MODEL 1
REMARK VINA RESULT:      -7.6      0.000      0.000
REMARK  Name = 
REMARK  5 active torsions:
REMARK  status: ('A' for Active; 'I' for Inactive)
REMARK    1  A    between atoms: C_1  and  C_2
REMARK    2  A    between atoms: C_2  and  N_3
REMARK    3  A    between atoms: C_4  and  C_6
REMARK    4  A    between atoms: C_10  and  C_12
REMARK    5  A    between atoms: C_18  and  C_19
REMARK                            x       y       z     vdW  Elec       q    Type
REMARK                         _______ _______ _______ _____ _____    ______ ____
ROOT
ATOM      1  C   UNL     1       3.769   3.485  19.598  0.00  0.00    +0.000 A 
ATOM      2  S   UNL     1       2.648   4.080  20.774  0.00  0.00    +0.000 S 
ATOM      3  C   UNL     1       2.789   5.641  20.108  0.00  0.00    +0.000 A 
ATOM      4  N   UNL     1       2.009   6.600  20.689  0.00  0.00    +0.000 N 
ATOM      5  C   UNL     1       1.852   7.850  20.127  0.00  0.00    +0.000 C 
ATOM      6  O   UNL     1       2.354   8.231  19.071  0.00  0.00    +0.000 OA
ATOM      7  N   UNL     1       3.614   5.766  19.109  0.00  0.00    +0.000 NA
ATOM      8  C   UNL     1       4.182   4.539  18.792  0.00  0.00    +0.000 A 
ATOM      9  H   UNL     1       1.484   6.369  21.521  0.00  0.00    +0.000 HD
ENDROOT
BRANCH   8  10
ATOM     10  C   UNL     1       5.094   4.463  17.654  0.00  0.00    +0.000 A 
ATOM     11  C   UNL     1       6.470   4.652  17.861  0.00  0.00    +0.000 A 
ATOM     12  C   UNL     1       7.364   4.633  16.786  0.00  0.00    +0.000 A 
ATOM     13  C   UNL     1       6.893   4.425  15.492  0.00  0.00    +0.000 A 
ATOM     14  C   UNL     1       5.531   4.244  15.270  0.00  0.00    +0.000 A 
ATOM     15  C   UNL     1       4.636   4.278  16.343  0.00  0.00    +0.000 A 
ENDBRANCH   8  10
BRANCH   5  16
ATOM     16  C   UNL     1       0.977   8.716  20.893  0.00  0.00    +0.000 A 
ATOM     17  C   UNL     1       0.017   9.620  20.476  0.00  0.00    +0.000 A 
ATOM     18  C   UNL     1      -0.545  10.189  21.641  0.00  0.00    +0.000 A 
ATOM     19  C   UNL     1       0.109   9.607  22.701  0.00  0.00    +0.000 A 
ATOM     20  O   UNL     1       1.031   8.709  22.263  0.00  0.00    +0.000 OA
ENDBRANCH   5  16
BRANCH   1  22
ATOM     21  N   UNL     1       5.096   1.730  20.551  0.00  0.00    +0.000 N 
ATOM     22  C   UNL     1       4.172   2.091  19.586  0.00  0.00    +0.000 C 
ATOM     23  O   UNL     1       3.709   1.254  18.816  0.00  0.00    +0.000 OA
ATOM     24  H   UNL     1       5.498   2.450  21.136  0.00  0.00    +0.000 HD
BRANCH  21  26
ATOM     25  C   UNL     1       6.124   0.125  22.091  0.00  0.00    +0.000 C 
ATOM     26  C   UNL     1       5.535   0.360  20.716  0.00  0.00    +0.000 C 
ENDBRANCH  21  26
ENDBRANCH   1  22
TORSDOF 4
ENDMDL
MODEL 2
REMARK VINA RESULT:      -7.6      2.941      8.036
REMARK  Name = 
REMARK  5 active torsions:
REMARK  status: ('A' for Active; 'I' for Inactive)
REMARK    1  A    between atoms: C_1  and  C_2
REMARK    2  A    between atoms: C_2  and  N_3
REMARK    3  A    between atoms: C_4  and  C_6
REMARK    4  A    between atoms: C_10  and  C_12
REMARK    5  A    between atoms: C_18  and  C_19
REMARK                            x       y       z     vdW  Elec       q    Type
REMARK                         _______ _______ _______ _____ _____    ______ ____
ROOT
ATOM      1  C   UNL     1       2.942   6.808  18.537  0.00  0.00    +0.000 A 
ATOM      2  S   UNL     1       3.889   7.440  17.234  0.00  0.00    +0.000 S 
ATOM      3  C   UNL     1       4.441   5.868  16.883  0.00  0.00    +0.000 A 
ATOM      4  N   UNL     1       5.277   5.766  15.807  0.00  0.00    +0.000 N 
ATOM      5  C   UNL     1       5.629   4.544  15.273  0.00  0.00    +0.000 C 
ATOM      6  O   UNL     1       5.237   3.448  15.666  0.00  0.00    +0.000 OA
ATOM      7  N   UNL     1       4.009   4.920  17.663  0.00  0.00    +0.000 NA
ATOM      8  C   UNL     1       3.139   5.435  18.616  0.00  0.00    +0.000 A 
ATOM      9  H   UNL     1       5.598   6.609  15.352  0.00  0.00    +0.000 HD
ENDROOT
BRANCH   8  10
ATOM     10  C   UNL     1       2.498   4.513  19.550  0.00  0.00    +0.000 A 
ATOM     11  C   UNL     1       1.331   3.838  19.159  0.00  0.00    +0.000 A 
ATOM     12  C   UNL     1       0.667   2.985  20.045  0.00  0.00    +0.000 A 
ATOM     13  C   UNL     1       1.161   2.799  21.334  0.00  0.00    +0.000 A 
ATOM     14  C   UNL     1       2.312   3.467  21.739  0.00  0.00    +0.000 A 
ATOM     15  C   UNL     1       2.967   4.330  20.857  0.00  0.00    +0.000 A 
ENDBRANCH   8  10
BRANCH   5  16
ATOM     16  C   UNL     1       6.516   4.653  14.130  0.00  0.00    +0.000 A 
ATOM     17  C   UNL     1       6.479   4.021  12.901  0.00  0.00    +0.000 A 
ATOM     18  C   UNL     1       7.581   4.503  12.158  0.00  0.00    +0.000 A 
ATOM     19  C   UNL     1       8.230   5.396  12.978  0.00  0.00    +0.000 A 
ATOM     20  O   UNL     1       7.593   5.500  14.174  0.00  0.00    +0.000 OA
ENDBRANCH   5  16
BRANCH   1  22
ATOM     21  N   UNL     1       1.640   8.811  18.751  0.00  0.00    +0.000 N 
ATOM     22  C   UNL     1       2.145   7.683  19.375  0.00  0.00    +0.000 C 
ATOM     23  O   UNL     1       1.879   7.445  20.551  0.00  0.00    +0.000 OA
ATOM     24  H   UNL     1       1.920   9.008  17.799  0.00  0.00    +0.000 HD
BRANCH  21  26
ATOM     25  C   UNL     1      -0.297  10.290  18.506  0.00  0.00    +0.000 C 
ATOM     26  C   UNL     1       0.763   9.738  19.436  0.00  0.00    +0.000 C 
ENDBRANCH  21  26
ENDBRANCH   1  22
TORSDOF 4
ENDMDL
MODEL 3
REMARK VINA RESULT:      -7.5      2.915      4.972
REMARK  Name = 
REMARK  5 active torsions:
REMARK  status: ('A' for Active; 'I' for Inactive)
REMARK    1  A    between atoms: C_1  and  C_2
REMARK    2  A    between atoms: C_2  and  N_3
REMARK    3  A    between atoms: C_4  and  C_6
REMARK    4  A    between atoms: C_10  and  C_12
REMARK    5  A    between atoms: C_18  and  C_19
REMARK                            x       y       z     vdW  Elec       q    Type
REMARK                         _______ _______ _______ _____ _____    ______ ____
ROOT
ATOM      1  C   UNL     1       3.784   5.926  17.859  0.00  0.00    +0.000 A 
ATOM      2  S   UNL     1       3.946   7.534  17.242  0.00  0.00    +0.000 S 
ATOM      3  C   UNL     1       2.614   8.022  18.182  0.00  0.00    +0.000 A 
ATOM      4  N   UNL     1       2.291   9.347  18.100  0.00  0.00    +0.000 N 
ATOM      5  C   UNL     1       1.383   9.930  18.960  0.00  0.00    +0.000 C 
ATOM      6  O   UNL     1       0.795   9.361  19.877  0.00  0.00    +0.000 OA
ATOM      7  N   UNL     1       2.040   7.093  18.891  0.00  0.00    +0.000 NA
ATOM      8  C   UNL     1       2.701   5.882  18.728  0.00  0.00    +0.000 A 
ATOM      9  H   UNL     1       2.774   9.930  17.431  0.00  0.00    +0.000 HD
ENDROOT
BRANCH   8  10
ATOM     10  C   UNL     1       2.241   4.726  19.494  0.00  0.00    +0.000 A 
ATOM     11  C   UNL     1       1.400   3.784  18.879  0.00  0.00    +0.000 A 
ATOM     12  C   UNL     1       0.905   2.693  19.597  0.00  0.00    +0.000 A 
ATOM     13  C   UNL     1       1.242   2.530  20.939  0.00  0.00    +0.000 A 
ATOM     14  C   UNL     1       2.068   3.459  21.564  0.00  0.00    +0.000 A 
ATOM     15  C   UNL     1       2.552   4.558  20.849  0.00  0.00    +0.000 A 
ENDBRANCH   8  10
BRANCH   5  16
ATOM     16  C   UNL     1       1.187  11.346  18.713  0.00  0.00    +0.000 A 
ATOM     17  C   UNL     1       0.039  12.115  18.757  0.00  0.00    +0.000 A 
ATOM     18  C   UNL     1       0.420  13.439  18.439  0.00  0.00    +0.000 A 
ATOM     19  C   UNL     1       1.776  13.400  18.212  0.00  0.00    +0.000 A 
ATOM     20  O   UNL     1       2.255  12.139  18.379  0.00  0.00    +0.000 OA
ENDBRANCH   5  16
BRANCH   1  22
ATOM     21  N   UNL     1       5.029   4.896  16.087  0.00  0.00    +0.000 N 
ATOM     22  C   UNL     1       4.671   4.864  17.423  0.00  0.00    +0.000 C 
ATOM     23  O   UNL     1       5.128   4.007  18.175  0.00  0.00    +0.000 OA
ATOM     24  H   UNL     1       4.595   5.581  15.481  0.00  0.00    +0.000 HD
BRANCH  21  26
ATOM     25  C   UNL     1       5.987   4.017  14.010  0.00  0.00    +0.000 C 
ATOM     26  C   UNL     1       5.969   3.950  15.523  0.00  0.00    +0.000 C 
ENDBRANCH  21  26
ENDBRANCH   1  22
TORSDOF 4
ENDMDL
MODEL 4
REMARK VINA RESULT:      -7.5      2.943      4.881
REMARK  Name = 
REMARK  5 active torsions:
REMARK  status: ('A' for Active; 'I' for Inactive)
REMARK    1  A    between atoms: C_1  and  C_2
REMARK    2  A    between atoms: C_2  and  N_3
REMARK    3  A    between atoms: C_4  and  C_6
REMARK    4  A    between atoms: C_10  and  C_12
REMARK    5  A    between atoms: C_18  and  C_19
REMARK                            x       y       z     vdW  Elec       q    Type
REMARK                         _______ _______ _______ _____ _____    ______ ____
ROOT
ATOM      1  C   UNL     1       3.788   5.921  17.868  0.00  0.00    +0.000 A 
ATOM      2  S   UNL     1       4.013   7.529  17.271  0.00  0.00    +0.000 S 
ATOM      3  C   UNL     1       2.655   8.042  18.161  0.00  0.00    +0.000 A 
ATOM      4  N   UNL     1       2.367   9.375  18.077  0.00  0.00    +0.000 N 
ATOM      5  C   UNL     1       1.439   9.973  18.904  0.00  0.00    +0.000 C 
ATOM      6  O   UNL     1       0.801   9.411  19.792  0.00  0.00    +0.000 OA
ATOM      7  N   UNL     1       2.032   7.122  18.838  0.00  0.00    +0.000 NA
ATOM      8  C   UNL     1       2.669   5.897  18.693  0.00  0.00    +0.000 A 
ATOM      9  H   UNL     1       2.891   9.951  17.433  0.00  0.00    +0.000 HD
ENDROOT
BRANCH   8  10
ATOM     10  C   UNL     1       2.152   4.746  19.429  0.00  0.00    +0.000 A 
ATOM     11  C   UNL     1       2.454   4.611  20.794  0.00  0.00    +0.000 A 
ATOM     12  C   UNL     1       2.014   3.498  21.516  0.00  0.00    +0.000 A 
ATOM     13  C   UNL     1       1.269   2.506  20.883  0.00  0.00    +0.000 A 
ATOM     14  C   UNL     1       0.970   2.622  19.529  0.00  0.00    +0.000 A 
ATOM     15  C   UNL     1       1.421   3.728  18.804  0.00  0.00    +0.000 A 
ENDBRANCH   8  10
BRANCH   5  16
ATOM     16  C   UNL     1       1.287  11.395  18.661  0.00  0.00    +0.000 A 
ATOM     17  C   UNL     1       2.225  12.352  18.320  0.00  0.00    +0.000 A 
ATOM     18  C   UNL     1       1.533  13.578  18.196  0.00  0.00    +0.000 A 
ATOM     19  C   UNL     1       0.215  13.301  18.475  0.00  0.00    +0.000 A 
ATOM     20  O   UNL     1       0.051  11.980  18.754  0.00  0.00    +0.000 OA
ENDBRANCH   5  16
BRANCH   1  22
ATOM     21  N   UNL     1       5.006   4.823  16.119  0.00  0.00    +0.000 N 
ATOM     22  C   UNL     1       4.666   4.841  17.460  0.00  0.00    +0.000 C 
ATOM     23  O   UNL     1       5.131   4.011  18.237  0.00  0.00    +0.000 OA
ATOM     24  H   UNL     1       4.566   5.486  15.494  0.00  0.00    +0.000 HD
BRANCH  21  26
ATOM     25  C   UNL     1       6.070   3.989  14.075  0.00  0.00    +0.000 C 
ATOM     26  C   UNL     1       5.937   3.855  15.578  0.00  0.00    +0.000 C 
ENDBRANCH  21  26
ENDBRANCH   1  22
TORSDOF 4
ENDMDL
MODEL 5
REMARK VINA RESULT:      -7.3      2.842      7.736
REMARK  Name = 
REMARK  5 active torsions:
REMARK  status: ('A' for Active; 'I' for Inactive)
REMARK    1  A    between atoms: C_1  and  C_2
REMARK    2  A    between atoms: C_2  and  N_3
REMARK    3  A    between atoms: C_4  and  C_6
REMARK    4  A    between atoms: C_10  and  C_12
REMARK    5  A    between atoms: C_18  and  C_19
REMARK                            x       y       z     vdW  Elec       q    Type
REMARK                         _______ _______ _______ _____ _____    ______ ____
ROOT
ATOM      1  C   UNL     1       2.850   6.965  18.492  0.00  0.00    +0.000 A 
ATOM      2  S   UNL     1       3.832   7.566  17.201  0.00  0.00    +0.000 S 
ATOM      3  C   UNL     1       4.370   5.982  16.882  0.00  0.00    +0.000 A 
ATOM      4  N   UNL     1       5.227   5.855  15.825  0.00  0.00    +0.000 N 
ATOM      5  C   UNL     1       5.573   4.621  15.314  0.00  0.00    +0.000 C 
ATOM      6  O   UNL     1       5.157   3.535  15.714  0.00  0.00    +0.000 OA
ATOM      7  N   UNL     1       3.908   5.051  17.665  0.00  0.00    +0.000 NA
ATOM      8  C   UNL     1       3.026   5.590  18.592  0.00  0.00    +0.000 A 
ATOM      9  H   UNL     1       5.569   6.687  15.367  0.00  0.00    +0.000 HD
ENDROOT
BRANCH   8  10
ATOM     10  C   UNL     1       2.353   4.689  19.524  0.00  0.00    +0.000 A 
ATOM     11  C   UNL     1       2.880   4.515  20.814  0.00  0.00    +0.000 A 
ATOM     12  C   UNL     1       2.288   3.624  21.714  0.00  0.00    +0.000 A 
ATOM     13  C   UNL     1       1.163   2.896  21.335  0.00  0.00    +0.000 A 
ATOM     14  C   UNL     1       0.634   3.051  20.058  0.00  0.00    +0.000 A 
ATOM     15  C   UNL     1       1.235   3.931  19.153  0.00  0.00    +0.000 A 
ENDBRANCH   8  10
BRANCH   5  16
ATOM     16  C   UNL     1       6.485   4.703  14.189  0.00  0.00    +0.000 A 
ATOM     17  C   UNL     1       6.480   4.036  12.978  0.00  0.00    +0.000 A 
ATOM     18  C   UNL     1       7.596   4.503  12.247  0.00  0.00    +0.000 A 
ATOM     19  C   UNL     1       8.221   5.423  13.055  0.00  0.00    +0.000 A 
ATOM     20  O   UNL     1       7.557   5.557  14.234  0.00  0.00    +0.000 OA
ENDBRANCH   5  16
BRANCH   1  22
ATOM     21  N   UNL     1       2.042   7.595  20.660  0.00  0.00    +0.000 N 
ATOM     22  C   UNL     1       2.048   7.861  19.302  0.00  0.00    +0.000 C 
ATOM     23  O   UNL     1       1.440   8.828  18.849  0.00  0.00    +0.000 OA
ATOM     24  H   UNL     1       2.507   6.762  20.996  0.00  0.00    +0.000 HD
BRANCH  21  26
ATOM     25  C   UNL     1      -0.142   8.196  21.595  0.00  0.00    +0.000 C 
ATOM     26  C   UNL     1       1.352   8.448  21.605  0.00  0.00    +0.000 C 
ENDBRANCH  21  26
ENDBRANCH   1  22
TORSDOF 4
ENDMDL
MODEL 6
REMARK VINA RESULT:      -7.3      2.869      4.893
REMARK  Name = 
REMARK  5 active torsions:
REMARK  status: ('A' for Active; 'I' for Inactive)
REMARK    1  A    between atoms: C_1  and  C_2
REMARK    2  A    between atoms: C_2  and  N_3
REMARK    3  A    between atoms: C_4  and  C_6
REMARK    4  A    between atoms: C_10  and  C_12
REMARK    5  A    between atoms: C_18  and  C_19
REMARK                            x       y       z     vdW  Elec       q    Type
REMARK                         _______ _______ _______ _____ _____    ______ ____
ROOT
ATOM      1  C   UNL     1       3.609   6.140  17.865  0.00  0.00    +0.000 A 
ATOM      2  S   UNL     1       3.692   7.758  17.260  0.00  0.00    +0.000 S 
ATOM      3  C   UNL     1       2.377   8.190  18.251  0.00  0.00    +0.000 A 
ATOM      4  N   UNL     1       2.004   9.502  18.194  0.00  0.00    +0.000 N 
ATOM      5  C   UNL     1       1.107  10.044  19.092  0.00  0.00    +0.000 C 
ATOM      6  O   UNL     1       0.573   9.446  20.023  0.00  0.00    +0.000 OA
ATOM      7  N   UNL     1       1.863   7.234  18.970  0.00  0.00    +0.000 NA
ATOM      8  C   UNL     1       2.560   6.049  18.772  0.00  0.00    +0.000 A 
ATOM      9  H   UNL     1       2.442  10.108  17.515  0.00  0.00    +0.000 HD
ENDROOT
BRANCH   8  10
ATOM     10  C   UNL     1       2.170   4.870  19.542  0.00  0.00    +0.000 A 
ATOM     11  C   UNL     1       1.329   3.912  18.953  0.00  0.00    +0.000 A 
ATOM     12  C   UNL     1       0.899   2.797  19.678  0.00  0.00    +0.000 A 
ATOM     13  C   UNL     1       1.303   2.627  21.000  0.00  0.00    +0.000 A 
ATOM     14  C   UNL     1       2.129   3.572  21.600  0.00  0.00    +0.000 A 
ATOM     15  C   UNL     1       2.547   4.695  20.879  0.00  0.00    +0.000 A 
ENDBRANCH   8  10
BRANCH   5  16
ATOM     16  C   UNL     1       0.852  11.454  18.866  0.00  0.00    +0.000 A 
ATOM     17  C   UNL     1       1.727  12.522  18.781  0.00  0.00    +0.000 A 
ATOM     18  C   UNL     1       0.945  13.675  18.541  0.00  0.00    +0.000 A 
ATOM     19  C   UNL     1      -0.361  13.246  18.500  0.00  0.00    +0.000 A 
ATOM     20  O   UNL     1      -0.432  11.902  18.692  0.00  0.00    +0.000 OA
ENDBRANCH   5  16
BRANCH   1  22
ATOM     21  N   UNL     1       5.848   5.486  17.312  0.00  0.00    +0.000 N 
ATOM     22  C   UNL     1       4.517   5.115  17.388  0.00  0.00    +0.000 C 
ATOM     23  O   UNL     1       4.167   3.971  17.106  0.00  0.00    +0.000 OA
ATOM     24  H   UNL     1       6.099   6.448  17.498  0.00  0.00    +0.000 HD
BRANCH  21  26
ATOM     25  C   UNL     1       7.127   4.568  15.434  0.00  0.00    +0.000 C 
ATOM     26  C   UNL     1       6.884   4.549  16.928  0.00  0.00    +0.000 C 
ENDBRANCH  21  26
ENDBRANCH   1  22
TORSDOF 4
ENDMDL
MODEL 7
REMARK VINA RESULT:      -7.1      2.606      4.148
REMARK  Name = 
REMARK  5 active torsions:
REMARK  status: ('A' for Active; 'I' for Inactive)
REMARK    1  A    between atoms: C_1  and  C_2
REMARK    2  A    between atoms: C_2  and  N_3
REMARK    3  A    between atoms: C_4  and  C_6
REMARK    4  A    between atoms: C_10  and  C_12
REMARK    5  A    between atoms: C_18  and  C_19
REMARK                            x       y       z     vdW  Elec       q    Type
REMARK                         _______ _______ _______ _____ _____    ______ ____
ROOT
ATOM      1  C   UNL     1       3.902   6.647  17.468  0.00  0.00    +0.000 A 
ATOM      2  S   UNL     1       3.387   8.268  17.787  0.00  0.00    +0.000 S 
ATOM      3  C   UNL     1       2.339   7.689  18.998  0.00  0.00    +0.000 A 
ATOM      4  N   UNL     1       1.637   8.646  19.674  0.00  0.00    +0.000 N 
ATOM      5  C   UNL     1       0.919   8.352  20.815  0.00  0.00    +0.000 C 
ATOM      6  O   UNL     1       0.843   7.250  21.352  0.00  0.00    +0.000 OA
ATOM      7  N   UNL     1       2.315   6.399  19.167  0.00  0.00    +0.000 NA
ATOM      8  C   UNL     1       3.211   5.780  18.306  0.00  0.00    +0.000 A 
ATOM      9  H   UNL     1       1.693   9.606  19.365  0.00  0.00    +0.000 HD
ENDROOT
BRANCH   8  10
ATOM     10  C   UNL     1       3.374   4.330  18.387  0.00  0.00    +0.000 A 
ATOM     11  C   UNL     1       2.693   3.509  17.474  0.00  0.00    +0.000 A 
ATOM     12  C   UNL     1       2.790   2.117  17.555  0.00  0.00    +0.000 A 
ATOM     13  C   UNL     1       3.567   1.529  18.551  0.00  0.00    +0.000 A 
ATOM     14  C   UNL     1       4.240   2.329  19.468  0.00  0.00    +0.000 A 
ATOM     15  C   UNL     1       4.132   3.721  19.395  0.00  0.00    +0.000 A 
ENDBRANCH   8  10
BRANCH   5  16
ATOM     16  C   UNL     1       0.254   9.508  21.386  0.00  0.00    +0.000 A 
ATOM     17  C   UNL     1      -0.204   9.738  22.670  0.00  0.00    +0.000 A 
ATOM     18  C   UNL     1      -0.765  11.035  22.680  0.00  0.00    +0.000 A 
ATOM     19  C   UNL     1      -0.624  11.520  21.401  0.00  0.00    +0.000 A 
ATOM     20  O   UNL     1      -0.004  10.607  20.607  0.00  0.00    +0.000 OA
ENDBRANCH   5  16
BRANCH   1  22
ATOM     21  N   UNL     1       5.772   5.348  16.716  0.00  0.00    +0.000 N 
ATOM     22  C   UNL     1       4.874   6.362  16.430  0.00  0.00    +0.000 C 
ATOM     23  O   UNL     1       4.896   6.931  15.342  0.00  0.00    +0.000 OA
ATOM     24  H   UNL     1       5.764   4.935  17.639  0.00  0.00    +0.000 HD
BRANCH  21  26
ATOM     25  C   UNL     1       6.188   3.813  14.852  0.00  0.00    +0.000 C 
ATOM     26  C   UNL     1       6.750   4.897  15.748  0.00  0.00    +0.000 C 
ENDBRANCH  21  26
ENDBRANCH   1  22
TORSDOF 4
ENDMDL
MODEL 8
REMARK VINA RESULT:      -7.0      1.226      1.448
REMARK  Name = 
REMARK  5 active torsions:
REMARK  status: ('A' for Active; 'I' for Inactive)
REMARK    1  A    between atoms: C_1  and  C_2
REMARK    2  A    between atoms: C_2  and  N_3
REMARK    3  A    between atoms: C_4  and  C_6
REMARK    4  A    between atoms: C_10  and  C_12
REMARK    5  A    between atoms: C_18  and  C_19
REMARK                            x       y       z     vdW  Elec       q    Type
REMARK                         _______ _______ _______ _____ _____    ______ ____
ROOT
ATOM      1  C   UNL     1       3.047   4.140  19.649  0.00  0.00    +0.000 A 
ATOM      2  S   UNL     1       2.059   4.697  20.955  0.00  0.00    +0.000 S 
ATOM      3  C   UNL     1       2.144   6.280  20.335  0.00  0.00    +0.000 A 
ATOM      4  N   UNL     1       1.436   7.221  21.028  0.00  0.00    +0.000 N 
ATOM      5  C   UNL     1       1.233   8.492  20.530  0.00  0.00    +0.000 C 
ATOM      6  O   UNL     1       1.627   8.909  19.443  0.00  0.00    +0.000 OA
ATOM      7  N   UNL     1       2.863   6.438  19.262  0.00  0.00    +0.000 NA
ATOM      8  C   UNL     1       3.385   5.221  18.844  0.00  0.00    +0.000 A 
ATOM      9  H   UNL     1       0.997   6.963  21.900  0.00  0.00    +0.000 HD
ENDROOT
BRANCH   8  10
ATOM     10  C   UNL     1       4.175   5.182  17.616  0.00  0.00    +0.000 A 
ATOM     11  C   UNL     1       4.550   6.387  17.001  0.00  0.00    +0.000 A 
ATOM     12  C   UNL     1       5.264   6.385  15.800  0.00  0.00    +0.000 A 
ATOM     13  C   UNL     1       5.611   5.177  15.198  0.00  0.00    +0.000 A 
ATOM     14  C   UNL     1       5.240   3.975  15.791  0.00  0.00    +0.000 A 
ATOM     15  C   UNL     1       4.513   3.979  16.985  0.00  0.00    +0.000 A 
ENDBRANCH   8  10
BRANCH   5  16
ATOM     16  C   UNL     1       0.449   9.334  21.413  0.00  0.00    +0.000 A 
ATOM     17  C   UNL     1      -0.076   9.078  22.667  0.00  0.00    +0.000 A 
ATOM     18  C   UNL     1      -0.746  10.252  23.079  0.00  0.00    +0.000 A 
ATOM     19  C   UNL     1      -0.599  11.154  22.052  0.00  0.00    +0.000 A 
ATOM     20  O   UNL     1       0.127  10.613  21.038  0.00  0.00    +0.000 OA
ENDBRANCH   5  16
BRANCH   1  22
ATOM     21  N   UNL     1       4.610   2.404  20.194  0.00  0.00    +0.000 N 
ATOM     22  C   UNL     1       3.435   2.746  19.546  0.00  0.00    +0.000 C 
ATOM     23  O   UNL     1       2.765   1.893  18.970  0.00  0.00    +0.000 OA
ATOM     24  H   UNL     1       5.167   3.137  20.614  0.00  0.00    +0.000 HD
BRANCH  21  26
ATOM     25  C   UNL     1       5.614   0.684  21.621  0.00  0.00    +0.000 C 
ATOM     26  C   UNL     1       5.085   1.037  20.247  0.00  0.00    +0.000 C 
ENDBRANCH  21  26
ENDBRANCH   1  22
TORSDOF 4
ENDMDL
MODEL 9
REMARK VINA RESULT:      -6.7      2.721      4.733
REMARK  Name = 
REMARK  5 active torsions:
REMARK  status: ('A' for Active; 'I' for Inactive)
REMARK    1  A    between atoms: C_1  and  C_2
REMARK    2  A    between atoms: C_2  and  N_3
REMARK    3  A    between atoms: C_4  and  C_6
REMARK    4  A    between atoms: C_10  and  C_12
REMARK    5  A    between atoms: C_18  and  C_19
REMARK                            x       y       z     vdW  Elec       q    Type
REMARK                         _______ _______ _______ _____ _____    ______ ____
ROOT
ATOM      1  C   UNL     1       4.182   6.147  17.886  0.00  0.00    +0.000 A 
ATOM      2  S   UNL     1       3.957   7.722  17.205  0.00  0.00    +0.000 S 
ATOM      3  C   UNL     1       2.637   7.978  18.250  0.00  0.00    +0.000 A 
ATOM      4  N   UNL     1       2.043   9.204  18.155  0.00  0.00    +0.000 N 
ATOM      5  C   UNL     1       1.111   9.634  19.077  0.00  0.00    +0.000 C 
ATOM      6  O   UNL     1       0.732   9.004  20.063  0.00  0.00    +0.000 OA
ATOM      7  N   UNL     1       2.329   6.989  19.038  0.00  0.00    +0.000 NA
ATOM      8  C   UNL     1       3.208   5.929  18.854  0.00  0.00    +0.000 A 
ATOM      9  H   UNL     1       2.338   9.838  17.427  0.00  0.00    +0.000 HD
ENDROOT
BRANCH   8  10
ATOM     10  C   UNL     1       3.063   4.744  19.695  0.00  0.00    +0.000 A 
ATOM     11  C   UNL     1       2.170   4.775  20.778  0.00  0.00    +0.000 A 
ATOM     12  C   UNL     1       2.043   3.675  21.631  0.00  0.00    +0.000 A 
ATOM     13  C   UNL     1       2.808   2.531  21.412  0.00  0.00    +0.000 A 
ATOM     14  C   UNL     1       3.702   2.489  20.348  0.00  0.00    +0.000 A 
ATOM     15  C   UNL     1       3.840   3.595  19.504  0.00  0.00    +0.000 A 
ENDBRANCH   8  10
BRANCH   5  16
ATOM     16  C   UNL     1       0.608  10.967  18.804  0.00  0.00    +0.000 A 
ATOM     17  C   UNL     1       1.250  12.191  18.833  0.00  0.00    +0.000 A 
ATOM     18  C   UNL     1       0.291  13.166  18.473  0.00  0.00    +0.000 A 
ATOM     19  C   UNL     1      -0.882  12.481  18.253  0.00  0.00    +0.000 A 
ATOM     20  O   UNL     1      -0.703  11.148  18.445  0.00  0.00    +0.000 OA
ENDBRANCH   5  16
BRANCH   1  22
ATOM     21  N   UNL     1       4.954   4.607  16.218  0.00  0.00    +0.000 N 
ATOM     22  C   UNL     1       5.228   5.266  17.404  0.00  0.00    +0.000 C 
ATOM     23  O   UNL     1       6.313   5.127  17.963  0.00  0.00    +0.000 OA
ATOM     24  H   UNL     1       4.033   4.699  15.810  0.00  0.00    +0.000 HD
BRANCH  21  26
ATOM     25  C   UNL     1       6.170   4.173  14.136  0.00  0.00    +0.000 C 
ATOM     26  C   UNL     1       5.931   3.755  15.572  0.00  0.00    +0.000 C 
ENDBRANCH  21  26
ENDBRANCH   1  22
TORSDOF 4
ENDMDL
