MODEL 1
REMARK VINA RESULT:      -4.7      0.000      0.000
REMARK  Name = 
REMARK  4 active torsions:
REMARK  status: ('A' for Active; 'I' for Inactive)
REMARK    1  A    between atoms: C_1  and  O_2
REMARK    2  A    between atoms: O_2  and  C_3
REMARK    3  A    between atoms: C_7  and  C_8
REMARK    4  A    between atoms: C_8  and  O_9
REMARK                            x       y       z     vdW  Elec       q    Type
REMARK                         _______ _______ _______ _____ _____    ______ ____
ROOT
ATOM      1  C   UNL     1       3.912   3.550  17.186  0.00  0.00    +0.000 C 
ATOM      2  C   UNL     1       4.137   3.256  18.692  0.00  0.00    +0.000 C 
ATOM      3  N   UNL     1       5.517   3.512  19.163  0.00  0.00    +0.000 NA
ATOM      4  C   UNL     1       5.886   4.882  18.769  0.00  0.00    +0.000 C 
ATOM      5  C   UNL     1       5.696   5.161  17.263  0.00  0.00    +0.000 C 
ATOM      6  O   UNL     1       4.349   4.869  16.843  0.00  0.00    +0.000 OA
ATOM      7  H   UNL     1       6.147   2.841  18.726  0.00  0.00    +0.000 HD
ENDROOT
BRANCH   1   9
ATOM      8  C   UNL     1       1.721   4.200  17.788  0.00  0.00    +0.000 C 
ATOM      9  O   UNL     1       2.516   3.414  16.911  0.00  0.00    +0.000 OA
ENDBRANCH   1   9
BRANCH   5  10
ATOM     10  C   UNL     1       6.714   4.421  16.386  0.00  0.00    +0.000 C 
BRANCH  10  11
ATOM     11  O   UNL     1       7.915   4.172  17.117  0.00  0.00    +0.000 OA
ATOM     12  H   UNL     1       8.190   3.262  16.893  0.00  0.00    +0.000 HD
ENDBRANCH  10  11
ENDBRANCH   5  10
TORSDOF 3
ENDMDL
MODEL 2
REMARK VINA RESULT:      -4.7      2.229      4.048
REMARK  Name = 
REMARK  4 active torsions:
REMARK  status: ('A' for Active; 'I' for Inactive)
REMARK    1  A    between atoms: C_1  and  O_2
REMARK    2  A    between atoms: O_2  and  C_3
REMARK    3  A    between atoms: C_7  and  C_8
REMARK    4  A    between atoms: C_8  and  O_9
REMARK                            x       y       z     vdW  Elec       q    Type
REMARK                         _______ _______ _______ _____ _____    ______ ____
ROOT
ATOM      1  C   UNL     1       6.968   5.836  17.133  0.00  0.00    +0.000 C 
ATOM      2  C   UNL     1       6.916   4.752  16.025  0.00  0.00    +0.000 C 
ATOM      3  N   UNL     1       6.025   3.610  16.331  0.00  0.00    +0.000 NA
ATOM      4  C   UNL     1       4.703   4.148  16.692  0.00  0.00    +0.000 C 
ATOM      5  C   UNL     1       4.753   5.199  17.821  0.00  0.00    +0.000 C 
ATOM      6  O   UNL     1       5.654   6.274  17.494  0.00  0.00    +0.000 OA
ATOM      7  H   UNL     1       6.414   3.086  17.113  0.00  0.00    +0.000 HD
ENDROOT
BRANCH   1   9
ATOM      8  C   UNL     1       7.738   8.032  17.547  0.00  0.00    +0.000 C 
ATOM      9  O   UNL     1       7.730   6.939  16.639  0.00  0.00    +0.000 OA
ENDBRANCH   1   9
BRANCH   5  10
ATOM     10  C   UNL     1       5.100   4.592  19.186  0.00  0.00    +0.000 C 
BRANCH  10  11
ATOM     11  O   UNL     1       5.355   3.193  19.060  0.00  0.00    +0.000 OA
ATOM     12  H   UNL     1       4.585   2.814  18.593  0.00  0.00    +0.000 HD
ENDBRANCH  10  11
ENDBRANCH   5  10
TORSDOF 3
ENDMDL
MODEL 3
REMARK VINA RESULT:      -4.6      2.762      3.627
REMARK  Name = 
REMARK  4 active torsions:
REMARK  status: ('A' for Active; 'I' for Inactive)
REMARK    1  A    between atoms: C_1  and  O_2
REMARK    2  A    between atoms: O_2  and  C_3
REMARK    3  A    between atoms: C_7  and  C_8
REMARK    4  A    between atoms: C_8  and  O_9
REMARK                            x       y       z     vdW  Elec       q    Type
REMARK                         _______ _______ _______ _____ _____    ______ ____
ROOT
ATOM      1  C   UNL     1       7.241   5.087  16.012  0.00  0.00    +0.000 C 
ATOM      2  C   UNL     1       6.067   4.109  16.281  0.00  0.00    +0.000 C 
ATOM      3  N   UNL     1       5.646   4.038  17.698  0.00  0.00    +0.000 NA
ATOM      4  C   UNL     1       5.388   5.410  18.166  0.00  0.00    +0.000 C 
ATOM      5  C   UNL     1       6.572   6.372  17.933  0.00  0.00    +0.000 C 
ATOM      6  O   UNL     1       6.968   6.387  16.548  0.00  0.00    +0.000 OA
ATOM      7  H   UNL     1       6.394   3.616  18.246  0.00  0.00    +0.000 HD
ENDROOT
BRANCH   1   9
ATOM      8  C   UNL     1       6.553   4.314  13.888  0.00  0.00    +0.000 C 
ATOM      9  O   UNL     1       7.433   5.174  14.599  0.00  0.00    +0.000 OA
ENDBRANCH   1   9
BRANCH   5  10
ATOM     10  C   UNL     1       7.772   6.074  18.841  0.00  0.00    +0.000 C 
BRANCH  10  11
ATOM     11  O   UNL     1       7.350   5.369  20.008  0.00  0.00    +0.000 OA
ATOM     12  H   UNL     1       7.298   4.426  19.757  0.00  0.00    +0.000 HD
ENDBRANCH  10  11
ENDBRANCH   5  10
TORSDOF 3
ENDMDL
MODEL 4
REMARK VINA RESULT:      -4.6      2.551      4.693
REMARK  Name = 
REMARK  4 active torsions:
REMARK  status: ('A' for Active; 'I' for Inactive)
REMARK    1  A    between atoms: C_1  and  O_2
REMARK    2  A    between atoms: O_2  and  C_3
REMARK    3  A    between atoms: C_7  and  C_8
REMARK    4  A    between atoms: C_8  and  O_9
REMARK                            x       y       z     vdW  Elec       q    Type
REMARK                         _______ _______ _______ _____ _____    ______ ____
ROOT
ATOM      1  C   UNL     1       3.969   3.247  19.614  0.00  0.00    +0.000 C 
ATOM      2  C   UNL     1       3.566   1.963  18.841  0.00  0.00    +0.000 C 
ATOM      3  N   UNL     1       2.110   1.699  18.814  0.00  0.00    +0.000 NA
ATOM      4  C   UNL     1       1.436   2.915  18.328  0.00  0.00    +0.000 C 
ATOM      5  C   UNL     1       1.809   4.185  19.122  0.00  0.00    +0.000 C 
ATOM      6  O   UNL     1       3.235   4.385  19.148  0.00  0.00    +0.000 OA
ATOM      7  H   UNL     1       1.795   1.479  19.758  0.00  0.00    +0.000 HD
ENDROOT
BRANCH   1   9
ATOM      8  C   UNL     1       5.633   4.656  18.703  0.00  0.00    +0.000 C 
ATOM      9  O   UNL     1       5.368   3.459  19.423  0.00  0.00    +0.000 OA
ENDBRANCH   1   9
BRANCH   5  10
ATOM     10  C   UNL     1       1.230   4.191  20.543  0.00  0.00    +0.000 C 
BRANCH  10  11
ATOM     11  O   UNL     1       0.602   2.942  20.831  0.00  0.00    +0.000 OA
ATOM     12  H   UNL     1       1.312   2.335  21.114  0.00  0.00    +0.000 HD
ENDBRANCH  10  11
ENDBRANCH   5  10
TORSDOF 3
ENDMDL
MODEL 5
REMARK VINA RESULT:      -4.6      1.244      1.283
REMARK  Name = 
REMARK  4 active torsions:
REMARK  status: ('A' for Active; 'I' for Inactive)
REMARK    1  A    between atoms: C_1  and  O_2
REMARK    2  A    between atoms: O_2  and  C_3
REMARK    3  A    between atoms: C_7  and  C_8
REMARK    4  A    between atoms: C_8  and  O_9
REMARK                            x       y       z     vdW  Elec       q    Type
REMARK                         _______ _______ _______ _____ _____    ______ ____
ROOT
ATOM      1  C   UNL     1       3.214   2.732  17.727  0.00  0.00    +0.000 C 
ATOM      2  C   UNL     1       3.798   2.401  19.125  0.00  0.00    +0.000 C 
ATOM      3  N   UNL     1       5.145   2.964  19.372  0.00  0.00    +0.000 NA
ATOM      4  C   UNL     1       5.096   4.407  19.081  0.00  0.00    +0.000 C 
ATOM      5  C   UNL     1       4.549   4.733  17.675  0.00  0.00    +0.000 C 
ATOM      6  O   UNL     1       3.253   4.140  17.468  0.00  0.00    +0.000 OA
ATOM      7  H   UNL     1       5.815   2.506  18.755  0.00  0.00    +0.000 HD
ENDROOT
BRANCH   1   9
ATOM      8  C   UNL     1       1.121   2.692  18.823  0.00  0.00    +0.000 C 
ATOM      9  O   UNL     1       1.864   2.268  17.689  0.00  0.00    +0.000 OA
ENDBRANCH   1   9
BRANCH   5  10
ATOM     10  C   UNL     1       5.517   4.336  16.552  0.00  0.00    +0.000 C 
BRANCH  10  11
ATOM     11  O   UNL     1       6.806   4.037  17.087  0.00  0.00    +0.000 OA
ATOM     12  H   UNL     1       7.201   4.890  17.349  0.00  0.00    +0.000 HD
ENDBRANCH  10  11
ENDBRANCH   5  10
TORSDOF 3
ENDMDL
MODEL 6
REMARK VINA RESULT:      -4.5      2.939      3.850
REMARK  Name = 
REMARK  4 active torsions:
REMARK  status: ('A' for Active; 'I' for Inactive)
REMARK    1  A    between atoms: C_1  and  O_2
REMARK    2  A    between atoms: O_2  and  C_3
REMARK    3  A    between atoms: C_7  and  C_8
REMARK    4  A    between atoms: C_8  and  O_9
REMARK                            x       y       z     vdW  Elec       q    Type
REMARK                         _______ _______ _______ _____ _____    ______ ____
ROOT
ATOM      1  C   UNL     1       6.802   4.591  14.875  0.00  0.00    +0.000 C 
ATOM      2  C   UNL     1       5.262   4.695  15.025  0.00  0.00    +0.000 C 
ATOM      3  N   UNL     1       4.794   4.837  16.422  0.00  0.00    +0.000 NA
ATOM      4  C   UNL     1       5.522   5.960  17.035  0.00  0.00    +0.000 C 
ATOM      5  C   UNL     1       7.056   5.836  16.918  0.00  0.00    +0.000 C 
ATOM      6  O   UNL     1       7.464   5.669  15.546  0.00  0.00    +0.000 OA
ATOM      7  H   UNL     1       4.992   3.975  16.928  0.00  0.00    +0.000 HD
ENDROOT
BRANCH   1   9
ATOM      8  C   UNL     1       6.341   3.688  12.741  0.00  0.00    +0.000 C 
ATOM      9  O   UNL     1       7.116   4.620  13.482  0.00  0.00    +0.000 OA
ENDBRANCH   1   9
BRANCH   5  10
ATOM     10  C   UNL     1       7.633   4.720  17.798  0.00  0.00    +0.000 C 
BRANCH  10  11
ATOM     11  O   UNL     1       6.588   4.049  18.502  0.00  0.00    +0.000 OA
ATOM     12  H   UNL     1       6.363   3.259  17.973  0.00  0.00    +0.000 HD
ENDBRANCH  10  11
ENDBRANCH   5  10
TORSDOF 3
ENDMDL
MODEL 7
REMARK VINA RESULT:      -4.5      2.245      4.209
REMARK  Name = 
REMARK  4 active torsions:
REMARK  status: ('A' for Active; 'I' for Inactive)
REMARK    1  A    between atoms: C_1  and  O_2
REMARK    2  A    between atoms: O_2  and  C_3
REMARK    3  A    between atoms: C_7  and  C_8
REMARK    4  A    between atoms: C_8  and  O_9
REMARK                            x       y       z     vdW  Elec       q    Type
REMARK                         _______ _______ _______ _____ _____    ______ ____
ROOT
ATOM      1  C   UNL     1       5.208   4.174  18.912  0.00  0.00    +0.000 C 
ATOM      2  C   UNL     1       4.110   5.167  19.377  0.00  0.00    +0.000 C 
ATOM      3  N   UNL     1       2.744   4.596  19.404  0.00  0.00    +0.000 NA
ATOM      4  C   UNL     1       2.786   3.353  20.192  0.00  0.00    +0.000 C 
ATOM      5  C   UNL     1       3.853   2.350  19.704  0.00  0.00    +0.000 C 
ATOM      6  O   UNL     1       5.160   2.956  19.664  0.00  0.00    +0.000 OA
ATOM      7  H   UNL     1       2.449   4.396  18.450  0.00  0.00    +0.000 HD
ENDROOT
BRANCH   1   9
ATOM      8  C   UNL     1       7.276   4.729  17.913  0.00  0.00    +0.000 C 
ATOM      9  O   UNL     1       6.478   4.803  19.086  0.00  0.00    +0.000 OA
ENDBRANCH   1   9
BRANCH   5  10
ATOM     10  C   UNL     1       3.503   1.718  18.351  0.00  0.00    +0.000 C 
BRANCH  10  11
ATOM     11  O   UNL     1       2.096   1.786  18.117  0.00  0.00    +0.000 OA
ATOM     12  H   UNL     1       1.677   1.220  18.793  0.00  0.00    +0.000 HD
ENDBRANCH  10  11
ENDBRANCH   5  10
TORSDOF 3
ENDMDL
MODEL 8
REMARK VINA RESULT:      -4.5      2.708      4.494
REMARK  Name = 
REMARK  4 active torsions:
REMARK  status: ('A' for Active; 'I' for Inactive)
REMARK    1  A    between atoms: C_1  and  O_2
REMARK    2  A    between atoms: O_2  and  C_3
REMARK    3  A    between atoms: C_7  and  C_8
REMARK    4  A    between atoms: C_8  and  O_9
REMARK                            x       y       z     vdW  Elec       q    Type
REMARK                         _______ _______ _______ _____ _____    ______ ____
ROOT
ATOM      1  C   UNL     1       7.149   7.121  17.386  0.00  0.00    +0.000 C 
ATOM      2  C   UNL     1       7.888   6.588  18.642  0.00  0.00    +0.000 C 
ATOM      3  N   UNL     1       7.598   5.172  18.965  0.00  0.00    +0.000 NA
ATOM      4  C   UNL     1       7.841   4.370  17.754  0.00  0.00    +0.000 C 
ATOM      5  C   UNL     1       7.075   4.879  16.515  0.00  0.00    +0.000 C 
ATOM      6  O   UNL     1       7.363   6.267  16.256  0.00  0.00    +0.000 OA
ATOM      7  H   UNL     1       6.624   5.090  19.250  0.00  0.00    +0.000 HD
ENDROOT
BRANCH   1   9
ATOM      8  C   UNL     1       8.348   8.984  18.206  0.00  0.00    +0.000 C 
ATOM      9  O   UNL     1       7.641   8.432  17.105  0.00  0.00    +0.000 OA
ENDBRANCH   1   9
BRANCH   5  10
ATOM     10  C   UNL     1       5.562   4.644  16.610  0.00  0.00    +0.000 C 
BRANCH  10  11
ATOM     11  O   UNL     1       5.270   3.674  17.616  0.00  0.00    +0.000 OA
ATOM     12  H   UNL     1       4.341   3.406  17.479  0.00  0.00    +0.000 HD
ENDBRANCH  10  11
ENDBRANCH   5  10
TORSDOF 3
ENDMDL
MODEL 9
REMARK VINA RESULT:      -4.4      1.825      3.716
REMARK  Name = 
REMARK  4 active torsions:
REMARK  status: ('A' for Active; 'I' for Inactive)
REMARK    1  A    between atoms: C_1  and  O_2
REMARK    2  A    between atoms: O_2  and  C_3
REMARK    3  A    between atoms: C_7  and  C_8
REMARK    4  A    between atoms: C_8  and  O_9
REMARK                            x       y       z     vdW  Elec       q    Type
REMARK                         _______ _______ _______ _____ _____    ______ ____
ROOT
ATOM      1  C   UNL     1       6.430   5.678  16.827  0.00  0.00    +0.000 C 
ATOM      2  C   UNL     1       7.045   4.541  17.685  0.00  0.00    +0.000 C 
ATOM      3  N   UNL     1       6.207   4.121  18.831  0.00  0.00    +0.000 NA
ATOM      4  C   UNL     1       4.861   3.812  18.322  0.00  0.00    +0.000 C 
ATOM      5  C   UNL     1       4.235   4.959  17.500  0.00  0.00    +0.000 C 
ATOM      6  O   UNL     1       5.097   5.356  16.416  0.00  0.00    +0.000 OA
ATOM      7  H   UNL     1       6.159   4.884  19.505  0.00  0.00    +0.000 HD
ENDROOT
BRANCH   1   9
ATOM      8  C   UNL     1       7.014   4.892  14.677  0.00  0.00    +0.000 C 
ATOM      9  O   UNL     1       7.261   5.867  15.681  0.00  0.00    +0.000 OA
ENDBRANCH   1   9
BRANCH   5  10
ATOM     10  C   UNL     1       3.850   6.169  18.361  0.00  0.00    +0.000 C 
BRANCH  10  11
ATOM     11  O   UNL     1       3.865   5.821  19.746  0.00  0.00    +0.000 OA
ATOM     12  H   UNL     1       4.779   5.963  20.056  0.00  0.00    +0.000 HD
ENDBRANCH  10  11
ENDBRANCH   5  10
TORSDOF 3
ENDMDL
