MODEL 1
REMARK VINA RESULT:      -9.1      0.000      0.000
REMARK  Name = 
REMARK  7 active torsions:
REMARK  status: ('A' for Active; 'I' for Inactive)
REMARK    1  A    between atoms: C_1  and  C_2
REMARK    2  A    between atoms: C_2  and  C_3
REMARK    3  A    between atoms: N_7  and  C_8
REMARK    4  A    between atoms: N_11  and  C_12
REMARK    5  A    between atoms: C_12  and  C_13
REMARK    6  A    between atoms: C_16  and  C_17
REMARK    7  A    between atoms: C_22  and  C_23
REMARK                            x       y       z     vdW  Elec       q    Type
REMARK                         _______ _______ _______ _____ _____    ______ ____
ROOT
ATOM      1  C   UNL     1       1.235   8.836  19.606  0.00  0.00    +0.000 A 
ATOM      2  C   UNL     1       1.760   7.717  20.261  0.00  0.00    +0.000 A 
ATOM      3  C   UNL     1       2.619   6.824  19.594  0.00  0.00    +0.000 A 
ATOM      4  C   UNL     1       3.052   7.048  18.275  0.00  0.00    +0.000 A 
ATOM      5  C   UNL     1       2.592   8.229  17.666  0.00  0.00    +0.000 A 
ATOM      6  C   UNL     1       1.698   9.102  18.312  0.00  0.00    +0.000 A 
ENDROOT
BRANCH   4   7
ATOM      7  C   UNL     1       3.893   6.066  17.522  0.00  0.00    +0.000 A 
ATOM      8  C   UNL     1       5.024   6.561  16.819  0.00  0.00    +0.000 A 
ATOM      9  C   UNL     1       5.866   5.736  16.057  0.00  0.00    +0.000 A 
ATOM     10  C   UNL     1       5.578   4.393  15.937  0.00  0.00    +0.000 A 
ATOM     11  C   UNL     1       4.471   3.867  16.595  0.00  0.00    +0.000 A 
ATOM     12  C   UNL     1       3.638   4.674  17.416  0.00  0.00    +0.000 A 
BRANCH  12  13
ATOM     13  C   UNL     1       2.589   3.980  18.160  0.00  0.00    +0.000 A 
ATOM     14  N   UNL     1       2.796   3.346  19.362  0.00  0.00    +0.000 NA
ATOM     15  N   UNL     1       1.644   2.797  19.716  0.00  0.00    +0.000 NA
ATOM     16  N   UNL     1       0.816   3.079  18.709  0.00  0.00    +0.000 N 
ATOM     17  N   UNL     1       1.325   3.820  17.716  0.00  0.00    +0.000 NA
ATOM     18  H   UNL     1      -0.139   2.735  18.695  0.00  0.00    +0.000 HD
ENDBRANCH  12  13
ENDBRANCH   4   7
BRANCH   1  19
ATOM     19  C   UNL     1       0.065   9.614  20.189  0.00  0.00    +0.000 C 
BRANCH  19  28
ATOM     20  C   UNL     1      -0.884  11.382  18.675  0.00  0.00    +0.000 A 
ATOM     21  C   UNL     1      -1.021  12.672  18.341  0.00  0.00    +0.000 A 
ATOM     22  C   UNL     1      -0.255  13.710  19.034  0.00  0.00    +0.000 A 
ATOM     23  O   UNL     1      -0.436  14.885  18.726  0.00  0.00    +0.000 OA
ATOM     24  N   UNL     1       0.676  13.253  19.937  0.00  0.00    +0.000 N 
ATOM     25  C   UNL     1       1.646  14.193  20.463  0.00  0.00    +0.000 C 
ATOM     26  C   UNL     1       0.728  11.947  20.418  0.00  0.00    +0.000 A 
ATOM     27  O   UNL     1       1.501  11.631  21.324  0.00  0.00    +0.000 OA
ATOM     28  N   UNL     1      -0.104  11.015  19.775  0.00  0.00    +0.000 N 
BRANCH  20  30
ATOM     29  C   UNL     1      -2.508  11.036  16.822  0.00  0.00    +0.000 C 
ATOM     30  C   UNL     1      -1.505  10.355  17.754  0.00  0.00    +0.000 C 
ENDBRANCH  20  30
ENDBRANCH  19  28
ENDBRANCH   1  19
TORSDOF 5
ENDMDL
MODEL 2
REMARK VINA RESULT:      -9.0      3.005      8.468
REMARK  Name = 
REMARK  7 active torsions:
REMARK  status: ('A' for Active; 'I' for Inactive)
REMARK    1  A    between atoms: C_1  and  C_2
REMARK    2  A    between atoms: C_2  and  C_3
REMARK    3  A    between atoms: N_7  and  C_8
REMARK    4  A    between atoms: N_11  and  C_12
REMARK    5  A    between atoms: C_12  and  C_13
REMARK    6  A    between atoms: C_16  and  C_17
REMARK    7  A    between atoms: C_22  and  C_23
REMARK                            x       y       z     vdW  Elec       q    Type
REMARK                         _______ _______ _______ _____ _____    ______ ____
ROOT
ATOM      1  C   UNL     1       2.673   7.079  19.486  0.00  0.00    +0.000 A 
ATOM      2  C   UNL     1       2.654   7.715  18.241  0.00  0.00    +0.000 A 
ATOM      3  C   UNL     1       1.739   8.750  17.970  0.00  0.00    +0.000 A 
ATOM      4  C   UNL     1       0.860   9.246  18.950  0.00  0.00    +0.000 A 
ATOM      5  C   UNL     1       0.963   8.661  20.225  0.00  0.00    +0.000 A 
ATOM      6  C   UNL     1       1.844   7.597  20.488  0.00  0.00    +0.000 A 
ENDROOT
BRANCH   4   7
ATOM      7  C   UNL     1      -0.177  10.282  18.656  0.00  0.00    +0.000 A 
ATOM      8  C   UNL     1      -1.389   9.858  18.048  0.00  0.00    +0.000 A 
ATOM      9  C   UNL     1      -2.419  10.746  17.702  0.00  0.00    +0.000 A 
ATOM     10  C   UNL     1      -2.252  12.099  17.914  0.00  0.00    +0.000 A 
ATOM     11  C   UNL     1      -1.075  12.562  18.493  0.00  0.00    +0.000 A 
ATOM     12  C   UNL     1      -0.044  11.674  18.900  0.00  0.00    +0.000 A 
BRANCH  12  13
ATOM     13  C   UNL     1       1.083  12.270  19.617  0.00  0.00    +0.000 A 
ATOM     14  N   UNL     1       1.196  12.282  20.987  0.00  0.00    +0.000 NA
ATOM     15  N   UNL     1       2.310  12.936  21.279  0.00  0.00    +0.000 NA
ATOM     16  N   UNL     1       2.790  13.325  20.097  0.00  0.00    +0.000 N 
ATOM     17  N   UNL     1       2.092  12.937  19.021  0.00  0.00    +0.000 NA
ATOM     18  H   UNL     1       3.627  13.893  20.024  0.00  0.00    +0.000 HD
ENDBRANCH  12  13
ENDBRANCH   4   7
BRANCH   1  19
ATOM     19  C   UNL     1       3.408   5.762  19.687  0.00  0.00    +0.000 C 
BRANCH  19  28
ATOM     20  C   UNL     1       3.488   4.450  17.544  0.00  0.00    +0.000 A 
ATOM     21  C   UNL     1       4.182   3.964  16.507  0.00  0.00    +0.000 A 
ATOM     22  C   UNL     1       5.640   4.088  16.458  0.00  0.00    +0.000 A 
ATOM     23  O   UNL     1       6.237   3.664  15.472  0.00  0.00    +0.000 OA
ATOM     24  N   UNL     1       6.226   4.613  17.585  0.00  0.00    +0.000 N 
ATOM     25  C   UNL     1       7.667   4.523  17.718  0.00  0.00    +0.000 C 
ATOM     26  C   UNL     1       5.531   5.268  18.599  0.00  0.00    +0.000 A 
ATOM     27  O   UNL     1       6.126   5.833  19.518  0.00  0.00    +0.000 OA
ATOM     28  N   UNL     1       4.129   5.196  18.537  0.00  0.00    +0.000 N 
BRANCH  20  30
ATOM     29  C   UNL     1       1.912   2.614  18.126  0.00  0.00    +0.000 C 
ATOM     30  C   UNL     1       2.030   4.062  17.649  0.00  0.00    +0.000 C 
ENDBRANCH  20  30
ENDBRANCH  19  28
ENDBRANCH   1  19
TORSDOF 5
ENDMDL
MODEL 3
REMARK VINA RESULT:      -8.9      2.193      3.291
REMARK  Name = 
REMARK  7 active torsions:
REMARK  status: ('A' for Active; 'I' for Inactive)
REMARK    1  A    between atoms: C_1  and  C_2
REMARK    2  A    between atoms: C_2  and  C_3
REMARK    3  A    between atoms: N_7  and  C_8
REMARK    4  A    between atoms: N_11  and  C_12
REMARK    5  A    between atoms: C_12  and  C_13
REMARK    6  A    between atoms: C_16  and  C_17
REMARK    7  A    between atoms: C_22  and  C_23
REMARK                            x       y       z     vdW  Elec       q    Type
REMARK                         _______ _______ _______ _____ _____    ______ ____
ROOT
ATOM      1  C   UNL     1       1.810   9.138  18.640  0.00  0.00    +0.000 A 
ATOM      2  C   UNL     1       1.572   8.768  19.968  0.00  0.00    +0.000 A 
ATOM      3  C   UNL     1       1.742   7.435  20.390  0.00  0.00    +0.000 A 
ATOM      4  C   UNL     1       2.229   6.436  19.529  0.00  0.00    +0.000 A 
ATOM      5  C   UNL     1       2.556   6.849  18.225  0.00  0.00    +0.000 A 
ATOM      6  C   UNL     1       2.346   8.168  17.786  0.00  0.00    +0.000 A 
ENDROOT
BRANCH   4   7
ATOM      7  C   UNL     1       2.332   4.999  19.933  0.00  0.00    +0.000 A 
ATOM      8  C   UNL     1       1.209   4.404  20.567  0.00  0.00    +0.000 A 
ATOM      9  C   UNL     1       1.203   3.073  21.014  0.00  0.00    +0.000 A 
ATOM     10  C   UNL     1       2.341   2.306  20.881  0.00  0.00    +0.000 A 
ATOM     11  C   UNL     1       3.471   2.852  20.280  0.00  0.00    +0.000 A 
ATOM     12  C   UNL     1       3.479   4.178  19.772  0.00  0.00    +0.000 A 
BRANCH  12  13
ATOM     13  C   UNL     1       4.678   4.590  19.045  0.00  0.00    +0.000 A 
ATOM     14  N   UNL     1       4.954   4.214  17.751  0.00  0.00    +0.000 NA
ATOM     15  N   UNL     1       6.131   4.732  17.439  0.00  0.00    +0.000 NA
ATOM     16  N   UNL     1       6.532   5.349  18.552  0.00  0.00    +0.000 N 
ATOM     17  N   UNL     1       5.678   5.317  19.583  0.00  0.00    +0.000 NA
ATOM     18  H   UNL     1       7.438   5.802  18.611  0.00  0.00    +0.000 HD
ENDBRANCH  12  13
ENDBRANCH   4   7
BRANCH   1  19
ATOM     19  C   UNL     1       1.322  10.472  18.095  0.00  0.00    +0.000 C 
BRANCH  19  28
ATOM     20  C   UNL     1      -1.143  10.817  18.453  0.00  0.00    +0.000 A 
ATOM     21  C   UNL     1      -2.148  11.418  19.105  0.00  0.00    +0.000 A 
ATOM     22  C   UNL     1      -1.882  12.490  20.065  0.00  0.00    +0.000 A 
ATOM     23  O   UNL     1      -2.826  12.990  20.670  0.00  0.00    +0.000 OA
ATOM     24  N   UNL     1      -0.571  12.900  20.144  0.00  0.00    +0.000 N 
ATOM     25  C   UNL     1      -0.274  14.121  20.867  0.00  0.00    +0.000 C 
ATOM     26  C   UNL     1       0.504  12.197  19.609  0.00  0.00    +0.000 A 
ATOM     27  O   UNL     1       1.666  12.547  19.827  0.00  0.00    +0.000 OA
ATOM     28  N   UNL     1       0.185  11.116  18.771  0.00  0.00    +0.000 N 
BRANCH  20  30
ATOM     29  C   UNL     1      -3.025   9.864  17.134  0.00  0.00    +0.000 C 
ATOM     30  C   UNL     1      -1.506   9.907  17.301  0.00  0.00    +0.000 C 
ENDBRANCH  20  30
ENDBRANCH  19  28
ENDBRANCH   1  19
TORSDOF 5
ENDMDL
MODEL 4
REMARK VINA RESULT:      -8.8      3.106      8.661
REMARK  Name = 
REMARK  7 active torsions:
REMARK  status: ('A' for Active; 'I' for Inactive)
REMARK    1  A    between atoms: C_1  and  C_2
REMARK    2  A    between atoms: C_2  and  C_3
REMARK    3  A    between atoms: N_7  and  C_8
REMARK    4  A    between atoms: N_11  and  C_12
REMARK    5  A    between atoms: C_12  and  C_13
REMARK    6  A    between atoms: C_16  and  C_17
REMARK    7  A    between atoms: C_22  and  C_23
REMARK                            x       y       z     vdW  Elec       q    Type
REMARK                         _______ _______ _______ _____ _____    ______ ____
ROOT
ATOM      1  C   UNL     1       2.422   7.855  18.358  0.00  0.00    +0.000 A 
ATOM      2  C   UNL     1       2.083   9.091  17.798  0.00  0.00    +0.000 A 
ATOM      3  C   UNL     1       1.251   9.994  18.487  0.00  0.00    +0.000 A 
ATOM      4  C   UNL     1       0.787   9.739  19.789  0.00  0.00    +0.000 A 
ATOM      5  C   UNL     1       1.219   8.535  20.374  0.00  0.00    +0.000 A 
ATOM      6  C   UNL     1       2.013   7.609  19.674  0.00  0.00    +0.000 A 
ENDROOT
BRANCH   4   7
ATOM      7  C   UNL     1      -0.167  10.645  20.501  0.00  0.00    +0.000 A 
ATOM      8  C   UNL     1       0.091  10.943  21.866  0.00  0.00    +0.000 A 
ATOM      9  C   UNL     1      -0.751  11.757  22.639  0.00  0.00    +0.000 A 
ATOM     10  C   UNL     1      -1.906  12.267  22.082  0.00  0.00    +0.000 A 
ATOM     11  C   UNL     1      -2.206  11.989  20.752  0.00  0.00    +0.000 A 
ATOM     12  C   UNL     1      -1.340  11.212  19.938  0.00  0.00    +0.000 A 
BRANCH  12  13
ATOM     13  C   UNL     1      -1.698  11.103  18.525  0.00  0.00    +0.000 A 
ATOM     14  N   UNL     1      -2.174   9.952  17.944  0.00  0.00    +0.000 NA
ATOM     15  N   UNL     1      -2.348  10.209  16.656  0.00  0.00    +0.000 NA
ATOM     16  N   UNL     1      -1.933  11.469  16.508  0.00  0.00    +0.000 N 
ATOM     17  N   UNL     1      -1.531  12.092  17.623  0.00  0.00    +0.000 NA
ATOM     18  H   UNL     1      -1.913  11.917  15.598  0.00  0.00    +0.000 HD
ENDBRANCH  12  13
ENDBRANCH   4   7
BRANCH   1  19
ATOM     19  C   UNL     1       3.030   6.747  17.512  0.00  0.00    +0.000 C 
BRANCH  19  28
ATOM     20  C   UNL     1       4.929   5.432  18.503  0.00  0.00    +0.000 A 
ATOM     21  C   UNL     1       5.376   4.348  19.151  0.00  0.00    +0.000 A 
ATOM     22  C   UNL     1       4.480   3.228  19.443  0.00  0.00    +0.000 A 
ATOM     23  O   UNL     1       4.917   2.268  20.073  0.00  0.00    +0.000 OA
ATOM     24  N   UNL     1       3.218   3.326  18.905  0.00  0.00    +0.000 N 
ATOM     25  C   UNL     1       2.368   2.152  18.925  0.00  0.00    +0.000 C 
ATOM     26  C   UNL     1       2.680   4.495  18.374  0.00  0.00    +0.000 A 
ATOM     27  O   UNL     1       1.498   4.553  18.027  0.00  0.00    +0.000 OA
ATOM     28  N   UNL     1       3.571   5.569  18.207  0.00  0.00    +0.000 N 
BRANCH  20  30
ATOM     29  C   UNL     1       7.351   6.005  18.492  0.00  0.00    +0.000 C 
ATOM     30  C   UNL     1       5.960   6.425  18.014  0.00  0.00    +0.000 C 
ENDBRANCH  20  30
ENDBRANCH  19  28
ENDBRANCH   1  19
TORSDOF 5
ENDMDL
MODEL 5
REMARK VINA RESULT:      -8.8      3.080      8.077
REMARK  Name = 
REMARK  7 active torsions:
REMARK  status: ('A' for Active; 'I' for Inactive)
REMARK    1  A    between atoms: C_1  and  C_2
REMARK    2  A    between atoms: C_2  and  C_3
REMARK    3  A    between atoms: N_7  and  C_8
REMARK    4  A    between atoms: N_11  and  C_12
REMARK    5  A    between atoms: C_12  and  C_13
REMARK    6  A    between atoms: C_16  and  C_17
REMARK    7  A    between atoms: C_22  and  C_23
REMARK                            x       y       z     vdW  Elec       q    Type
REMARK                         _______ _______ _______ _____ _____    ______ ____
ROOT
ATOM      1  C   UNL     1       2.279   7.103  19.384  0.00  0.00    +0.000 A 
ATOM      2  C   UNL     1       1.604   7.774  20.409  0.00  0.00    +0.000 A 
ATOM      3  C   UNL     1       1.133   9.087  20.227  0.00  0.00    +0.000 A 
ATOM      4  C   UNL     1       1.245   9.757  18.996  0.00  0.00    +0.000 A 
ATOM      5  C   UNL     1       1.838   9.031  17.948  0.00  0.00    +0.000 A 
ATOM      6  C   UNL     1       2.351   7.735  18.137  0.00  0.00    +0.000 A 
ENDROOT
BRANCH   4   7
ATOM      7  C   UNL     1       0.830  11.183  18.810  0.00  0.00    +0.000 A 
ATOM      8  C   UNL     1       1.776  12.197  19.118  0.00  0.00    +0.000 A 
ATOM      9  C   UNL     1       1.486  13.566  19.009  0.00  0.00    +0.000 A 
ATOM     10  C   UNL     1       0.223  13.967  18.628  0.00  0.00    +0.000 A 
ATOM     11  C   UNL     1      -0.740  13.008  18.330  0.00  0.00    +0.000 A 
ATOM     12  C   UNL     1      -0.451  11.619  18.382  0.00  0.00    +0.000 A 
BRANCH  12  13
ATOM     13  C   UNL     1      -1.504  10.717  17.919  0.00  0.00    +0.000 A 
ATOM     14  N   UNL     1      -1.832  10.542  16.595  0.00  0.00    +0.000 NA
ATOM     15  N   UNL     1      -2.848   9.694  16.555  0.00  0.00    +0.000 NA
ATOM     16  N   UNL     1      -3.117   9.432  17.835  0.00  0.00    +0.000 N 
ATOM     17  N   UNL     1      -2.317  10.018  18.736  0.00  0.00    +0.000 NA
ATOM     18  H   UNL     1      -3.892   8.835  18.104  0.00  0.00    +0.000 HD
ENDBRANCH  12  13
ENDBRANCH   4   7
BRANCH   1  19
ATOM     19  C   UNL     1       3.075   5.836  19.662  0.00  0.00    +0.000 C 
BRANCH  19  28
ATOM     20  C   UNL     1       3.196   4.446  17.571  0.00  0.00    +0.000 A 
ATOM     21  C   UNL     1       3.910   3.927  16.563  0.00  0.00    +0.000 A 
ATOM     22  C   UNL     1       5.367   4.059  16.531  0.00  0.00    +0.000 A 
ATOM     23  O   UNL     1       5.982   3.604  15.570  0.00  0.00    +0.000 OA
ATOM     24  N   UNL     1       5.933   4.631  17.647  0.00  0.00    +0.000 N 
ATOM     25  C   UNL     1       7.372   4.557  17.804  0.00  0.00    +0.000 C 
ATOM     26  C   UNL     1       5.217   5.318  18.624  0.00  0.00    +0.000 A 
ATOM     27  O   UNL     1       5.795   5.921  19.531  0.00  0.00    +0.000 OA
ATOM     28  N   UNL     1       3.817   5.232  18.545  0.00  0.00    +0.000 N 
BRANCH  20  30
ATOM     29  C   UNL     1       1.616   2.692  18.358  0.00  0.00    +0.000 C 
ATOM     30  C   UNL     1       1.740   4.051  17.668  0.00  0.00    +0.000 C 
ENDBRANCH  20  30
ENDBRANCH  19  28
ENDBRANCH   1  19
TORSDOF 5
ENDMDL
MODEL 6
REMARK VINA RESULT:      -8.7      0.498      1.234
REMARK  Name = 
REMARK  7 active torsions:
REMARK  status: ('A' for Active; 'I' for Inactive)
REMARK    1  A    between atoms: C_1  and  C_2
REMARK    2  A    between atoms: C_2  and  C_3
REMARK    3  A    between atoms: N_7  and  C_8
REMARK    4  A    between atoms: N_11  and  C_12
REMARK    5  A    between atoms: C_12  and  C_13
REMARK    6  A    between atoms: C_16  and  C_17
REMARK    7  A    between atoms: C_22  and  C_23
REMARK                            x       y       z     vdW  Elec       q    Type
REMARK                         _______ _______ _______ _____ _____    ______ ____
ROOT
ATOM      1  C   UNL     1       1.144   8.907  19.846  0.00  0.00    +0.000 A 
ATOM      2  C   UNL     1       1.453   9.149  18.504  0.00  0.00    +0.000 A 
ATOM      3  C   UNL     1       2.327   8.301  17.797  0.00  0.00    +0.000 A 
ATOM      4  C   UNL     1       2.867   7.137  18.373  0.00  0.00    +0.000 A 
ATOM      5  C   UNL     1       2.466   6.857  19.692  0.00  0.00    +0.000 A 
ATOM      6  C   UNL     1       1.629   7.724  20.417  0.00  0.00    +0.000 A 
ENDROOT
BRANCH   4   7
ATOM      7  C   UNL     1       3.865   6.274  17.669  0.00  0.00    +0.000 A 
ATOM      8  C   UNL     1       5.027   6.896  17.141  0.00  0.00    +0.000 A 
ATOM      9  C   UNL     1       6.016   6.189  16.437  0.00  0.00    +0.000 A 
ATOM     10  C   UNL     1       5.850   4.841  16.200  0.00  0.00    +0.000 A 
ATOM     11  C   UNL     1       4.719   4.193  16.685  0.00  0.00    +0.000 A 
ATOM     12  C   UNL     1       3.735   4.878  17.446  0.00  0.00    +0.000 A 
BRANCH  12  13
ATOM     13  C   UNL     1       2.664   4.060  18.013  0.00  0.00    +0.000 A 
ATOM     14  N   UNL     1       1.402   3.974  17.473  0.00  0.00    +0.000 NA
ATOM     15  N   UNL     1       0.693   3.186  18.267  0.00  0.00    +0.000 NA
ATOM     16  N   UNL     1       1.529   2.872  19.259  0.00  0.00    +0.000 N 
ATOM     17  N   UNL     1       2.770   3.364  19.163  0.00  0.00    +0.000 NA
ATOM     18  H   UNL     1       1.229   2.304  20.045  0.00  0.00    +0.000 HD
ENDBRANCH  12  13
ENDBRANCH   4   7
BRANCH   1  19
ATOM     19  C   UNL     1       0.482   9.972  20.707  0.00  0.00    +0.000 C 
BRANCH  19  28
ATOM     20  C   UNL     1      -0.852  11.471  19.193  0.00  0.00    +0.000 A 
ATOM     21  C   UNL     1      -1.080  12.681  18.664  0.00  0.00    +0.000 A 
ATOM     22  C   UNL     1      -0.157  13.790  18.909  0.00  0.00    +0.000 A 
ATOM     23  O   UNL     1      -0.419  14.894  18.439  0.00  0.00    +0.000 OA
ATOM     24  N   UNL     1       0.989  13.464  19.597  0.00  0.00    +0.000 N 
ATOM     25  C   UNL     1       2.063  14.436  19.647  0.00  0.00    +0.000 C 
ATOM     26  C   UNL     1       1.175  12.270  20.289  0.00  0.00    +0.000 A 
ATOM     27  O   UNL     1       2.170  12.092  20.996  0.00  0.00    +0.000 OA
ATOM     28  N   UNL     1       0.202  11.277  20.089  0.00  0.00    +0.000 N 
BRANCH  20  30
ATOM     29  C   UNL     1      -1.854  10.417  17.173  0.00  0.00    +0.000 C 
ATOM     30  C   UNL     1      -1.700  10.323  18.692  0.00  0.00    +0.000 C 
ENDBRANCH  20  30
ENDBRANCH  19  28
ENDBRANCH   1  19
TORSDOF 5
ENDMDL
MODEL 7
REMARK VINA RESULT:      -8.6      3.029      8.897
REMARK  Name = 
REMARK  7 active torsions:
REMARK  status: ('A' for Active; 'I' for Inactive)
REMARK    1  A    between atoms: C_1  and  C_2
REMARK    2  A    between atoms: C_2  and  C_3
REMARK    3  A    between atoms: N_7  and  C_8
REMARK    4  A    between atoms: N_11  and  C_12
REMARK    5  A    between atoms: C_12  and  C_13
REMARK    6  A    between atoms: C_16  and  C_17
REMARK    7  A    between atoms: C_22  and  C_23
REMARK                            x       y       z     vdW  Elec       q    Type
REMARK                         _______ _______ _______ _____ _____    ______ ____
ROOT
ATOM      1  C   UNL     1       2.265   7.724  18.589  0.00  0.00    +0.000 A 
ATOM      2  C   UNL     1       1.661   8.878  18.078  0.00  0.00    +0.000 A 
ATOM      3  C   UNL     1       0.883   9.714  18.901  0.00  0.00    +0.000 A 
ATOM      4  C   UNL     1       0.738   9.479  20.280  0.00  0.00    +0.000 A 
ATOM      5  C   UNL     1       1.433   8.370  20.795  0.00  0.00    +0.000 A 
ATOM      6  C   UNL     1       2.175   7.506  19.969  0.00  0.00    +0.000 A 
ENDROOT
BRANCH   4   7
ATOM      7  C   UNL     1      -0.154  10.305  21.151  0.00  0.00    +0.000 A 
ATOM      8  C   UNL     1      -0.389   9.855  22.478  0.00  0.00    +0.000 A 
ATOM      9  C   UNL     1      -1.231  10.534  23.374  0.00  0.00    +0.000 A 
ATOM     10  C   UNL     1      -1.901  11.664  22.956  0.00  0.00    +0.000 A 
ATOM     11  C   UNL     1      -1.713  12.133  21.659  0.00  0.00    +0.000 A 
ATOM     12  C   UNL     1      -0.824  11.492  20.756  0.00  0.00    +0.000 A 
BRANCH  12  13
ATOM     13  C   UNL     1      -0.611  12.156  19.471  0.00  0.00    +0.000 A 
ATOM     14  N   UNL     1       0.447  12.994  19.210  0.00  0.00    +0.000 NA
ATOM     15  N   UNL     1       0.293  13.441  17.973  0.00  0.00    +0.000 NA
ATOM     16  N   UNL     1      -0.855  12.900  17.562  0.00  0.00    +0.000 N 
ATOM     17  N   UNL     1      -1.464  12.081  18.429  0.00  0.00    +0.000 NA
ATOM     18  H   UNL     1      -1.245  13.112  16.650  0.00  0.00    +0.000 HD
ENDBRANCH  12  13
ENDBRANCH   4   7
BRANCH   1  19
ATOM     19  C   UNL     1       2.819   6.650  17.666  0.00  0.00    +0.000 C 
BRANCH  19  28
ATOM     20  C   UNL     1       4.796   5.327  18.479  0.00  0.00    +0.000 A 
ATOM     21  C   UNL     1       5.297   4.227  19.057  0.00  0.00    +0.000 A 
ATOM     22  C   UNL     1       4.434   3.088  19.373  0.00  0.00    +0.000 A 
ATOM     23  O   UNL     1       4.924   2.113  19.938  0.00  0.00    +0.000 OA
ATOM     24  N   UNL     1       3.137   3.188  18.927  0.00  0.00    +0.000 N 
ATOM     25  C   UNL     1       2.302   2.004  18.966  0.00  0.00    +0.000 C 
ATOM     26  C   UNL     1       2.552   4.367  18.473  0.00  0.00    +0.000 A 
ATOM     27  O   UNL     1       1.349   4.422  18.212  0.00  0.00    +0.000 OA
ATOM     28  N   UNL     1       3.418   5.457  18.282  0.00  0.00    +0.000 N 
BRANCH  20  30
ATOM     29  C   UNL     1       7.210   5.860  18.195  0.00  0.00    +0.000 C 
ATOM     30  C   UNL     1       5.781   6.347  17.954  0.00  0.00    +0.000 C 
ENDBRANCH  20  30
ENDBRANCH  19  28
ENDBRANCH   1  19
TORSDOF 5
ENDMDL
MODEL 8
REMARK VINA RESULT:      -8.5      2.502      3.298
REMARK  Name = 
REMARK  7 active torsions:
REMARK  status: ('A' for Active; 'I' for Inactive)
REMARK    1  A    between atoms: C_1  and  C_2
REMARK    2  A    between atoms: C_2  and  C_3
REMARK    3  A    between atoms: N_7  and  C_8
REMARK    4  A    between atoms: N_11  and  C_12
REMARK    5  A    between atoms: C_12  and  C_13
REMARK    6  A    between atoms: C_16  and  C_17
REMARK    7  A    between atoms: C_22  and  C_23
REMARK                            x       y       z     vdW  Elec       q    Type
REMARK                         _______ _______ _______ _____ _____    ______ ____
ROOT
ATOM      1  C   UNL     1       1.441   9.377  18.927  0.00  0.00    +0.000 A 
ATOM      2  C   UNL     1       1.835   8.663  17.791  0.00  0.00    +0.000 A 
ATOM      3  C   UNL     1       2.354   7.359  17.898  0.00  0.00    +0.000 A 
ATOM      4  C   UNL     1       2.429   6.684  19.129  0.00  0.00    +0.000 A 
ATOM      5  C   UNL     1       1.936   7.380  20.247  0.00  0.00    +0.000 A 
ATOM      6  C   UNL     1       1.458   8.700  20.152  0.00  0.00    +0.000 A 
ENDROOT
BRANCH   4   7
ATOM      7  C   UNL     1       3.057   5.334  19.274  0.00  0.00    +0.000 A 
ATOM      8  C   UNL     1       2.430   4.398  20.139  0.00  0.00    +0.000 A 
ATOM      9  C   UNL     1       2.946   3.113  20.373  0.00  0.00    +0.000 A 
ATOM     10  C   UNL     1       4.135   2.739  19.782  0.00  0.00    +0.000 A 
ATOM     11  C   UNL     1       4.793   3.630  18.940  0.00  0.00    +0.000 A 
ATOM     12  C   UNL     1       4.259   4.913  18.647  0.00  0.00    +0.000 A 
BRANCH  12  13
ATOM     13  C   UNL     1       4.973   5.702  17.645  0.00  0.00    +0.000 A 
ATOM     14  N   UNL     1       4.832   5.524  16.289  0.00  0.00    +0.000 NA
ATOM     15  N   UNL     1       5.655   6.375  15.697  0.00  0.00    +0.000 NA
ATOM     16  N   UNL     1       6.282   6.989  16.703  0.00  0.00    +0.000 N 
ATOM     17  N   UNL     1       5.902   6.635  17.937  0.00  0.00    +0.000 NA
ATOM     18  H   UNL     1       7.013   7.672  16.535  0.00  0.00    +0.000 HD
ENDBRANCH  12  13
ENDBRANCH   4   7
BRANCH   1  19
ATOM     19  C   UNL     1       1.197  10.877  18.870  0.00  0.00    +0.000 C 
BRANCH  19  28
ATOM     20  C   UNL     1      -1.262  11.376  19.023  0.00  0.00    +0.000 A 
ATOM     21  C   UNL     1      -2.308  11.860  19.706  0.00  0.00    +0.000 A 
ATOM     22  C   UNL     1      -2.112  12.551  20.982  0.00  0.00    +0.000 A 
ATOM     23  O   UNL     1      -3.098  12.947  21.598  0.00  0.00    +0.000 OA
ATOM     24  N   UNL     1      -0.802  12.764  21.344  0.00  0.00    +0.000 N 
ATOM     25  C   UNL     1      -0.530  13.664  22.447  0.00  0.00    +0.000 C 
ATOM     26  C   UNL     1       0.288  12.140  20.745  0.00  0.00    +0.000 A 
ATOM     27  O   UNL     1       1.427  12.271  21.200  0.00  0.00    +0.000 OA
ATOM     28  N   UNL     1       0.021  11.410  19.575  0.00  0.00    +0.000 N 
BRANCH  20  30
ATOM     29  C   UNL     1      -2.635   9.869  17.595  0.00  0.00    +0.000 C 
ATOM     30  C   UNL     1      -1.513  10.909  17.606  0.00  0.00    +0.000 C 
ENDBRANCH  20  30
ENDBRANCH  19  28
ENDBRANCH   1  19
TORSDOF 5
ENDMDL
MODEL 9
REMARK VINA RESULT:      -8.4      3.107      8.981
REMARK  Name = 
REMARK  7 active torsions:
REMARK  status: ('A' for Active; 'I' for Inactive)
REMARK    1  A    between atoms: C_1  and  C_2
REMARK    2  A    between atoms: C_2  and  C_3
REMARK    3  A    between atoms: N_7  and  C_8
REMARK    4  A    between atoms: N_11  and  C_12
REMARK    5  A    between atoms: C_12  and  C_13
REMARK    6  A    between atoms: C_16  and  C_17
REMARK    7  A    between atoms: C_22  and  C_23
REMARK                            x       y       z     vdW  Elec       q    Type
REMARK                         _______ _______ _______ _____ _____    ______ ____
ROOT
ATOM      1  C   UNL     1       2.276   7.581  18.696  0.00  0.00    +0.000 A 
ATOM      2  C   UNL     1       1.834   8.796  18.163  0.00  0.00    +0.000 A 
ATOM      3  C   UNL     1       1.183   9.748  18.971  0.00  0.00    +0.000 A 
ATOM      4  C   UNL     1       1.015   9.562  20.355  0.00  0.00    +0.000 A 
ATOM      5  C   UNL     1       1.554   8.379  20.890  0.00  0.00    +0.000 A 
ATOM      6  C   UNL     1       2.165   7.405  20.080  0.00  0.00    +0.000 A 
ENDROOT
BRANCH   4   7
ATOM      7  C   UNL     1       0.249  10.520  21.212  0.00  0.00    +0.000 A 
ATOM      8  C   UNL     1      -0.509   9.989  22.289  0.00  0.00    +0.000 A 
ATOM      9  C   UNL     1      -1.288  10.790  23.140  0.00  0.00    +0.000 A 
ATOM     10  C   UNL     1      -1.367  12.148  22.913  0.00  0.00    +0.000 A 
ATOM     11  C   UNL     1      -0.652  12.710  21.860  0.00  0.00    +0.000 A 
ATOM     12  C   UNL     1       0.184  11.925  21.022  0.00  0.00    +0.000 A 
BRANCH  12  13
ATOM     13  C   UNL     1       0.985  12.651  20.038  0.00  0.00    +0.000 A 
ATOM     14  N   UNL     1       2.302  12.996  20.229  0.00  0.00    +0.000 NA
ATOM     15  N   UNL     1       2.686  13.674  19.159  0.00  0.00    +0.000 NA
ATOM     16  N   UNL     1       1.591  13.749  18.400  0.00  0.00    +0.000 N 
ATOM     17  N   UNL     1       0.503  13.127  18.872  0.00  0.00    +0.000 NA
ATOM     18  H   UNL     1       1.586  14.263  17.525  0.00  0.00    +0.000 HD
ENDBRANCH  12  13
ENDBRANCH   4   7
BRANCH   1  19
ATOM     19  C   UNL     1       2.672   6.423  17.793  0.00  0.00    +0.000 C 
BRANCH  19  28
ATOM     20  C   UNL     1       4.702   5.149  18.554  0.00  0.00    +0.000 A 
ATOM     21  C   UNL     1       5.244   4.073  19.140  0.00  0.00    +0.000 A 
ATOM     22  C   UNL     1       4.412   2.932  19.527  0.00  0.00    +0.000 A 
ATOM     23  O   UNL     1       4.940   1.981  20.097  0.00  0.00    +0.000 OA
ATOM     24  N   UNL     1       3.095   3.003  19.137  0.00  0.00    +0.000 N 
ATOM     25  C   UNL     1       2.279   1.810  19.248  0.00  0.00    +0.000 C 
ATOM     26  C   UNL     1       2.474   4.161  18.677  0.00  0.00    +0.000 A 
ATOM     27  O   UNL     1       1.259   4.193  18.468  0.00  0.00    +0.000 OA
ATOM     28  N   UNL     1       3.315   5.255  18.416  0.00  0.00    +0.000 N 
BRANCH  20  30
ATOM     29  C   UNL     1       7.080   5.867  18.401  0.00  0.00    +0.000 C 
ATOM     30  C   UNL     1       5.648   6.166  17.956  0.00  0.00    +0.000 C 
ENDBRANCH  20  30
ENDBRANCH  19  28
ENDBRANCH   1  19
TORSDOF 5
ENDMDL
