MODEL 1
REMARK VINA RESULT:      -8.6      0.000      0.000
REMARK  Name = 
REMARK  5 active torsions:
REMARK  status: ('A' for Active; 'I' for Inactive)
REMARK    1  A    between atoms: C_1  and  C_2
REMARK    2  A    between atoms: C_6  and  C_7
REMARK    3  A    between atoms: C_9  and  C_10
REMARK    4  A    between atoms: C_10  and  N_11
REMARK    5  A    between atoms: C_15  and  C_17
REMARK                            x       y       z     vdW  Elec       q    Type
REMARK                         _______ _______ _______ _____ _____    ______ ____
ROOT
ATOM      1  C   UNL     1       6.820   6.554  16.490  0.00  0.00    +0.000 C 
ENDROOT
BRANCH   1   2
ATOM      2  N   UNL     1       7.083   5.105  16.511  0.00  0.00    +0.000 NA
ATOM      3  C   UNL     1       6.921   4.501  17.851  0.00  0.00    +0.000 C 
ATOM      4  C   UNL     1       5.477   4.381  18.384  0.00  0.00    +0.000 C 
ATOM      5  N   UNL     1       4.518   3.860  17.408  0.00  0.00    +0.000 N 
ATOM      6  C   UNL     1       3.238   3.415  17.772  0.00  0.00    +0.000 C 
ATOM      7  O   UNL     1       2.403   3.111  16.915  0.00  0.00    +0.000 OA
ATOM      8  C   UNL     1       4.689   4.324  16.029  0.00  0.00    +0.000 C 
ATOM      9  C   UNL     1       6.164   4.401  15.583  0.00  0.00    +0.000 C 
BRANCH   6  10
ATOM     10  C   UNL     1       2.922   3.284  19.285  0.00  0.00    +0.000 C 
ATOM     11  C   UNL     1       1.847   2.250  19.602  0.00  0.00    +0.000 C 
ATOM     12  C   UNL     1       1.116   2.838  20.783  0.00  0.00    +0.000 C 
ATOM     13  C   UNL     1       1.271   4.325  20.583  0.00  0.00    +0.000 C 
ATOM     14  O   UNL     1       2.473   4.532  19.839  0.00  0.00    +0.000 OA
ENDBRANCH   6  10
ENDBRANCH   1   2
BRANCH   1  17
ATOM     15  C   UNL     1       8.529   8.996  18.418  0.00  0.00    +0.000 A 
ATOM     16  N   UNL     1       7.737   8.667  17.419  0.00  0.00    +0.000 NA
ATOM     17  C   UNL     1       7.534   7.313  17.566  0.00  0.00    +0.000 A 
ATOM     18  C   UNL     1       8.178   6.889  18.707  0.00  0.00    +0.000 A 
ATOM     19  O   UNL     1       8.820   7.959  19.267  0.00  0.00    +0.000 OA
BRANCH  15  25
ATOM     20  C   UNL     1       9.744  12.533  21.668  0.00  0.00    +0.000 C 
ATOM     21  C   UNL     1       9.779  12.034  20.254  0.00  0.00    +0.000 A 
ATOM     22  C   UNL     1      10.286  12.813  19.212  0.00  0.00    +0.000 A 
ATOM     23  C   UNL     1      10.269  12.330  17.900  0.00  0.00    +0.000 A 
ATOM     24  C   UNL     1       9.726  11.071  17.616  0.00  0.00    +0.000 A 
ATOM     25  C   UNL     1       9.195  10.281  18.642  0.00  0.00    +0.000 A 
ATOM     26  C   UNL     1       9.244  10.775  19.958  0.00  0.00    +0.000 A 
ENDBRANCH  15  25
ENDBRANCH   1  17
TORSDOF 4
ENDMDL
MODEL 2
REMARK VINA RESULT:      -8.6      4.763      6.907
REMARK  Name = 
REMARK  5 active torsions:
REMARK  status: ('A' for Active; 'I' for Inactive)
REMARK    1  A    between atoms: C_1  and  C_2
REMARK    2  A    between atoms: C_6  and  C_7
REMARK    3  A    between atoms: C_9  and  C_10
REMARK    4  A    between atoms: C_10  and  N_11
REMARK    5  A    between atoms: C_15  and  C_17
REMARK                            x       y       z     vdW  Elec       q    Type
REMARK                         _______ _______ _______ _____ _____    ______ ____
ROOT
ATOM      1  C   UNL     1       5.225   4.833  19.019  0.00  0.00    +0.000 C 
ENDROOT
BRANCH   1   2
ATOM      2  N   UNL     1       3.848   4.549  18.577  0.00  0.00    +0.000 NA
ATOM      3  C   UNL     1       2.885   4.451  19.696  0.00  0.00    +0.000 C 
ATOM      4  C   UNL     1       2.525   5.770  20.414  0.00  0.00    +0.000 C 
ATOM      5  N   UNL     1       2.234   6.885  19.510  0.00  0.00    +0.000 N 
ATOM      6  C   UNL     1       1.621   8.069  19.947  0.00  0.00    +0.000 C 
ATOM      7  O   UNL     1       1.513   9.043  19.198  0.00  0.00    +0.000 OA
ATOM      8  C   UNL     1       3.075   6.979  18.315  0.00  0.00    +0.000 C 
ATOM      9  C   UNL     1       3.371   5.614  17.661  0.00  0.00    +0.000 C 
BRANCH   6  10
ATOM     10  C   UNL     1       1.052   8.098  21.391  0.00  0.00    +0.000 C 
ATOM     11  C   UNL     1      -0.454   8.327  21.454  0.00  0.00    +0.000 C 
ATOM     12  C   UNL     1      -0.644   9.142  22.708  0.00  0.00    +0.000 C 
ATOM     13  C   UNL     1       0.651   9.907  22.824  0.00  0.00    +0.000 C 
ATOM     14  O   UNL     1       1.662   9.134  22.177  0.00  0.00    +0.000 OA
ENDBRANCH   6  10
ENDBRANCH   1   2
BRANCH   1  17
ATOM     15  C   UNL     1       6.869   4.802  15.873  0.00  0.00    +0.000 A 
ATOM     16  N   UNL     1       5.805   5.037  16.613  0.00  0.00    +0.000 NA
ATOM     17  C   UNL     1       6.228   4.831  17.907  0.00  0.00    +0.000 A 
ATOM     18  C   UNL     1       7.573   4.533  17.892  0.00  0.00    +0.000 A 
ATOM     19  O   UNL     1       7.999   4.512  16.593  0.00  0.00    +0.000 OA
BRANCH  15  25
ATOM     20  C   UNL     1       5.366   2.440  11.784  0.00  0.00    +0.000 C 
ATOM     21  C   UNL     1       6.200   3.527  12.395  0.00  0.00    +0.000 A 
ATOM     22  C   UNL     1       7.081   4.295  11.632  0.00  0.00    +0.000 A 
ATOM     23  C   UNL     1       7.870   5.275  12.241  0.00  0.00    +0.000 A 
ATOM     24  C   UNL     1       7.798   5.482  13.625  0.00  0.00    +0.000 A 
ATOM     25  C   UNL     1       6.936   4.711  14.413  0.00  0.00    +0.000 A 
ATOM     26  C   UNL     1       6.134   3.747  13.777  0.00  0.00    +0.000 A 
ENDBRANCH  15  25
ENDBRANCH   1  17
TORSDOF 4
ENDMDL
MODEL 3
REMARK VINA RESULT:      -8.5      1.384      1.643
REMARK  Name = 
REMARK  5 active torsions:
REMARK  status: ('A' for Active; 'I' for Inactive)
REMARK    1  A    between atoms: C_1  and  C_2
REMARK    2  A    between atoms: C_6  and  C_7
REMARK    3  A    between atoms: C_9  and  C_10
REMARK    4  A    between atoms: C_10  and  N_11
REMARK    5  A    between atoms: C_15  and  C_17
REMARK                            x       y       z     vdW  Elec       q    Type
REMARK                         _______ _______ _______ _____ _____    ______ ____
ROOT
ATOM      1  C   UNL     1       7.194   7.180  17.066  0.00  0.00    +0.000 C 
ENDROOT
BRANCH   1   2
ATOM      2  N   UNL     1       7.561   5.802  17.436  0.00  0.00    +0.000 NA
ATOM      3  C   UNL     1       7.161   5.442  18.814  0.00  0.00    +0.000 C 
ATOM      4  C   UNL     1       5.650   5.249  19.066  0.00  0.00    +0.000 C 
ATOM      5  N   UNL     1       4.970   4.445  18.049  0.00  0.00    +0.000 N 
ATOM      6  C   UNL     1       3.681   3.924  18.238  0.00  0.00    +0.000 C 
ATOM      7  O   UNL     1       3.078   3.368  17.316  0.00  0.00    +0.000 OA
ATOM      8  C   UNL     1       5.397   4.663  16.665  0.00  0.00    +0.000 C 
ATOM      9  C   UNL     1       6.923   4.833  16.511  0.00  0.00    +0.000 C 
BRANCH   6  10
ATOM     10  C   UNL     1       3.056   4.038  19.654  0.00  0.00    +0.000 C 
ATOM     11  C   UNL     1       2.970   2.709  20.398  0.00  0.00    +0.000 C 
ATOM     12  C   UNL     1       1.697   2.824  21.198  0.00  0.00    +0.000 C 
ATOM     13  C   UNL     1       0.842   3.741  20.361  0.00  0.00    +0.000 C 
ATOM     14  O   UNL     1       1.723   4.569  19.600  0.00  0.00    +0.000 OA
ENDBRANCH   6  10
ENDBRANCH   1   2
BRANCH   1  17
ATOM     15  C   UNL     1       8.840  10.123  18.175  0.00  0.00    +0.000 A 
ATOM     16  N   UNL     1       8.021   9.504  17.350  0.00  0.00    +0.000 NA
ATOM     17  C   UNL     1       7.912   8.230  17.857  0.00  0.00    +0.000 A 
ATOM     18  C   UNL     1       8.639   8.153  19.025  0.00  0.00    +0.000 A 
ATOM     19  O   UNL     1       9.239   9.363  19.243  0.00  0.00    +0.000 OA
BRANCH  15  25
ATOM     20  C   UNL     1       8.085  15.017  18.007  0.00  0.00    +0.000 C 
ATOM     21  C   UNL     1       9.049  13.872  17.915  0.00  0.00    +0.000 A 
ATOM     22  C   UNL     1      10.385  14.063  17.558  0.00  0.00    +0.000 A 
ATOM     23  C   UNL     1      11.247  12.968  17.446  0.00  0.00    +0.000 A 
ATOM     24  C   UNL     1      10.774  11.669  17.671  0.00  0.00    +0.000 A 
ATOM     25  C   UNL     1       9.434  11.452  18.012  0.00  0.00    +0.000 A 
ATOM     26  C   UNL     1       8.589  12.569  18.143  0.00  0.00    +0.000 A 
ENDBRANCH  15  25
ENDBRANCH   1  17
TORSDOF 4
ENDMDL
MODEL 4
REMARK VINA RESULT:      -8.1      1.117      1.261
REMARK  Name = 
REMARK  5 active torsions:
REMARK  status: ('A' for Active; 'I' for Inactive)
REMARK    1  A    between atoms: C_1  and  C_2
REMARK    2  A    between atoms: C_6  and  C_7
REMARK    3  A    between atoms: C_9  and  C_10
REMARK    4  A    between atoms: C_10  and  N_11
REMARK    5  A    between atoms: C_15  and  C_17
REMARK                            x       y       z     vdW  Elec       q    Type
REMARK                         _______ _______ _______ _____ _____    ______ ____
ROOT
ATOM      1  C   UNL     1       6.592   6.220  16.683  0.00  0.00    +0.000 C 
ENDROOT
BRANCH   1   2
ATOM      2  N   UNL     1       6.637   4.808  17.101  0.00  0.00    +0.000 NA
ATOM      3  C   UNL     1       6.180   4.596  18.491  0.00  0.00    +0.000 C 
ATOM      4  C   UNL     1       4.669   4.763  18.754  0.00  0.00    +0.000 C 
ATOM      5  N   UNL     1       3.810   4.103  17.768  0.00  0.00    +0.000 N 
ATOM      6  C   UNL     1       2.438   3.899  17.979  0.00  0.00    +0.000 C 
ATOM      7  O   UNL     1       1.714   3.466  17.079  0.00  0.00    +0.000 OA
ATOM      8  C   UNL     1       4.262   4.171  16.377  0.00  0.00    +0.000 C 
ATOM      9  C   UNL     1       5.784   3.981  16.212  0.00  0.00    +0.000 C 
BRANCH   6  10
ATOM     10  C   UNL     1       1.872   4.201  19.393  0.00  0.00    +0.000 C 
ATOM     11  C   UNL     1       2.917   4.130  20.501  0.00  0.00    +0.000 C 
ATOM     12  C   UNL     1       2.153   3.591  21.685  0.00  0.00    +0.000 C 
ATOM     13  C   UNL     1       1.078   2.745  21.048  0.00  0.00    +0.000 C 
ATOM     14  O   UNL     1       0.827   3.282  19.748  0.00  0.00    +0.000 OA
ENDBRANCH   6  10
ENDBRANCH   1   2
BRANCH   1  17
ATOM     15  C   UNL     1       8.270   8.982  18.152  0.00  0.00    +0.000 A 
ATOM     16  N   UNL     1       7.393   8.487  17.302  0.00  0.00    +0.000 NA
ATOM     17  C   UNL     1       7.356   7.140  17.584  0.00  0.00    +0.000 A 
ATOM     18  C   UNL     1       8.184   6.888  18.656  0.00  0.00    +0.000 A 
ATOM     19  O   UNL     1       8.777   8.062  19.033  0.00  0.00    +0.000 OA
BRANCH  15  25
ATOM     20  C   UNL     1      11.814  11.997  19.852  0.00  0.00    +0.000 C 
ATOM     21  C   UNL     1      10.569  11.828  19.035  0.00  0.00    +0.000 A 
ATOM     22  C   UNL     1       9.910  12.918  18.463  0.00  0.00    +0.000 A 
ATOM     23  C   UNL     1       8.730  12.728  17.739  0.00  0.00    +0.000 A 
ATOM     24  C   UNL     1       8.186  11.445  17.596  0.00  0.00    +0.000 A 
ATOM     25  C   UNL     1       8.819  10.339  18.177  0.00  0.00    +0.000 A 
ATOM     26  C   UNL     1      10.018  10.550  18.881  0.00  0.00    +0.000 A 
ENDBRANCH  15  25
ENDBRANCH   1  17
TORSDOF 4
ENDMDL
MODEL 5
REMARK VINA RESULT:      -8.0      4.977      7.675
REMARK  Name = 
REMARK  5 active torsions:
REMARK  status: ('A' for Active; 'I' for Inactive)
REMARK    1  A    between atoms: C_1  and  C_2
REMARK    2  A    between atoms: C_6  and  C_7
REMARK    3  A    between atoms: C_9  and  C_10
REMARK    4  A    between atoms: C_10  and  N_11
REMARK    5  A    between atoms: C_15  and  C_17
REMARK                            x       y       z     vdW  Elec       q    Type
REMARK                         _______ _______ _______ _____ _____    ______ ____
ROOT
ATOM      1  C   UNL     1       4.050   6.302  18.626  0.00  0.00    +0.000 C 
ENDROOT
BRANCH   1   2
ATOM      2  N   UNL     1       2.592   6.089  18.593  0.00  0.00    +0.000 NA
ATOM      3  C   UNL     1       1.951   6.239  19.917  0.00  0.00    +0.000 C 
ATOM      4  C   UNL     1       1.862   7.672  20.483  0.00  0.00    +0.000 C 
ATOM      5  N   UNL     1       1.407   8.673  19.515  0.00  0.00    +0.000 N 
ATOM      6  C   UNL     1       0.994   9.958  19.897  0.00  0.00    +0.000 C 
ATOM      7  O   UNL     1       0.747  10.824  19.053  0.00  0.00    +0.000 OA
ATOM      8  C   UNL     1       1.910   8.520  18.148  0.00  0.00    +0.000 C 
ATOM      9  C   UNL     1       1.952   7.055  17.667  0.00  0.00    +0.000 C 
BRANCH   6  10
ATOM     10  C   UNL     1       0.824  10.241  21.414  0.00  0.00    +0.000 C 
ATOM     11  C   UNL     1      -0.264   9.403  22.077  0.00  0.00    +0.000 C 
ATOM     12  C   UNL     1      -0.844  10.324  23.121  0.00  0.00    +0.000 C 
ATOM     13  C   UNL     1      -0.637  11.695  22.528  0.00  0.00    +0.000 C 
ATOM     14  O   UNL     1       0.494  11.617  21.659  0.00  0.00    +0.000 OA
ENDBRANCH   6  10
ENDBRANCH   1   2
BRANCH   1  17
ATOM     15  C   UNL     1       5.775   4.744  15.943  0.00  0.00    +0.000 A 
ATOM     16  N   UNL     1       5.326   5.823  16.550  0.00  0.00    +0.000 NA
ATOM     17  C   UNL     1       4.817   5.365  17.744  0.00  0.00    +0.000 A 
ATOM     18  C   UNL     1       5.042   4.009  17.832  0.00  0.00    +0.000 A 
ATOM     19  O   UNL     1       5.659   3.596  16.683  0.00  0.00    +0.000 OA
BRANCH  15  25
ATOM     20  C   UNL     1       5.353   2.485  11.554  0.00  0.00    +0.000 C 
ATOM     21  C   UNL     1       6.059   3.499  12.402  0.00  0.00    +0.000 A 
ATOM     22  C   UNL     1       7.190   4.180  11.948  0.00  0.00    +0.000 A 
ATOM     23  C   UNL     1       7.845   5.093  12.779  0.00  0.00    +0.000 A 
ATOM     24  C   UNL     1       7.385   5.319  14.083  0.00  0.00    +0.000 A 
ATOM     25  C   UNL     1       6.264   4.634  14.567  0.00  0.00    +0.000 A 
ATOM     26  C   UNL     1       5.606   3.738  13.706  0.00  0.00    +0.000 A 
ENDBRANCH  15  25
ENDBRANCH   1  17
TORSDOF 4
ENDMDL
MODEL 6
REMARK VINA RESULT:      -8.0      4.961      7.712
REMARK  Name = 
REMARK  5 active torsions:
REMARK  status: ('A' for Active; 'I' for Inactive)
REMARK    1  A    between atoms: C_1  and  C_2
REMARK    2  A    between atoms: C_6  and  C_7
REMARK    3  A    between atoms: C_9  and  C_10
REMARK    4  A    between atoms: C_10  and  N_11
REMARK    5  A    between atoms: C_15  and  C_17
REMARK                            x       y       z     vdW  Elec       q    Type
REMARK                         _______ _______ _______ _____ _____    ______ ____
ROOT
ATOM      1  C   UNL     1       3.743   6.507  19.409  0.00  0.00    +0.000 C 
ENDROOT
BRANCH   1   2
ATOM      2  N   UNL     1       3.580   5.104  18.989  0.00  0.00    +0.000 NA
ATOM      3  C   UNL     1       3.279   4.958  17.548  0.00  0.00    +0.000 C 
ATOM      4  C   UNL     1       4.432   5.257  16.567  0.00  0.00    +0.000 C 
ATOM      5  N   UNL     1       5.712   4.653  16.943  0.00  0.00    +0.000 N 
ATOM      6  C   UNL     1       6.796   4.569  16.056  0.00  0.00    +0.000 C 
ATOM      7  O   UNL     1       7.903   4.181  16.439  0.00  0.00    +0.000 OA
ATOM      8  C   UNL     1       6.028   4.655  18.373  0.00  0.00    +0.000 C 
ATOM      9  C   UNL     1       4.817   4.335  19.273  0.00  0.00    +0.000 C 
BRANCH   6  10
ATOM     10  C   UNL     1       6.544   4.944  14.571  0.00  0.00    +0.000 C 
ATOM     11  C   UNL     1       6.215   3.750  13.682  0.00  0.00    +0.000 C 
ATOM     12  C   UNL     1       6.843   4.102  12.357  0.00  0.00    +0.000 C 
ATOM     13  C   UNL     1       8.013   4.969  12.746  0.00  0.00    +0.000 C 
ATOM     14  O   UNL     1       7.689   5.590  13.991  0.00  0.00    +0.000 OA
ENDBRANCH   6  10
ENDBRANCH   1   2
BRANCH   1  17
ATOM     15  C   UNL     1       1.015   8.755  19.738  0.00  0.00    +0.000 A 
ATOM     16  N   UNL     1       2.066   8.308  19.081  0.00  0.00    +0.000 NA
ATOM     17  C   UNL     1       2.456   7.182  19.770  0.00  0.00    +0.000 A 
ATOM     18  C   UNL     1       1.567   6.961  20.799  0.00  0.00    +0.000 A 
ATOM     19  O   UNL     1       0.634   7.962  20.791  0.00  0.00    +0.000 OA
BRANCH  15  25
ATOM     20  C   UNL     1      -2.336  11.264  17.089  0.00  0.00    +0.000 C 
ATOM     21  C   UNL     1      -1.340  11.261  18.210  0.00  0.00    +0.000 A 
ATOM     22  C   UNL     1      -1.015  12.425  18.909  0.00  0.00    +0.000 A 
ATOM     23  C   UNL     1      -0.055  12.392  19.924  0.00  0.00    +0.000 A 
ATOM     24  C   UNL     1       0.604  11.197  20.236  0.00  0.00    +0.000 A 
ATOM     25  C   UNL     1       0.309  10.021  19.536  0.00  0.00    +0.000 A 
ATOM     26  C   UNL     1      -0.677  10.071  18.535  0.00  0.00    +0.000 A 
ENDBRANCH  15  25
ENDBRANCH   1  17
TORSDOF 4
ENDMDL
MODEL 7
REMARK VINA RESULT:      -7.9      3.368     10.349
REMARK  Name = 
REMARK  5 active torsions:
REMARK  status: ('A' for Active; 'I' for Inactive)
REMARK    1  A    between atoms: C_1  and  C_2
REMARK    2  A    between atoms: C_6  and  C_7
REMARK    3  A    between atoms: C_9  and  C_10
REMARK    4  A    between atoms: C_10  and  N_11
REMARK    5  A    between atoms: C_15  and  C_17
REMARK                            x       y       z     vdW  Elec       q    Type
REMARK                         _______ _______ _______ _____ _____    ______ ____
ROOT
ATOM      1  C   UNL     1       8.549  10.265  18.064  0.00  0.00    +0.000 C 
ENDROOT
BRANCH   1   2
ATOM      2  N   UNL     1       9.867  10.655  18.595  0.00  0.00    +0.000 NA
ATOM      3  C   UNL     1      10.589  11.608  17.724  0.00  0.00    +0.000 C 
ATOM      4  C   UNL     1      10.037  13.048  17.669  0.00  0.00    +0.000 C 
ATOM      5  N   UNL     1       9.707  13.615  18.979  0.00  0.00    +0.000 N 
ATOM      6  C   UNL     1       9.465  14.984  19.169  0.00  0.00    +0.000 C 
ATOM      7  O   UNL     1       9.056  15.413  20.251  0.00  0.00    +0.000 OA
ATOM      8  C   UNL     1       9.094  12.696  19.940  0.00  0.00    +0.000 C 
ATOM      9  C   UNL     1       9.718  11.286  19.930  0.00  0.00    +0.000 C 
BRANCH   6  10
ATOM     10  C   UNL     1       9.764  15.941  17.985  0.00  0.00    +0.000 C 
ATOM     11  C   UNL     1      11.182  16.501  17.989  0.00  0.00    +0.000 C 
ATOM     12  C   UNL     1      11.023  17.895  17.436  0.00  0.00    +0.000 C 
ATOM     13  C   UNL     1       9.625  18.277  17.854  0.00  0.00    +0.000 C 
ATOM     14  O   UNL     1       8.874  17.069  17.982  0.00  0.00    +0.000 OA
ENDBRANCH   6  10
ENDBRANCH   1   2
BRANCH   1  17
ATOM     15  C   UNL     1       7.295   6.979  17.589  0.00  0.00    +0.000 A 
ATOM     16  N   UNL     1       7.453   8.221  17.179  0.00  0.00    +0.000 NA
ATOM     17  C   UNL     1       8.292   8.791  18.110  0.00  0.00    +0.000 A 
ATOM     18  C   UNL     1       8.658   7.829  19.026  0.00  0.00    +0.000 A 
ATOM     19  O   UNL     1       8.027   6.659  18.704  0.00  0.00    +0.000 OA
BRANCH  15  25
ATOM     20  C   UNL     1       2.764   4.988  17.820  0.00  0.00    +0.000 C 
ATOM     21  C   UNL     1       4.126   4.988  17.193  0.00  0.00    +0.000 A 
ATOM     22  C   UNL     1       4.513   4.009  16.276  0.00  0.00    +0.000 A 
ATOM     23  C   UNL     1       5.804   4.018  15.739  0.00  0.00    +0.000 A 
ATOM     24  C   UNL     1       6.726   4.997  16.130  0.00  0.00    +0.000 A 
ATOM     25  C   UNL     1       6.366   5.978  17.061  0.00  0.00    +0.000 A 
ATOM     26  C   UNL     1       5.055   5.964  17.571  0.00  0.00    +0.000 A 
ENDBRANCH  15  25
ENDBRANCH   1  17
TORSDOF 4
ENDMDL
MODEL 8
REMARK VINA RESULT:      -7.8      1.397      1.687
REMARK  Name = 
REMARK  5 active torsions:
REMARK  status: ('A' for Active; 'I' for Inactive)
REMARK    1  A    between atoms: C_1  and  C_2
REMARK    2  A    between atoms: C_6  and  C_7
REMARK    3  A    between atoms: C_9  and  C_10
REMARK    4  A    between atoms: C_10  and  N_11
REMARK    5  A    between atoms: C_15  and  C_17
REMARK                            x       y       z     vdW  Elec       q    Type
REMARK                         _______ _______ _______ _____ _____    ______ ____
ROOT
ATOM      1  C   UNL     1       7.761   6.607  18.505  0.00  0.00    +0.000 C 
ENDROOT
BRANCH   1   2
ATOM      2  N   UNL     1       7.294   5.908  17.295  0.00  0.00    +0.000 NA
ATOM      3  C   UNL     1       6.870   4.515  17.553  0.00  0.00    +0.000 C 
ATOM      4  C   UNL     1       5.550   4.327  18.331  0.00  0.00    +0.000 C 
ATOM      5  N   UNL     1       4.453   5.177  17.864  0.00  0.00    +0.000 N 
ATOM      6  C   UNL     1       3.119   4.961  18.243  0.00  0.00    +0.000 C 
ATOM      7  O   UNL     1       2.235   5.771  17.948  0.00  0.00    +0.000 OA
ATOM      8  C   UNL     1       4.817   6.542  17.478  0.00  0.00    +0.000 C 
ATOM      9  C   UNL     1       6.144   6.628  16.695  0.00  0.00    +0.000 C 
BRANCH   6  10
ATOM     10  C   UNL     1       2.789   3.654  19.011  0.00  0.00    +0.000 C 
ATOM     11  C   UNL     1       1.477   3.004  18.584  0.00  0.00    +0.000 C 
ATOM     12  C   UNL     1       0.939   2.404  19.859  0.00  0.00    +0.000 C 
ATOM     13  C   UNL     1       1.487   3.314  20.929  0.00  0.00    +0.000 C 
ATOM     14  O   UNL     1       2.695   3.885  20.426  0.00  0.00    +0.000 OA
ENDBRANCH   6  10
ENDBRANCH   1   2
BRANCH   1  17
ATOM     15  C   UNL     1       9.033   9.913  18.740  0.00  0.00    +0.000 A 
ATOM     16  N   UNL     1       9.071   8.639  19.072  0.00  0.00    +0.000 NA
ATOM     17  C   UNL     1       8.124   8.041  18.271  0.00  0.00    +0.000 A 
ATOM     18  C   UNL     1       7.588   8.993  17.432  0.00  0.00    +0.000 A 
ATOM     19  O   UNL     1       8.163  10.200  17.719  0.00  0.00    +0.000 OA
BRANCH  15  25
ATOM     20  C   UNL     1       9.025  13.151  22.490  0.00  0.00    +0.000 C 
ATOM     21  C   UNL     1       9.696  12.637  21.251  0.00  0.00    +0.000 A 
ATOM     22  C   UNL     1      10.809  13.272  20.699  0.00  0.00    +0.000 A 
ATOM     23  C   UNL     1      11.387  12.786  19.523  0.00  0.00    +0.000 A 
ATOM     24  C   UNL     1      10.843  11.670  18.876  0.00  0.00    +0.000 A 
ATOM     25  C   UNL     1       9.715  11.027  19.401  0.00  0.00    +0.000 A 
ATOM     26  C   UNL     1       9.164  11.518  20.598  0.00  0.00    +0.000 A 
ENDBRANCH  15  25
ENDBRANCH   1  17
TORSDOF 4
ENDMDL
MODEL 9
REMARK VINA RESULT:      -7.8      0.931      1.036
REMARK  Name = 
REMARK  5 active torsions:
REMARK  status: ('A' for Active; 'I' for Inactive)
REMARK    1  A    between atoms: C_1  and  C_2
REMARK    2  A    between atoms: C_6  and  C_7
REMARK    3  A    between atoms: C_9  and  C_10
REMARK    4  A    between atoms: C_10  and  N_11
REMARK    5  A    between atoms: C_15  and  C_17
REMARK                            x       y       z     vdW  Elec       q    Type
REMARK                         _______ _______ _______ _____ _____    ______ ____
ROOT
ATOM      1  C   UNL     1       7.052   7.427  16.993  0.00  0.00    +0.000 C 
ENDROOT
BRANCH   1   2
ATOM      2  N   UNL     1       7.452   6.010  17.032  0.00  0.00    +0.000 NA
ATOM      3  C   UNL     1       7.224   5.375  18.348  0.00  0.00    +0.000 C 
ATOM      4  C   UNL     1       5.755   5.109  18.741  0.00  0.00    +0.000 C 
ATOM      5  N   UNL     1       4.947   4.512  17.676  0.00  0.00    +0.000 N 
ATOM      6  C   UNL     1       3.687   3.941  17.915  0.00  0.00    +0.000 C 
ATOM      7  O   UNL     1       2.970   3.571  16.982  0.00  0.00    +0.000 OA
ATOM      8  C   UNL     1       5.200   5.010  16.322  0.00  0.00    +0.000 C 
ATOM      9  C   UNL     1       6.696   5.234  16.018  0.00  0.00    +0.000 C 
BRANCH   6  10
ATOM     10  C   UNL     1       3.245   3.760  19.392  0.00  0.00    +0.000 C 
ATOM     11  C   UNL     1       2.481   2.466  19.650  0.00  0.00    +0.000 C 
ATOM     12  C   UNL     1       1.478   2.844  20.711  0.00  0.00    +0.000 C 
ATOM     13  C   UNL     1       1.225   4.306  20.445  0.00  0.00    +0.000 C 
ATOM     14  O   UNL     1       2.396   4.836  19.823  0.00  0.00    +0.000 OA
ENDBRANCH   6  10
ENDBRANCH   1   2
BRANCH   1  17
ATOM     15  C   UNL     1       8.812  10.108  18.516  0.00  0.00    +0.000 A 
ATOM     16  N   UNL     1       7.914   9.657  17.664  0.00  0.00    +0.000 NA
ATOM     17  C   UNL     1       7.848   8.304  17.909  0.00  0.00    +0.000 A 
ATOM     18  C   UNL     1       8.685   8.003  18.962  0.00  0.00    +0.000 A 
ATOM     19  O   UNL     1       9.309   9.151  19.363  0.00  0.00    +0.000 OA
BRANCH  15  25
ATOM     20  C   UNL     1       9.822  14.085  21.293  0.00  0.00    +0.000 C 
ATOM     21  C   UNL     1       9.875  13.421  19.949  0.00  0.00    +0.000 A 
ATOM     22  C   UNL     1      10.319  14.098  18.812  0.00  0.00    +0.000 A 
ATOM     23  C   UNL     1      10.321  13.460  17.568  0.00  0.00    +0.000 A 
ATOM     24  C   UNL     1       9.860  12.143  17.448  0.00  0.00    +0.000 A 
ATOM     25  C   UNL     1       9.393  11.451  18.571  0.00  0.00    +0.000 A 
ATOM     26  C   UNL     1       9.422  12.103  19.817  0.00  0.00    +0.000 A 
ENDBRANCH  15  25
ENDBRANCH   1  17
TORSDOF 4
ENDMDL
