MODEL 1
REMARK VINA RESULT:      -7.5      0.000      0.000
REMARK  Name = 
REMARK  7 active torsions:
REMARK  status: ('A' for Active; 'I' for Inactive)
REMARK    1  A    between atoms: C_1  and  O_2
REMARK    2  A    between atoms: O_2  and  C_3
REMARK    3  A    between atoms: C_8  and  C_9
REMARK    4  A    between atoms: N_11  and  N_12
REMARK    5  A    between atoms: C_13  and  C_14
REMARK    6  A    between atoms: C_17  and  O_18
REMARK    7  A    between atoms: C_19  and  O_20
REMARK                            x       y       z     vdW  Elec       q    Type
REMARK                         _______ _______ _______ _____ _____    ______ ____
ROOT
ATOM      1  C   UNL     1       7.333   6.697  17.887  0.00  0.00    +0.000 C 
ATOM      2  O   UNL     1       8.027   6.453  18.875  0.00  0.00    +0.000 OA
ATOM      3  N   UNL     1       7.507   7.814  17.089  0.00  0.00    +0.000 N 
ATOM      4  H   UNL     1       6.905   7.970  16.286  0.00  0.00    +0.000 HD
ENDROOT
BRANCH   1  10
ATOM      5  C   UNL     1       6.228   4.917  16.361  0.00  0.00    +0.000 A 
ATOM      6  C   UNL     1       5.124   4.067  16.147  0.00  0.00    +0.000 A 
ATOM      7  C   UNL     1       4.075   3.995  17.061  0.00  0.00    +0.000 A 
ATOM      8  C   UNL     1       4.099   4.780  18.204  0.00  0.00    +0.000 A 
ATOM      9  C   UNL     1       5.173   5.641  18.423  0.00  0.00    +0.000 A 
ATOM     10  C   UNL     1       6.248   5.729  17.516  0.00  0.00    +0.000 A 
BRANCH   5  12
ATOM     11  C   UNL     1       6.948   4.753  14.102  0.00  0.00    +0.000 C 
ATOM     12  O   UNL     1       7.271   5.006  15.470  0.00  0.00    +0.000 OA
ENDBRANCH   5  12
ENDBRANCH   1  10
BRANCH   3  13
ATOM     13  N   UNL     1       8.504   8.694  17.394  0.00  0.00    +0.000 NA
ATOM     14  C   UNL     1       8.299   9.501  18.382  0.00  0.00    +0.000 C 
BRANCH  14  15
ATOM     15  C   UNL     1       9.321  10.502  18.759  0.00  0.00    +0.000 A 
ATOM     16  C   UNL     1       9.418  10.952  20.086  0.00  0.00    +0.000 A 
ATOM     17  C   UNL     1      10.418  11.854  20.458  0.00  0.00    +0.000 A 
ATOM     18  C   UNL     1      11.310  12.303  19.493  0.00  0.00    +0.000 A 
ATOM     19  C   UNL     1      11.194  11.878  18.170  0.00  0.00    +0.000 A 
ATOM     20  C   UNL     1      10.207  10.978  17.787  0.00  0.00    +0.000 A 
BRANCH  18  21
ATOM     21  O   UNL     1      12.333  13.159  19.798  0.00  0.00    +0.000 OA
ATOM     22  H   UNL     1      12.589  13.001  20.724  0.00  0.00    +0.000 HD
ENDBRANCH  18  21
BRANCH  19  23
ATOM     23  O   UNL     1      12.075  12.341  17.232  0.00  0.00    +0.000 OA
ATOM     24  H   UNL     1      12.808  12.725  17.753  0.00  0.00    +0.000 HD
ENDBRANCH  19  23
ENDBRANCH  14  15
ENDBRANCH   3  13
TORSDOF 6
ENDMDL
MODEL 2
REMARK VINA RESULT:      -7.3      0.692      1.512
REMARK  Name = 
REMARK  7 active torsions:
REMARK  status: ('A' for Active; 'I' for Inactive)
REMARK    1  A    between atoms: C_1  and  O_2
REMARK    2  A    between atoms: O_2  and  C_3
REMARK    3  A    between atoms: C_8  and  C_9
REMARK    4  A    between atoms: N_11  and  N_12
REMARK    5  A    between atoms: C_13  and  C_14
REMARK    6  A    between atoms: C_17  and  O_18
REMARK    7  A    between atoms: C_19  and  O_20
REMARK                            x       y       z     vdW  Elec       q    Type
REMARK                         _______ _______ _______ _____ _____    ______ ____
ROOT
ATOM      1  C   UNL     1       7.282   6.471  18.028  0.00  0.00    +0.000 C 
ATOM      2  O   UNL     1       7.892   6.184  19.059  0.00  0.00    +0.000 OA
ATOM      3  N   UNL     1       7.548   7.600  17.273  0.00  0.00    +0.000 N 
ATOM      4  H   UNL     1       7.013   7.791  16.431  0.00  0.00    +0.000 HD
ENDROOT
BRANCH   1  10
ATOM      5  C   UNL     1       6.238   4.774  16.370  0.00  0.00    +0.000 A 
ATOM      6  C   UNL     1       5.131   3.961  16.054  0.00  0.00    +0.000 A 
ATOM      7  C   UNL     1       4.023   3.885  16.895  0.00  0.00    +0.000 A 
ATOM      8  C   UNL     1       3.990   4.629  18.065  0.00  0.00    +0.000 A 
ATOM      9  C   UNL     1       5.067   5.454  18.384  0.00  0.00    +0.000 A 
ATOM     10  C   UNL     1       6.201   5.545  17.552  0.00  0.00    +0.000 A 
BRANCH   5  12
ATOM     11  C   UNL     1       7.082   4.801  14.149  0.00  0.00    +0.000 C 
ATOM     12  O   UNL     1       7.339   4.866  15.552  0.00  0.00    +0.000 OA
ENDBRANCH   5  12
ENDBRANCH   1  10
BRANCH   3  13
ATOM     13  N   UNL     1       8.543   8.442  17.673  0.00  0.00    +0.000 NA
ATOM     14  C   UNL     1       8.190   9.553  18.231  0.00  0.00    +0.000 C 
BRANCH  14  15
ATOM     15  C   UNL     1       9.210  10.531  18.669  0.00  0.00    +0.000 A 
ATOM     16  C   UNL     1      10.063  11.134  17.730  0.00  0.00    +0.000 A 
ATOM     17  C   UNL     1      10.989  12.100  18.132  0.00  0.00    +0.000 A 
ATOM     18  C   UNL     1      11.057  12.449  19.474  0.00  0.00    +0.000 A 
ATOM     19  C   UNL     1      10.230  11.827  20.409  0.00  0.00    +0.000 A 
ATOM     20  C   UNL     1       9.302  10.868  20.023  0.00  0.00    +0.000 A 
BRANCH  18  21
ATOM     21  O   UNL     1      11.917  13.412  19.928  0.00  0.00    +0.000 OA
ATOM     22  H   UNL     1      11.872  14.166  19.315  0.00  0.00    +0.000 HD
ENDBRANCH  18  21
BRANCH  19  23
ATOM     23  O   UNL     1      10.320  12.175  21.728  0.00  0.00    +0.000 OA
ATOM     24  H   UNL     1      10.137  11.347  22.214  0.00  0.00    +0.000 HD
ENDBRANCH  19  23
ENDBRANCH  14  15
ENDBRANCH   3  13
TORSDOF 6
ENDMDL
MODEL 3
REMARK VINA RESULT:      -7.1      1.307      2.221
REMARK  Name = 
REMARK  7 active torsions:
REMARK  status: ('A' for Active; 'I' for Inactive)
REMARK    1  A    between atoms: C_1  and  O_2
REMARK    2  A    between atoms: O_2  and  C_3
REMARK    3  A    between atoms: C_8  and  C_9
REMARK    4  A    between atoms: N_11  and  N_12
REMARK    5  A    between atoms: C_13  and  C_14
REMARK    6  A    between atoms: C_17  and  O_18
REMARK    7  A    between atoms: C_19  and  O_20
REMARK                            x       y       z     vdW  Elec       q    Type
REMARK                         _______ _______ _______ _____ _____    ______ ____
ROOT
ATOM      1  C   UNL     1       7.461   6.572  17.937  0.00  0.00    +0.000 C 
ATOM      2  O   UNL     1       8.048   6.185  18.948  0.00  0.00    +0.000 OA
ATOM      3  N   UNL     1       7.583   7.853  17.426  0.00  0.00    +0.000 N 
ATOM      4  H   UNL     1       7.075   8.122  16.589  0.00  0.00    +0.000 HD
ENDROOT
BRANCH   1  10
ATOM      5  C   UNL     1       5.307   5.162  17.638  0.00  0.00    +0.000 A 
ATOM      6  C   UNL     1       4.604   4.236  16.842  0.00  0.00    +0.000 A 
ATOM      7  C   UNL     1       5.123   3.775  15.635  0.00  0.00    +0.000 A 
ATOM      8  C   UNL     1       6.363   4.219  15.200  0.00  0.00    +0.000 A 
ATOM      9  C   UNL     1       7.081   5.121  15.983  0.00  0.00    +0.000 A 
ATOM     10  C   UNL     1       6.576   5.605  17.207  0.00  0.00    +0.000 A 
BRANCH   5  12
ATOM     11  C   UNL     1       3.766   4.854  19.421  0.00  0.00    +0.000 C 
ATOM     12  O   UNL     1       4.814   5.626  18.835  0.00  0.00    +0.000 OA
ENDBRANCH   5  12
ENDBRANCH   1  10
BRANCH   3  13
ATOM     13  N   UNL     1       8.402   8.740  18.060  0.00  0.00    +0.000 NA
ATOM     14  C   UNL     1       8.209   9.996  17.825  0.00  0.00    +0.000 C 
BRANCH  14  15
ATOM     15  C   UNL     1       9.072  11.020  18.454  0.00  0.00    +0.000 A 
ATOM     16  C   UNL     1       9.701  10.758  19.682  0.00  0.00    +0.000 A 
ATOM     17  C   UNL     1      10.562  11.700  20.252  0.00  0.00    +0.000 A 
ATOM     18  C   UNL     1      10.781  12.900  19.588  0.00  0.00    +0.000 A 
ATOM     19  C   UNL     1      10.132  13.168  18.383  0.00  0.00    +0.000 A 
ATOM     20  C   UNL     1       9.276  12.240  17.804  0.00  0.00    +0.000 A 
BRANCH  18  21
ATOM     21  O   UNL     1      11.638  13.848  20.073  0.00  0.00    +0.000 OA
ATOM     22  H   UNL     1      11.418  14.696  19.650  0.00  0.00    +0.000 HD
ENDBRANCH  18  21
BRANCH  19  23
ATOM     23  O   UNL     1      10.350  14.361  17.750  0.00  0.00    +0.000 OA
ATOM     24  H   UNL     1      11.315  14.380  17.589  0.00  0.00    +0.000 HD
ENDBRANCH  19  23
ENDBRANCH  14  15
ENDBRANCH   3  13
TORSDOF 6
ENDMDL
MODEL 4
REMARK VINA RESULT:      -7.1      1.356      2.588
REMARK  Name = 
REMARK  7 active torsions:
REMARK  status: ('A' for Active; 'I' for Inactive)
REMARK    1  A    between atoms: C_1  and  O_2
REMARK    2  A    between atoms: O_2  and  C_3
REMARK    3  A    between atoms: C_8  and  C_9
REMARK    4  A    between atoms: N_11  and  N_12
REMARK    5  A    between atoms: C_13  and  C_14
REMARK    6  A    between atoms: C_17  and  O_18
REMARK    7  A    between atoms: C_19  and  O_20
REMARK                            x       y       z     vdW  Elec       q    Type
REMARK                         _______ _______ _______ _____ _____    ______ ____
ROOT
ATOM      1  C   UNL     1       7.394   6.484  18.005  0.00  0.00    +0.000 C 
ATOM      2  O   UNL     1       7.891   6.090  19.060  0.00  0.00    +0.000 OA
ATOM      3  N   UNL     1       7.611   7.748  17.484  0.00  0.00    +0.000 N 
ATOM      4  H   UNL     1       7.174   8.024  16.609  0.00  0.00    +0.000 HD
ENDROOT
BRANCH   1  10
ATOM      5  C   UNL     1       5.194   5.183  17.570  0.00  0.00    +0.000 A 
ATOM      6  C   UNL     1       4.505   4.274  16.743  0.00  0.00    +0.000 A 
ATOM      7  C   UNL     1       5.091   3.751  15.592  0.00  0.00    +0.000 A 
ATOM      8  C   UNL     1       6.384   4.116  15.247  0.00  0.00    +0.000 A 
ATOM      9  C   UNL     1       7.088   4.999  16.063  0.00  0.00    +0.000 A 
ATOM     10  C   UNL     1       6.516   5.545  17.230  0.00  0.00    +0.000 A 
BRANCH   5  12
ATOM     11  C   UNL     1       3.869   4.801  19.505  0.00  0.00    +0.000 C 
ATOM     12  O   UNL     1       4.636   5.707  18.711  0.00  0.00    +0.000 OA
ENDBRANCH   5  12
ENDBRANCH   1  10
BRANCH   3  13
ATOM     13  N   UNL     1       8.426   8.609  18.159  0.00  0.00    +0.000 NA
ATOM     14  C   UNL     1       8.373   9.857  17.828  0.00  0.00    +0.000 C 
BRANCH  14  15
ATOM     15  C   UNL     1       9.244  10.848  18.495  0.00  0.00    +0.000 A 
ATOM     16  C   UNL     1      10.038  11.721  17.733  0.00  0.00    +0.000 A 
ATOM     17  C   UNL     1      10.819  12.697  18.357  0.00  0.00    +0.000 A 
ATOM     18  C   UNL     1      10.802  12.786  19.743  0.00  0.00    +0.000 A 
ATOM     19  C   UNL     1      10.035  11.900  20.498  0.00  0.00    +0.000 A 
ATOM     20  C   UNL     1       9.252  10.927  19.891  0.00  0.00    +0.000 A 
BRANCH  18  21
ATOM     21  O   UNL     1      11.516  13.741  20.414  0.00  0.00    +0.000 OA
ATOM     22  H   UNL     1      11.443  13.555  21.366  0.00  0.00    +0.000 HD
ENDBRANCH  18  21
BRANCH  19  23
ATOM     23  O   UNL     1      10.041  11.996  21.863  0.00  0.00    +0.000 OA
ATOM     24  H   UNL     1       9.098  12.077  22.107  0.00  0.00    +0.000 HD
ENDBRANCH  19  23
ENDBRANCH  14  15
ENDBRANCH   3  13
TORSDOF 6
ENDMDL
MODEL 5
REMARK VINA RESULT:      -7.0      7.614     10.229
REMARK  Name = 
REMARK  7 active torsions:
REMARK  status: ('A' for Active; 'I' for Inactive)
REMARK    1  A    between atoms: C_1  and  O_2
REMARK    2  A    between atoms: O_2  and  C_3
REMARK    3  A    between atoms: C_8  and  C_9
REMARK    4  A    between atoms: N_11  and  N_12
REMARK    5  A    between atoms: C_13  and  C_14
REMARK    6  A    between atoms: C_17  and  O_18
REMARK    7  A    between atoms: C_19  and  O_20
REMARK                            x       y       z     vdW  Elec       q    Type
REMARK                         _______ _______ _______ _____ _____    ______ ____
ROOT
ATOM      1  C   UNL     1       1.282   8.185  20.461  0.00  0.00    +0.000 C 
ATOM      2  O   UNL     1       1.794   8.427  19.367  0.00  0.00    +0.000 OA
ATOM      3  N   UNL     1       1.378   6.958  21.094  0.00  0.00    +0.000 N 
ATOM      4  H   UNL     1       0.935   6.810  21.997  0.00  0.00    +0.000 HD
ENDROOT
BRANCH   1  10
ATOM      5  C   UNL     1       0.016  10.446  20.547  0.00  0.00    +0.000 A 
ATOM      6  C   UNL     1      -0.663  11.388  21.344  0.00  0.00    +0.000 A 
ATOM      7  C   UNL     1      -0.864  11.177  22.706  0.00  0.00    +0.000 A 
ATOM      8  C   UNL     1      -0.379  10.024  23.306  0.00  0.00    +0.000 A 
ATOM      9  C   UNL     1       0.312   9.089  22.537  0.00  0.00    +0.000 A 
ATOM     10  C   UNL     1       0.525   9.278  21.157  0.00  0.00    +0.000 A 
BRANCH   5  12
ATOM     11  C   UNL     1      -0.922  10.520  18.365  0.00  0.00    +0.000 C 
ATOM     12  O   UNL     1       0.228  10.637  19.202  0.00  0.00    +0.000 OA
ENDBRANCH   5  12
ENDBRANCH   1  10
BRANCH   3  13
ATOM     13  N   UNL     1       2.083   5.958  20.492  0.00  0.00    +0.000 NA
ATOM     14  C   UNL     1       1.469   4.840  20.288  0.00  0.00    +0.000 C 
BRANCH  14  15
ATOM     15  C   UNL     1       2.173   3.699  19.664  0.00  0.00    +0.000 A 
ATOM     16  C   UNL     1       1.706   3.153  18.457  0.00  0.00    +0.000 A 
ATOM     17  C   UNL     1       2.400   2.112  17.834  0.00  0.00    +0.000 A 
ATOM     18  C   UNL     1       3.555   1.623  18.430  0.00  0.00    +0.000 A 
ATOM     19  C   UNL     1       4.000   2.147  19.643  0.00  0.00    +0.000 A 
ATOM     20  C   UNL     1       3.322   3.184  20.272  0.00  0.00    +0.000 A 
BRANCH  18  21
ATOM     21  O   UNL     1       4.300   0.631  17.855  0.00  0.00    +0.000 OA
ATOM     22  H   UNL     1       4.315   0.785  16.894  0.00  0.00    +0.000 HD
ENDBRANCH  18  21
BRANCH  19  23
ATOM     23  O   UNL     1       5.133   1.644  20.221  0.00  0.00    +0.000 OA
ATOM     24  H   UNL     1       4.847   0.803  20.630  0.00  0.00    +0.000 HD
ENDBRANCH  19  23
ENDBRANCH  14  15
ENDBRANCH   3  13
TORSDOF 6
ENDMDL
MODEL 6
REMARK VINA RESULT:      -7.0      2.469      8.424
REMARK  Name = 
REMARK  7 active torsions:
REMARK  status: ('A' for Active; 'I' for Inactive)
REMARK    1  A    between atoms: C_1  and  O_2
REMARK    2  A    between atoms: O_2  and  C_3
REMARK    3  A    between atoms: C_8  and  C_9
REMARK    4  A    between atoms: N_11  and  N_12
REMARK    5  A    between atoms: C_13  and  C_14
REMARK    6  A    between atoms: C_17  and  O_18
REMARK    7  A    between atoms: C_19  and  O_20
REMARK                            x       y       z     vdW  Elec       q    Type
REMARK                         _______ _______ _______ _____ _____    ______ ____
ROOT
ATOM      1  C   UNL     1       9.422  11.350  19.380  0.00  0.00    +0.000 C 
ATOM      2  O   UNL     1       9.380  10.973  20.552  0.00  0.00    +0.000 OA
ATOM      3  N   UNL     1       9.049  10.558  18.309  0.00  0.00    +0.000 N 
ATOM      4  H   UNL     1       9.104  10.917  17.360  0.00  0.00    +0.000 HD
ENDROOT
BRANCH   1  10
ATOM      5  C   UNL     1       9.207  13.697  18.298  0.00  0.00    +0.000 A 
ATOM      6  C   UNL     1       9.787  14.967  18.111  0.00  0.00    +0.000 A 
ATOM      7  C   UNL     1      10.996  15.309  18.713  0.00  0.00    +0.000 A 
ATOM      8  C   UNL     1      11.660  14.385  19.505  0.00  0.00    +0.000 A 
ATOM      9  C   UNL     1      11.111  13.116  19.686  0.00  0.00    +0.000 A 
ATOM     10  C   UNL     1       9.888  12.747  19.092  0.00  0.00    +0.000 A 
BRANCH   5  12
ATOM     11  C   UNL     1       6.992  14.332  17.718  0.00  0.00    +0.000 C 
ATOM     12  O   UNL     1       8.017  13.338  17.711  0.00  0.00    +0.000 OA
ENDBRANCH   5  12
ENDBRANCH   1  10
BRANCH   3  13
ATOM     13  N   UNL     1       8.598   9.293  18.549  0.00  0.00    +0.000 NA
ATOM     14  C   UNL     1       7.920   8.717  17.612  0.00  0.00    +0.000 C 
BRANCH  14  15
ATOM     15  C   UNL     1       7.375   7.356  17.806  0.00  0.00    +0.000 A 
ATOM     16  C   UNL     1       8.008   6.457  18.681  0.00  0.00    +0.000 A 
ATOM     17  C   UNL     1       7.465   5.191  18.910  0.00  0.00    +0.000 A 
ATOM     18  C   UNL     1       6.294   4.832  18.256  0.00  0.00    +0.000 A 
ATOM     19  C   UNL     1       5.684   5.716  17.366  0.00  0.00    +0.000 A 
ATOM     20  C   UNL     1       6.211   6.979  17.130  0.00  0.00    +0.000 A 
BRANCH  18  21
ATOM     21  O   UNL     1       5.692   3.622  18.464  0.00  0.00    +0.000 OA
ATOM     22  H   UNL     1       5.235   3.369  17.642  0.00  0.00    +0.000 HD
ENDBRANCH  18  21
BRANCH  19  23
ATOM     23  O   UNL     1       4.538   5.340  16.722  0.00  0.00    +0.000 OA
ATOM     24  H   UNL     1       3.902   6.057  16.915  0.00  0.00    +0.000 HD
ENDBRANCH  19  23
ENDBRANCH  14  15
ENDBRANCH   3  13
TORSDOF 6
ENDMDL
MODEL 7
REMARK VINA RESULT:      -6.9      7.190     10.042
REMARK  Name = 
REMARK  7 active torsions:
REMARK  status: ('A' for Active; 'I' for Inactive)
REMARK    1  A    between atoms: C_1  and  O_2
REMARK    2  A    between atoms: O_2  and  C_3
REMARK    3  A    between atoms: C_8  and  C_9
REMARK    4  A    between atoms: N_11  and  N_12
REMARK    5  A    between atoms: C_13  and  C_14
REMARK    6  A    between atoms: C_17  and  O_18
REMARK    7  A    between atoms: C_19  and  O_20
REMARK                            x       y       z     vdW  Elec       q    Type
REMARK                         _______ _______ _______ _____ _____    ______ ____
ROOT
ATOM      1  C   UNL     1       1.603   8.715  19.211  0.00  0.00    +0.000 C 
ATOM      2  O   UNL     1       1.727   8.522  18.000  0.00  0.00    +0.000 OA
ATOM      3  N   UNL     1       1.992   7.800  20.173  0.00  0.00    +0.000 N 
ATOM      4  H   UNL     1       1.866   8.007  21.159  0.00  0.00    +0.000 HD
ENDROOT
BRANCH   1  10
ATOM      5  C   UNL     1       0.269  10.206  20.859  0.00  0.00    +0.000 A 
ATOM      6  C   UNL     1      -0.233  11.491  21.146  0.00  0.00    +0.000 A 
ATOM      7  C   UNL     1       0.011  12.571  20.301  0.00  0.00    +0.000 A 
ATOM      8  C   UNL     1       0.753  12.390  19.143  0.00  0.00    +0.000 A 
ATOM      9  C   UNL     1       1.242  11.122  18.833  0.00  0.00    +0.000 A 
ATOM     10  C   UNL     1       1.012  10.014  19.674  0.00  0.00    +0.000 A 
BRANCH   5  12
ATOM     11  C   UNL     1       0.010   9.398  23.079  0.00  0.00    +0.000 C 
ATOM     12  O   UNL     1       0.037   9.126  21.678  0.00  0.00    +0.000 OA
ENDBRANCH   5  12
ENDBRANCH   1  10
BRANCH   3  13
ATOM     13  N   UNL     1       2.555   6.623  19.775  0.00  0.00    +0.000 NA
ATOM     14  C   UNL     1       1.795   5.578  19.759  0.00  0.00    +0.000 C 
BRANCH  14  15
ATOM     15  C   UNL     1       2.337   4.260  19.364  0.00  0.00    +0.000 A 
ATOM     16  C   UNL     1       1.676   3.482  18.400  0.00  0.00    +0.000 A 
ATOM     17  C   UNL     1       2.214   2.262  17.983  0.00  0.00    +0.000 A 
ATOM     18  C   UNL     1       3.410   1.829  18.540  0.00  0.00    +0.000 A 
ATOM     19  C   UNL     1       4.049   2.590  19.519  0.00  0.00    +0.000 A 
ATOM     20  C   UNL     1       3.527   3.806  19.940  0.00  0.00    +0.000 A 
BRANCH  18  21
ATOM     21  O   UNL     1       4.009   0.663  18.150  0.00  0.00    +0.000 OA
ATOM     22  H   UNL     1       3.328  -0.033  18.134  0.00  0.00    +0.000 HD
ENDBRANCH  18  21
BRANCH  19  23
ATOM     23  O   UNL     1       5.220   2.141  20.065  0.00  0.00    +0.000 OA
ATOM     24  H   UNL     1       5.885   2.269  19.359  0.00  0.00    +0.000 HD
ENDBRANCH  19  23
ENDBRANCH  14  15
ENDBRANCH   3  13
TORSDOF 6
ENDMDL
MODEL 8
REMARK VINA RESULT:      -6.9      6.521      9.392
REMARK  Name = 
REMARK  7 active torsions:
REMARK  status: ('A' for Active; 'I' for Inactive)
REMARK    1  A    between atoms: C_1  and  O_2
REMARK    2  A    between atoms: O_2  and  C_3
REMARK    3  A    between atoms: C_8  and  C_9
REMARK    4  A    between atoms: N_11  and  N_12
REMARK    5  A    between atoms: C_13  and  C_14
REMARK    6  A    between atoms: C_17  and  O_18
REMARK    7  A    between atoms: C_19  and  O_20
REMARK                            x       y       z     vdW  Elec       q    Type
REMARK                         _______ _______ _______ _____ _____    ______ ____
ROOT
ATOM      1  C   UNL     1       1.657   9.548  18.312  0.00  0.00    +0.000 C 
ATOM      2  O   UNL     1       2.283   9.385  17.264  0.00  0.00    +0.000 OA
ATOM      3  N   UNL     1       1.590   8.599  19.317  0.00  0.00    +0.000 N 
ATOM      4  H   UNL     1       1.057   8.784  20.162  0.00  0.00    +0.000 HD
ENDROOT
BRANCH   1  10
ATOM      5  C   UNL     1      -0.462  11.020  18.563  0.00  0.00    +0.000 A 
ATOM      6  C   UNL     1      -0.984  12.315  18.756  0.00  0.00    +0.000 A 
ATOM      7  C   UNL     1      -0.147  13.415  18.934  0.00  0.00    +0.000 A 
ATOM      8  C   UNL     1       1.229  13.248  18.911  0.00  0.00    +0.000 A 
ATOM      9  C   UNL     1       1.763  11.978  18.702  0.00  0.00    +0.000 A 
ATOM     10  C   UNL     1       0.939  10.849  18.523  0.00  0.00    +0.000 A 
BRANCH   5  12
ATOM     11  C   UNL     1      -2.142   9.968  17.251  0.00  0.00    +0.000 C 
ATOM     12  O   UNL     1      -1.269   9.922  18.381  0.00  0.00    +0.000 OA
ENDBRANCH   5  12
ENDBRANCH   1  10
BRANCH   3  13
ATOM     13  N   UNL     1       2.256   7.420  19.157  0.00  0.00    +0.000 NA
ATOM     14  C   UNL     1       2.219   6.580  20.138  0.00  0.00    +0.000 C 
BRANCH  14  15
ATOM     15  C   UNL     1       2.938   5.291  20.052  0.00  0.00    +0.000 A 
ATOM     16  C   UNL     1       2.361   4.121  20.574  0.00  0.00    +0.000 A 
ATOM     17  C   UNL     1       3.011   2.891  20.444  0.00  0.00    +0.000 A 
ATOM     18  C   UNL     1       4.238   2.844  19.796  0.00  0.00    +0.000 A 
ATOM     19  C   UNL     1       4.822   4.012  19.304  0.00  0.00    +0.000 A 
ATOM     20  C   UNL     1       4.186   5.240  19.423  0.00  0.00    +0.000 A 
BRANCH  18  21
ATOM     21  O   UNL     1       4.909   1.668  19.604  0.00  0.00    +0.000 OA
ATOM     22  H   UNL     1       5.728   1.866  19.117  0.00  0.00    +0.000 HD
ENDBRANCH  18  21
BRANCH  19  23
ATOM     23  O   UNL     1       6.037   3.947  18.680  0.00  0.00    +0.000 OA
ATOM     24  H   UNL     1       5.885   4.357  17.805  0.00  0.00    +0.000 HD
ENDBRANCH  19  23
ENDBRANCH  14  15
ENDBRANCH   3  13
TORSDOF 6
ENDMDL
MODEL 9
REMARK VINA RESULT:      -6.9      7.226     10.117
REMARK  Name = 
REMARK  7 active torsions:
REMARK  status: ('A' for Active; 'I' for Inactive)
REMARK    1  A    between atoms: C_1  and  O_2
REMARK    2  A    between atoms: O_2  and  C_3
REMARK    3  A    between atoms: C_8  and  C_9
REMARK    4  A    between atoms: N_11  and  N_12
REMARK    5  A    between atoms: C_13  and  C_14
REMARK    6  A    between atoms: C_17  and  O_18
REMARK    7  A    between atoms: C_19  and  O_20
REMARK                            x       y       z     vdW  Elec       q    Type
REMARK                         _______ _______ _______ _____ _____    ______ ____
ROOT
ATOM      1  C   UNL     1       1.102   8.847  20.451  0.00  0.00    +0.000 C 
ATOM      2  O   UNL     1       1.321   8.980  19.246  0.00  0.00    +0.000 OA
ATOM      3  N   UNL     1       1.449   7.717  21.170  0.00  0.00    +0.000 N 
ATOM      4  H   UNL     1       1.244   7.658  22.164  0.00  0.00    +0.000 HD
ENDROOT
BRANCH   1  10
ATOM      5  C   UNL     1       0.511  11.340  20.846  0.00  0.00    +0.000 A 
ATOM      6  C   UNL     1      -0.164  12.280  21.651  0.00  0.00    +0.000 A 
ATOM      7  C   UNL     1      -0.921  11.882  22.751  0.00  0.00    +0.000 A 
ATOM      8  C   UNL     1      -1.011  10.538  23.080  0.00  0.00    +0.000 A 
ATOM      9  C   UNL     1      -0.334   9.596  22.307  0.00  0.00    +0.000 A 
ATOM     10  C   UNL     1       0.434   9.972  21.187  0.00  0.00    +0.000 A 
BRANCH   5  12
ATOM     11  C   UNL     1       0.661  12.648  18.868  0.00  0.00    +0.000 C 
ATOM     12  O   UNL     1       1.266  11.711  19.759  0.00  0.00    +0.000 OA
ENDBRANCH   5  12
ENDBRANCH   1  10
BRANCH   3  13
ATOM     13  N   UNL     1       2.080   6.693  20.527  0.00  0.00    +0.000 NA
ATOM     14  C   UNL     1       1.602   5.504  20.695  0.00  0.00    +0.000 C 
BRANCH  14  15
ATOM     15  C   UNL     1       2.244   4.338  20.051  0.00  0.00    +0.000 A 
ATOM     16  C   UNL     1       1.478   3.219  19.685  0.00  0.00    +0.000 A 
ATOM     17  C   UNL     1       2.071   2.140  19.025  0.00  0.00    +0.000 A 
ATOM     18  C   UNL     1       3.430   2.187  18.744  0.00  0.00    +0.000 A 
ATOM     19  C   UNL     1       4.194   3.287  19.135  0.00  0.00    +0.000 A 
ATOM     20  C   UNL     1       3.617   4.368  19.788  0.00  0.00    +0.000 A 
BRANCH  18  21
ATOM     21  O   UNL     1       4.064   1.180  18.070  0.00  0.00    +0.000 OA
ATOM     22  H   UNL     1       4.761   1.579  17.521  0.00  0.00    +0.000 HD
ENDBRANCH  18  21
BRANCH  19  23
ATOM     23  O   UNL     1       5.533   3.310  18.860  0.00  0.00    +0.000 OA
ATOM     24  H   UNL     1       5.811   4.224  19.070  0.00  0.00    +0.000 HD
ENDBRANCH  19  23
ENDBRANCH  14  15
ENDBRANCH   3  13
TORSDOF 6
ENDMDL
