MODEL 1
REMARK VINA RESULT:      -7.5      0.000      0.000
REMARK  Name = 
REMARK  9 active torsions:
REMARK  status: ('A' for Active; 'I' for Inactive)
REMARK    1  A    between atoms: C_2  and  C_3
REMARK    2  A    between atoms: C_3  and  O_4
REMARK    3  A    between atoms: O_4  and  C_5
REMARK    4  A    between atoms: C_5  and  C_7
REMARK    5  A    between atoms: C_7  and  C_8
REMARK    6  A    between atoms: C_8  and  N_9
REMARK    7  A    between atoms: N_20  and  C_21
REMARK    8  A    between atoms: C_21  and  C_22
REMARK    9  A    between atoms: C_22  and  C_23
REMARK                            x       y       z     vdW  Elec       q    Type
REMARK                         _______ _______ _______ _____ _____    ______ ____
ROOT
ATOM      1  O   UNL     1       7.298   5.606  15.250  0.00  0.00    +0.000 OA
ENDROOT
BRANCH   1   2
ATOM      2  C   UNL     1       6.687   4.447  14.868  0.00  0.00    +0.000 C 
ATOM      3  O   UNL     1       6.681   4.028  13.721  0.00  0.00    +0.000 OA
BRANCH   2   4
ATOM      4  C   UNL     1       5.946   3.812  16.036  0.00  0.00    +0.000 C 
BRANCH   4   5
ATOM      5  C   UNL     1       4.468   4.230  16.265  0.00  0.00    +0.000 C 
BRANCH   5   6
ATOM      6  N   UNL     1       3.780   3.852  17.513  0.00  0.00    +0.000 N 
ATOM      7  C   UNL     1       2.403   3.907  17.692  0.00  0.00    +0.000 C 
ATOM      8  O   UNL     1       1.594   4.463  16.964  0.00  0.00    +0.000 OA
ATOM      9  C   UNL     1       2.089   2.956  18.844  0.00  0.00    +0.000 C 
ATOM     10  C   UNL     1       0.830   2.683  19.637  0.00  0.00    +0.000 C 
ATOM     11  C   UNL     1       1.004   2.642  21.129  0.00  0.00    +0.000 C 
ATOM     12  C   UNL     1       2.186   2.651  21.761  0.00  0.00    +0.000 C 
ATOM     13  C   UNL     1       3.511   2.712  21.075  0.00  0.00    +0.000 C 
ATOM     14  C   UNL     1       3.399   2.771  19.561  0.00  0.00    +0.000 C 
ATOM     15  C   UNL     1       4.390   3.576  18.710  0.00  0.00    +0.000 C 
ATOM     16  O   UNL     1       5.552   3.794  19.012  0.00  0.00    +0.000 OA
ENDBRANCH   5   6
ENDBRANCH   4   5
ENDBRANCH   2   4
ENDBRANCH   1   2
BRANCH   1  17
ATOM     17  C   UNL     1       7.500   5.806  16.662  0.00  0.00    +0.000 C 
BRANCH  17  19
ATOM     18  O   UNL     1       5.953   7.629  17.086  0.00  0.00    +0.000 OA
ATOM     19  C   UNL     1       7.111   7.230  17.102  0.00  0.00    +0.000 C 
ATOM     20  N   UNL     1       8.162   8.012  17.527  0.00  0.00    +0.000 N 
ATOM     21  H   UNL     1       9.026   7.534  17.768  0.00  0.00    +0.000 HD
BRANCH  20  22
ATOM     22  C   UNL     1       7.983   9.368  18.070  0.00  0.00    +0.000 C 
BRANCH  22  23
ATOM     23  C   UNL     1       9.204   9.932  18.834  0.00  0.00    +0.000 C 
BRANCH  23  24
ATOM     24  C   UNL     1       9.627  11.164  18.075  0.00  0.00    +0.000 A 
ATOM     25  C   UNL     1      10.972  11.482  17.837  0.00  0.00    +0.000 A 
ATOM     26  C   UNL     1      11.334  12.791  17.520  0.00  0.00    +0.000 A 
ATOM     27  C   UNL     1      10.370  13.778  17.555  0.00  0.00    +0.000 A 
ATOM     28  F   UNL     1      10.683  15.045  17.258  0.00  0.00    +0.000 F 
ATOM     29  C   UNL     1       9.046  13.460  17.790  0.00  0.00    +0.000 A 
ATOM     30  C   UNL     1       8.650  12.142  17.936  0.00  0.00    +0.000 A 
ENDBRANCH  23  24
ENDBRANCH  22  23
ENDBRANCH  20  22
ENDBRANCH  17  19
ENDBRANCH   1  17
TORSDOF 9
ENDMDL
MODEL 2
REMARK VINA RESULT:      -7.5      4.373      6.729
REMARK  Name = 
REMARK  9 active torsions:
REMARK  status: ('A' for Active; 'I' for Inactive)
REMARK    1  A    between atoms: C_2  and  C_3
REMARK    2  A    between atoms: C_3  and  O_4
REMARK    3  A    between atoms: O_4  and  C_5
REMARK    4  A    between atoms: C_5  and  C_7
REMARK    5  A    between atoms: C_7  and  C_8
REMARK    6  A    between atoms: C_8  and  N_9
REMARK    7  A    between atoms: N_20  and  C_21
REMARK    8  A    between atoms: C_21  and  C_22
REMARK    9  A    between atoms: C_22  and  C_23
REMARK                            x       y       z     vdW  Elec       q    Type
REMARK                         _______ _______ _______ _____ _____    ______ ____
ROOT
ATOM      1  O   UNL     1       0.856   4.020  19.987  0.00  0.00    +0.000 OA
ENDROOT
BRANCH   1   2
ATOM      2  C   UNL     1       1.411   2.941  19.363  0.00  0.00    +0.000 C 
ATOM      3  O   UNL     1       1.687   1.895  19.929  0.00  0.00    +0.000 OA
BRANCH   2   4
ATOM      4  C   UNL     1       1.721   3.256  17.906  0.00  0.00    +0.000 C 
BRANCH   4   5
ATOM      5  C   UNL     1       3.134   2.895  17.374  0.00  0.00    +0.000 C 
BRANCH   5   6
ATOM      6  N   UNL     1       4.265   3.811  17.605  0.00  0.00    +0.000 N 
ATOM      7  C   UNL     1       4.851   4.591  16.615  0.00  0.00    +0.000 C 
ATOM      8  O   UNL     1       4.686   4.484  15.409  0.00  0.00    +0.000 OA
ATOM      9  C   UNL     1       5.557   5.733  17.340  0.00  0.00    +0.000 C 
ATOM     10  C   UNL     1       6.508   6.814  16.875  0.00  0.00    +0.000 C 
ATOM     11  C   UNL     1       7.730   7.009  17.726  0.00  0.00    +0.000 C 
ATOM     12  C   UNL     1       7.929   6.433  18.920  0.00  0.00    +0.000 C 
ATOM     13  C   UNL     1       6.967   5.502  19.581  0.00  0.00    +0.000 C 
ATOM     14  C   UNL     1       5.714   5.254  18.757  0.00  0.00    +0.000 C 
ATOM     15  C   UNL     1       5.008   3.891  18.755  0.00  0.00    +0.000 C 
ATOM     16  O   UNL     1       5.012   3.101  19.685  0.00  0.00    +0.000 OA
ENDBRANCH   5   6
ENDBRANCH   4   5
ENDBRANCH   2   4
ENDBRANCH   1   2
BRANCH   1  17
ATOM     17  C   UNL     1       1.705   4.770  20.878  0.00  0.00    +0.000 C 
BRANCH  17  19
ATOM     18  O   UNL     1       2.383   6.462  19.275  0.00  0.00    +0.000 OA
ATOM     19  C   UNL     1       1.926   6.212  20.382  0.00  0.00    +0.000 C 
ATOM     20  N   UNL     1       1.557   7.193  21.275  0.00  0.00    +0.000 N 
ATOM     21  H   UNL     1       0.945   6.918  22.039  0.00  0.00    +0.000 HD
BRANCH  20  22
ATOM     22  C   UNL     1       1.607   8.628  20.952  0.00  0.00    +0.000 C 
BRANCH  22  23
ATOM     23  C   UNL     1       0.280   9.225  20.426  0.00  0.00    +0.000 C 
BRANCH  23  24
ATOM     24  C   UNL     1       0.675  10.341  19.494  0.00  0.00    +0.000 A 
ATOM     25  C   UNL     1       1.591  10.164  18.446  0.00  0.00    +0.000 A 
ATOM     26  C   UNL     1       2.238  11.267  17.890  0.00  0.00    +0.000 A 
ATOM     27  C   UNL     1       2.048  12.510  18.459  0.00  0.00    +0.000 A 
ATOM     28  F   UNL     1       2.655  13.590  17.952  0.00  0.00    +0.000 F 
ATOM     29  C   UNL     1       1.145  12.680  19.492  0.00  0.00    +0.000 A 
ATOM     30  C   UNL     1       0.372  11.622  19.937  0.00  0.00    +0.000 A 
ENDBRANCH  23  24
ENDBRANCH  22  23
ENDBRANCH  20  22
ENDBRANCH  17  19
ENDBRANCH   1  17
TORSDOF 9
ENDMDL
MODEL 3
REMARK VINA RESULT:      -7.4      2.233      2.890
REMARK  Name = 
REMARK  9 active torsions:
REMARK  status: ('A' for Active; 'I' for Inactive)
REMARK    1  A    between atoms: C_2  and  C_3
REMARK    2  A    between atoms: C_3  and  O_4
REMARK    3  A    between atoms: O_4  and  C_5
REMARK    4  A    between atoms: C_5  and  C_7
REMARK    5  A    between atoms: C_7  and  C_8
REMARK    6  A    between atoms: C_8  and  N_9
REMARK    7  A    between atoms: N_20  and  C_21
REMARK    8  A    between atoms: C_21  and  C_22
REMARK    9  A    between atoms: C_22  and  C_23
REMARK                            x       y       z     vdW  Elec       q    Type
REMARK                         _______ _______ _______ _____ _____    ______ ____
ROOT
ATOM      1  O   UNL     1       7.701   6.825  16.732  0.00  0.00    +0.000 OA
ENDROOT
BRANCH   1   2
ATOM      2  C   UNL     1       7.190   5.569  16.576  0.00  0.00    +0.000 C 
ATOM      3  O   UNL     1       7.866   4.553  16.591  0.00  0.00    +0.000 OA
BRANCH   2   4
ATOM      4  C   UNL     1       5.696   5.623  16.288  0.00  0.00    +0.000 C 
BRANCH   4   5
ATOM      5  C   UNL     1       4.901   4.290  16.352  0.00  0.00    +0.000 C 
BRANCH   5   6
ATOM      6  N   UNL     1       4.043   3.999  17.514  0.00  0.00    +0.000 N 
ATOM      7  C   UNL     1       4.487   3.997  18.831  0.00  0.00    +0.000 C 
ATOM      8  O   UNL     1       5.649   4.011  19.208  0.00  0.00    +0.000 OA
ATOM      9  C   UNL     1       3.246   4.196  19.695  0.00  0.00    +0.000 C 
ATOM     10  C   UNL     1       3.010   4.122  21.188  0.00  0.00    +0.000 C 
ATOM     11  C   UNL     1       1.807   3.328  21.612  0.00  0.00    +0.000 C 
ATOM     12  C   UNL     1       0.869   2.857  20.778  0.00  0.00    +0.000 C 
ATOM     13  C   UNL     1       0.885   3.043  19.297  0.00  0.00    +0.000 C 
ATOM     14  C   UNL     1       2.090   3.827  18.805  0.00  0.00    +0.000 C 
ATOM     15  C   UNL     1       2.760   3.517  17.460  0.00  0.00    +0.000 C 
ATOM     16  O   UNL     1       2.189   3.052  16.487  0.00  0.00    +0.000 OA
ENDBRANCH   5   6
ENDBRANCH   4   5
ENDBRANCH   2   4
ENDBRANCH   1   2
BRANCH   1  17
ATOM     17  C   UNL     1       7.816   7.324  18.079  0.00  0.00    +0.000 C 
BRANCH  17  19
ATOM     18  O   UNL     1       7.826   9.610  17.265  0.00  0.00    +0.000 OA
ATOM     19  C   UNL     1       8.212   8.812  18.109  0.00  0.00    +0.000 C 
ATOM     20  N   UNL     1       9.020   9.174  19.164  0.00  0.00    +0.000 N 
ATOM     21  H   UNL     1       9.067   8.534  19.952  0.00  0.00    +0.000 HD
BRANCH  20  22
ATOM     22  C   UNL     1       9.430  10.565  19.416  0.00  0.00    +0.000 C 
BRANCH  22  23
ATOM     23  C   UNL     1       9.340  11.014  20.894  0.00  0.00    +0.000 C 
BRANCH  23  24
ATOM     24  C   UNL     1       9.524  12.510  20.877  0.00  0.00    +0.000 A 
ATOM     25  C   UNL     1      10.465  13.148  20.056  0.00  0.00    +0.000 A 
ATOM     26  C   UNL     1      10.895  14.440  20.360  0.00  0.00    +0.000 A 
ATOM     27  C   UNL     1      10.468  15.028  21.533  0.00  0.00    +0.000 A 
ATOM     28  F   UNL     1      10.862  16.265  21.857  0.00  0.00    +0.000 F 
ATOM     29  C   UNL     1       9.540  14.395  22.339  0.00  0.00    +0.000 A 
ATOM     30  C   UNL     1       8.979  13.188  21.960  0.00  0.00    +0.000 A 
ENDBRANCH  23  24
ENDBRANCH  22  23
ENDBRANCH  20  22
ENDBRANCH  17  19
ENDBRANCH   1  17
TORSDOF 9
ENDMDL
MODEL 4
REMARK VINA RESULT:      -7.2      3.932      6.985
REMARK  Name = 
REMARK  9 active torsions:
REMARK  status: ('A' for Active; 'I' for Inactive)
REMARK    1  A    between atoms: C_2  and  C_3
REMARK    2  A    between atoms: C_3  and  O_4
REMARK    3  A    between atoms: O_4  and  C_5
REMARK    4  A    between atoms: C_5  and  C_7
REMARK    5  A    between atoms: C_7  and  C_8
REMARK    6  A    between atoms: C_8  and  N_9
REMARK    7  A    between atoms: N_20  and  C_21
REMARK    8  A    between atoms: C_21  and  C_22
REMARK    9  A    between atoms: C_22  and  C_23
REMARK                            x       y       z     vdW  Elec       q    Type
REMARK                         _______ _______ _______ _____ _____    ______ ____
ROOT
ATOM      1  O   UNL     1       0.749   2.529  19.386  0.00  0.00    +0.000 OA
ENDROOT
BRANCH   1   2
ATOM      2  C   UNL     1       1.902   2.341  18.680  0.00  0.00    +0.000 C 
ATOM      3  O   UNL     1       2.687   1.431  18.891  0.00  0.00    +0.000 OA
BRANCH   2   4
ATOM      4  C   UNL     1       2.113   3.464  17.674  0.00  0.00    +0.000 C 
BRANCH   4   5
ATOM      5  C   UNL     1       3.433   3.462  16.857  0.00  0.00    +0.000 C 
BRANCH   5   6
ATOM      6  N   UNL     1       4.555   4.325  17.267  0.00  0.00    +0.000 N 
ATOM      7  C   UNL     1       5.143   5.282  16.448  0.00  0.00    +0.000 C 
ATOM      8  O   UNL     1       4.989   5.403  15.242  0.00  0.00    +0.000 OA
ATOM      9  C   UNL     1       5.834   6.271  17.382  0.00  0.00    +0.000 C 
ATOM     10  C   UNL     1       6.780   7.426  17.139  0.00  0.00    +0.000 C 
ATOM     11  C   UNL     1       7.993   7.464  18.024  0.00  0.00    +0.000 C 
ATOM     12  C   UNL     1       8.187   6.675  19.090  0.00  0.00    +0.000 C 
ATOM     13  C   UNL     1       7.226   5.630  19.553  0.00  0.00    +0.000 C 
ATOM     14  C   UNL     1       5.982   5.534  18.686  0.00  0.00    +0.000 C 
ATOM     15  C   UNL     1       5.287   4.192  18.419  0.00  0.00    +0.000 C 
ATOM     16  O   UNL     1       5.290   3.240  19.183  0.00  0.00    +0.000 OA
ENDBRANCH   5   6
ENDBRANCH   4   5
ENDBRANCH   2   4
ENDBRANCH   1   2
BRANCH   1  17
ATOM     17  C   UNL     1       0.882   2.896  20.773  0.00  0.00    +0.000 C 
BRANCH  17  19
ATOM     18  O   UNL     1       2.913   4.004  21.509  0.00  0.00    +0.000 OA
ATOM     19  C   UNL     1       1.822   4.101  20.962  0.00  0.00    +0.000 C 
ATOM     20  N   UNL     1       1.346   5.291  20.455  0.00  0.00    +0.000 N 
ATOM     21  H   UNL     1       0.581   5.236  19.788  0.00  0.00    +0.000 HD
BRANCH  20  22
ATOM     22  C   UNL     1       2.135   6.533  20.457  0.00  0.00    +0.000 C 
BRANCH  22  23
ATOM     23  C   UNL     1       2.532   7.056  19.056  0.00  0.00    +0.000 C 
BRANCH  23  24
ATOM     24  C   UNL     1       1.812   8.371  18.892  0.00  0.00    +0.000 A 
ATOM     25  C   UNL     1       2.091   9.260  17.844  0.00  0.00    +0.000 A 
ATOM     26  C   UNL     1       1.731  10.603  17.954  0.00  0.00    +0.000 A 
ATOM     27  C   UNL     1       1.204  11.058  19.146  0.00  0.00    +0.000 A 
ATOM     28  F   UNL     1       0.849  12.341  19.287  0.00  0.00    +0.000 F 
ATOM     29  C   UNL     1       0.931  10.178  20.176  0.00  0.00    +0.000 A 
ATOM     30  C   UNL     1       1.126   8.817  20.014  0.00  0.00    +0.000 A 
ENDBRANCH  23  24
ENDBRANCH  22  23
ENDBRANCH  20  22
ENDBRANCH  17  19
ENDBRANCH   1  17
TORSDOF 9
ENDMDL
MODEL 5
REMARK VINA RESULT:      -7.2      4.004     10.875
REMARK  Name = 
REMARK  9 active torsions:
REMARK  status: ('A' for Active; 'I' for Inactive)
REMARK    1  A    between atoms: C_2  and  C_3
REMARK    2  A    between atoms: C_3  and  O_4
REMARK    3  A    between atoms: O_4  and  C_5
REMARK    4  A    between atoms: C_5  and  C_7
REMARK    5  A    between atoms: C_7  and  C_8
REMARK    6  A    between atoms: C_8  and  N_9
REMARK    7  A    between atoms: N_20  and  C_21
REMARK    8  A    between atoms: C_21  and  C_22
REMARK    9  A    between atoms: C_22  and  C_23
REMARK                            x       y       z     vdW  Elec       q    Type
REMARK                         _______ _______ _______ _____ _____    ______ ____
ROOT
ATOM      1  O   UNL     1       7.215   7.972  16.936  0.00  0.00    +0.000 OA
ENDROOT
BRANCH   1   2
ATOM      2  C   UNL     1       8.073   8.141  17.984  0.00  0.00    +0.000 C 
ATOM      3  O   UNL     1       8.425   7.239  18.727  0.00  0.00    +0.000 OA
BRANCH   2   4
ATOM      4  C   UNL     1       8.445   9.608  18.151  0.00  0.00    +0.000 C 
BRANCH   4   5
ATOM      5  C   UNL     1       9.260  10.007  19.411  0.00  0.00    +0.000 C 
BRANCH   5   6
ATOM      6  N   UNL     1       9.740  11.391  19.570  0.00  0.00    +0.000 N 
ATOM      7  C   UNL     1       9.291  12.264  20.554  0.00  0.00    +0.000 C 
ATOM      8  O   UNL     1       8.313  12.115  21.270  0.00  0.00    +0.000 OA
ATOM      9  C   UNL     1      10.380  13.322  20.709  0.00  0.00    +0.000 C 
ATOM     10  C   UNL     1      10.445  14.627  21.472  0.00  0.00    +0.000 C 
ATOM     11  C   UNL     1      10.978  15.800  20.699  0.00  0.00    +0.000 C 
ATOM     12  C   UNL     1      11.544  15.724  19.487  0.00  0.00    +0.000 C 
ATOM     13  C   UNL     1      11.723  14.457  18.716  0.00  0.00    +0.000 C 
ATOM     14  C   UNL     1      11.188  13.234  19.442  0.00  0.00    +0.000 C 
ATOM     15  C   UNL     1      10.541  12.067  18.685  0.00  0.00    +0.000 C 
ATOM     16  O   UNL     1      10.815  11.738  17.542  0.00  0.00    +0.000 OA
ENDBRANCH   5   6
ENDBRANCH   4   5
ENDBRANCH   2   4
ENDBRANCH   1   2
BRANCH   1  17
ATOM     17  C   UNL     1       5.934   7.380  17.226  0.00  0.00    +0.000 C 
BRANCH  17  19
ATOM     18  O   UNL     1       6.798   5.348  16.218  0.00  0.00    +0.000 OA
ATOM     19  C   UNL     1       5.880   5.897  16.812  0.00  0.00    +0.000 C 
ATOM     20  N   UNL     1       4.726   5.238  17.175  0.00  0.00    +0.000 N 
ATOM     21  H   UNL     1       4.148   5.675  17.888  0.00  0.00    +0.000 HD
BRANCH  20  22
ATOM     22  C   UNL     1       4.524   3.798  16.950  0.00  0.00    +0.000 C 
BRANCH  22  23
ATOM     23  C   UNL     1       3.058   3.318  17.070  0.00  0.00    +0.000 C 
BRANCH  23  24
ATOM     24  C   UNL     1       2.707   3.437  18.531  0.00  0.00    +0.000 A 
ATOM     25  C   UNL     1       3.492   2.869  19.546  0.00  0.00    +0.000 A 
ATOM     26  C   UNL     1       2.941   2.636  20.806  0.00  0.00    +0.000 A 
ATOM     27  C   UNL     1       1.594   2.866  21.000  0.00  0.00    +0.000 A 
ATOM     28  F   UNL     1       1.032   2.651  22.195  0.00  0.00    +0.000 F 
ATOM     29  C   UNL     1       0.825   3.425  19.997  0.00  0.00    +0.000 A 
ATOM     30  C   UNL     1       1.399   3.819  18.801  0.00  0.00    +0.000 A 
ENDBRANCH  23  24
ENDBRANCH  22  23
ENDBRANCH  20  22
ENDBRANCH  17  19
ENDBRANCH   1  17
TORSDOF 9
ENDMDL
MODEL 6
REMARK VINA RESULT:      -7.2      5.260      6.723
REMARK  Name = 
REMARK  9 active torsions:
REMARK  status: ('A' for Active; 'I' for Inactive)
REMARK    1  A    between atoms: C_2  and  C_3
REMARK    2  A    between atoms: C_3  and  O_4
REMARK    3  A    between atoms: O_4  and  C_5
REMARK    4  A    between atoms: C_5  and  C_7
REMARK    5  A    between atoms: C_7  and  C_8
REMARK    6  A    between atoms: C_8  and  N_9
REMARK    7  A    between atoms: N_20  and  C_21
REMARK    8  A    between atoms: C_21  and  C_22
REMARK    9  A    between atoms: C_22  and  C_23
REMARK                            x       y       z     vdW  Elec       q    Type
REMARK                         _______ _______ _______ _____ _____    ______ ____
ROOT
ATOM      1  O   UNL     1       4.878   7.357  17.402  0.00  0.00    +0.000 OA
ENDROOT
BRANCH   1   2
ATOM      2  C   UNL     1       5.637   6.836  16.394  0.00  0.00    +0.000 C 
ATOM      3  O   UNL     1       5.296   6.829  15.221  0.00  0.00    +0.000 OA
BRANCH   2   4
ATOM      4  C   UNL     1       6.901   6.190  16.943  0.00  0.00    +0.000 C 
BRANCH   4   5
ATOM      5  C   UNL     1       6.810   4.715  17.418  0.00  0.00    +0.000 C 
BRANCH   5   6
ATOM      6  N   UNL     1       5.530   4.176  17.909  0.00  0.00    +0.000 N 
ATOM      7  C   UNL     1       4.561   3.603  17.094  0.00  0.00    +0.000 C 
ATOM      8  O   UNL     1       4.511   3.653  15.874  0.00  0.00    +0.000 OA
ATOM      9  C   UNL     1       3.709   2.724  18.005  0.00  0.00    +0.000 C 
ATOM     10  C   UNL     1       2.413   1.972  17.790  0.00  0.00    +0.000 C 
ATOM     11  C   UNL     1       1.378   2.151  18.864  0.00  0.00    +0.000 C 
ATOM     12  C   UNL     1       1.592   2.763  20.037  0.00  0.00    +0.000 C 
ATOM     13  C   UNL     1       2.893   3.368  20.451  0.00  0.00    +0.000 C 
ATOM     14  C   UNL     1       3.978   3.231  19.396  0.00  0.00    +0.000 C 
ATOM     15  C   UNL     1       5.035   4.323  19.180  0.00  0.00    +0.000 C 
ATOM     16  O   UNL     1       5.442   5.081  20.045  0.00  0.00    +0.000 OA
ENDBRANCH   5   6
ENDBRANCH   4   5
ENDBRANCH   2   4
ENDBRANCH   1   2
BRANCH   1  17
ATOM     17  C   UNL     1       3.482   7.000  17.425  0.00  0.00    +0.000 C 
BRANCH  17  19
ATOM     18  O   UNL     1       2.328   9.134  17.365  0.00  0.00    +0.000 OA
ATOM     19  C   UNL     1       2.610   8.129  18.004  0.00  0.00    +0.000 C 
ATOM     20  N   UNL     1       2.162   7.912  19.289  0.00  0.00    +0.000 N 
ATOM     21  H   UNL     1       2.205   6.959  19.639  0.00  0.00    +0.000 HD
BRANCH  20  22
ATOM     22  C   UNL     1       1.244   8.830  19.981  0.00  0.00    +0.000 C 
BRANCH  22  23
ATOM     23  C   UNL     1       1.186   8.659  21.518  0.00  0.00    +0.000 C 
BRANCH  23  24
ATOM     24  C   UNL     1       0.495   9.893  22.040  0.00  0.00    +0.000 A 
ATOM     25  C   UNL     1      -0.461   9.848  23.065  0.00  0.00    +0.000 A 
ATOM     26  C   UNL     1      -1.360  10.902  23.228  0.00  0.00    +0.000 A 
ATOM     27  C   UNL     1      -1.365  11.925  22.302  0.00  0.00    +0.000 A 
ATOM     28  F   UNL     1      -2.216  12.951  22.426  0.00  0.00    +0.000 F 
ATOM     29  C   UNL     1      -0.421  11.965  21.293  0.00  0.00    +0.000 A 
ATOM     30  C   UNL     1       0.582  11.014  21.225  0.00  0.00    +0.000 A 
ENDBRANCH  23  24
ENDBRANCH  22  23
ENDBRANCH  20  22
ENDBRANCH  17  19
ENDBRANCH   1  17
TORSDOF 9
ENDMDL
MODEL 7
REMARK VINA RESULT:      -7.2      5.255      7.522
REMARK  Name = 
REMARK  9 active torsions:
REMARK  status: ('A' for Active; 'I' for Inactive)
REMARK    1  A    between atoms: C_2  and  C_3
REMARK    2  A    between atoms: C_3  and  O_4
REMARK    3  A    between atoms: O_4  and  C_5
REMARK    4  A    between atoms: C_5  and  C_7
REMARK    5  A    between atoms: C_7  and  C_8
REMARK    6  A    between atoms: C_8  and  N_9
REMARK    7  A    between atoms: N_20  and  C_21
REMARK    8  A    between atoms: C_21  and  C_22
REMARK    9  A    between atoms: C_22  and  C_23
REMARK                            x       y       z     vdW  Elec       q    Type
REMARK                         _______ _______ _______ _____ _____    ______ ____
ROOT
ATOM      1  O   UNL     1       1.398   4.322  18.934  0.00  0.00    +0.000 OA
ENDROOT
BRANCH   1   2
ATOM      2  C   UNL     1       1.214   2.971  18.895  0.00  0.00    +0.000 C 
ATOM      3  O   UNL     1       0.132   2.427  19.052  0.00  0.00    +0.000 OA
BRANCH   2   4
ATOM      4  C   UNL     1       2.542   2.246  18.726  0.00  0.00    +0.000 C 
BRANCH   4   5
ATOM      5  C   UNL     1       3.430   2.639  17.514  0.00  0.00    +0.000 C 
BRANCH   5   6
ATOM      6  N   UNL     1       4.481   3.659  17.672  0.00  0.00    +0.000 N 
ATOM      7  C   UNL     1       4.972   4.441  16.632  0.00  0.00    +0.000 C 
ATOM      8  O   UNL     1       4.786   4.265  15.438  0.00  0.00    +0.000 OA
ATOM      9  C   UNL     1       5.593   5.672  17.286  0.00  0.00    +0.000 C 
ATOM     10  C   UNL     1       6.433   6.809  16.747  0.00  0.00    +0.000 C 
ATOM     11  C   UNL     1       7.654   7.147  17.554  0.00  0.00    +0.000 C 
ATOM     12  C   UNL     1       7.933   6.647  18.765  0.00  0.00    +0.000 C 
ATOM     13  C   UNL     1       7.073   5.667  19.493  0.00  0.00    +0.000 C 
ATOM     14  C   UNL     1       5.826   5.274  18.719  0.00  0.00    +0.000 C 
ATOM     15  C   UNL     1       5.243   3.856  18.795  0.00  0.00    +0.000 C 
ATOM     16  O   UNL     1       5.340   3.113  19.758  0.00  0.00    +0.000 OA
ENDBRANCH   5   6
ENDBRANCH   4   5
ENDBRANCH   2   4
ENDBRANCH   1   2
BRANCH   1  17
ATOM     17  C   UNL     1       1.967   4.872  20.138  0.00  0.00    +0.000 C 
BRANCH  17  19
ATOM     18  O   UNL     1       2.599   7.022  19.204  0.00  0.00    +0.000 OA
ATOM     19  C   UNL     1       2.025   6.411  20.096  0.00  0.00    +0.000 C 
ATOM     20  N   UNL     1       1.370   7.043  21.130  0.00  0.00    +0.000 N 
ATOM     21  H   UNL     1       0.702   6.490  21.660  0.00  0.00    +0.000 HD
BRANCH  20  22
ATOM     22  C   UNL     1       1.235   8.505  21.216  0.00  0.00    +0.000 C 
BRANCH  22  23
ATOM     23  C   UNL     1       0.170   9.005  22.221  0.00  0.00    +0.000 C 
BRANCH  23  24
ATOM     24  C   UNL     1      -0.130  10.428  21.825  0.00  0.00    +0.000 A 
ATOM     25  C   UNL     1       0.669  11.147  20.924  0.00  0.00    +0.000 A 
ATOM     26  C   UNL     1       0.618  12.540  20.904  0.00  0.00    +0.000 A 
ATOM     27  C   UNL     1      -0.139  13.195  21.854  0.00  0.00    +0.000 A 
ATOM     28  F   UNL     1      -0.209  14.531  21.866  0.00  0.00    +0.000 F 
ATOM     29  C   UNL     1      -0.925  12.482  22.741  0.00  0.00    +0.000 A 
ATOM     30  C   UNL     1      -1.013  11.103  22.657  0.00  0.00    +0.000 A 
ENDBRANCH  23  24
ENDBRANCH  22  23
ENDBRANCH  20  22
ENDBRANCH  17  19
ENDBRANCH   1  17
TORSDOF 9
ENDMDL
MODEL 8
REMARK VINA RESULT:      -7.2      4.502      6.028
REMARK  Name = 
REMARK  9 active torsions:
REMARK  status: ('A' for Active; 'I' for Inactive)
REMARK    1  A    between atoms: C_2  and  C_3
REMARK    2  A    between atoms: C_3  and  O_4
REMARK    3  A    between atoms: O_4  and  C_5
REMARK    4  A    between atoms: C_5  and  C_7
REMARK    5  A    between atoms: C_7  and  C_8
REMARK    6  A    between atoms: C_8  and  N_9
REMARK    7  A    between atoms: N_20  and  C_21
REMARK    8  A    between atoms: C_21  and  C_22
REMARK    9  A    between atoms: C_22  and  C_23
REMARK                            x       y       z     vdW  Elec       q    Type
REMARK                         _______ _______ _______ _____ _____    ______ ____
ROOT
ATOM      1  O   UNL     1       5.572   6.647  15.787  0.00  0.00    +0.000 OA
ENDROOT
BRANCH   1   2
ATOM      2  C   UNL     1       6.244   5.460  15.815  0.00  0.00    +0.000 C 
ATOM      3  O   UNL     1       7.450   5.365  15.981  0.00  0.00    +0.000 OA
BRANCH   2   4
ATOM      4  C   UNL     1       5.307   4.297  15.517  0.00  0.00    +0.000 C 
BRANCH   4   5
ATOM      5  C   UNL     1       5.273   3.121  16.530  0.00  0.00    +0.000 C 
BRANCH   5   6
ATOM      6  N   UNL     1       4.268   3.105  17.607  0.00  0.00    +0.000 N 
ATOM      7  C   UNL     1       2.895   3.142  17.394  0.00  0.00    +0.000 C 
ATOM      8  O   UNL     1       2.327   3.410  16.346  0.00  0.00    +0.000 OA
ATOM      9  C   UNL     1       2.255   2.571  18.656  0.00  0.00    +0.000 C 
ATOM     10  C   UNL     1       0.823   2.489  19.136  0.00  0.00    +0.000 C 
ATOM     11  C   UNL     1       0.595   2.910  20.560  0.00  0.00    +0.000 C 
ATOM     12  C   UNL     1       1.567   3.169  21.446  0.00  0.00    +0.000 C 
ATOM     13  C   UNL     1       3.027   3.085  21.147  0.00  0.00    +0.000 C 
ATOM     14  C   UNL     1       3.322   2.677  19.713  0.00  0.00    +0.000 C 
ATOM     15  C   UNL     1       4.529   3.235  18.948  0.00  0.00    +0.000 C 
ATOM     16  O   UNL     1       5.577   3.592  19.461  0.00  0.00    +0.000 OA
ENDBRANCH   5   6
ENDBRANCH   4   5
ENDBRANCH   2   4
ENDBRANCH   1   2
BRANCH   1  17
ATOM     17  C   UNL     1       5.477   7.377  17.026  0.00  0.00    +0.000 C 
BRANCH  17  19
ATOM     18  O   UNL     1       3.756   6.269  18.331  0.00  0.00    +0.000 OA
ATOM     19  C   UNL     1       4.083   7.244  17.666  0.00  0.00    +0.000 C 
ATOM     20  N   UNL     1       3.240   8.311  17.444  0.00  0.00    +0.000 N 
ATOM     21  H   UNL     1       3.666   9.178  17.128  0.00  0.00    +0.000 HD
BRANCH  20  22
ATOM     22  C   UNL     1       1.902   8.412  18.046  0.00  0.00    +0.000 C 
BRANCH  22  23
ATOM     23  C   UNL     1       1.472   9.843  18.447  0.00  0.00    +0.000 C 
BRANCH  23  24
ATOM     24  C   UNL     1       0.722   9.697  19.746  0.00  0.00    +0.000 A 
ATOM     25  C   UNL     1      -0.001  10.749  20.326  0.00  0.00    +0.000 A 
ATOM     26  C   UNL     1      -0.316  10.715  21.684  0.00  0.00    +0.000 A 
ATOM     27  C   UNL     1       0.189   9.693  22.461  0.00  0.00    +0.000 A 
ATOM     28  F   UNL     1      -0.092   9.630  23.768  0.00  0.00    +0.000 F 
ATOM     29  C   UNL     1       0.901   8.657  21.886  0.00  0.00    +0.000 A 
ATOM     30  C   UNL     1       1.073   8.594  20.514  0.00  0.00    +0.000 A 
ENDBRANCH  23  24
ENDBRANCH  22  23
ENDBRANCH  20  22
ENDBRANCH  17  19
ENDBRANCH   1  17
TORSDOF 9
ENDMDL
MODEL 9
REMARK VINA RESULT:      -7.1      5.130      6.474
REMARK  Name = 
REMARK  9 active torsions:
REMARK  status: ('A' for Active; 'I' for Inactive)
REMARK    1  A    between atoms: C_2  and  C_3
REMARK    2  A    between atoms: C_3  and  O_4
REMARK    3  A    between atoms: O_4  and  C_5
REMARK    4  A    between atoms: C_5  and  C_7
REMARK    5  A    between atoms: C_7  and  C_8
REMARK    6  A    between atoms: C_8  and  N_9
REMARK    7  A    between atoms: N_20  and  C_21
REMARK    8  A    between atoms: C_21  and  C_22
REMARK    9  A    between atoms: C_22  and  C_23
REMARK                            x       y       z     vdW  Elec       q    Type
REMARK                         _______ _______ _______ _____ _____    ______ ____
ROOT
ATOM      1  O   UNL     1       5.734   6.700  17.516  0.00  0.00    +0.000 OA
ENDROOT
BRANCH   1   2
ATOM      2  C   UNL     1       6.454   5.727  16.886  0.00  0.00    +0.000 C 
ATOM      3  O   UNL     1       7.666   5.609  16.981  0.00  0.00    +0.000 OA
BRANCH   2   4
ATOM      4  C   UNL     1       5.561   4.885  15.986  0.00  0.00    +0.000 C 
BRANCH   4   5
ATOM      5  C   UNL     1       5.154   3.474  16.490  0.00  0.00    +0.000 C 
BRANCH   5   6
ATOM      6  N   UNL     1       4.197   3.335  17.602  0.00  0.00    +0.000 N 
ATOM      7  C   UNL     1       2.816   3.406  17.456  0.00  0.00    +0.000 C 
ATOM      8  O   UNL     1       2.206   3.799  16.473  0.00  0.00    +0.000 OA
ATOM      9  C   UNL     1       2.226   2.692  18.669  0.00  0.00    +0.000 C 
ATOM     10  C   UNL     1       0.816   2.562  19.200  0.00  0.00    +0.000 C 
ATOM     11  C   UNL     1       0.655   2.813  20.672  0.00  0.00    +0.000 C 
ATOM     12  C   UNL     1       1.667   2.959  21.538  0.00  0.00    +0.000 C 
ATOM     13  C   UNL     1       3.112   2.904  21.166  0.00  0.00    +0.000 C 
ATOM     14  C   UNL     1       3.339   2.666  19.682  0.00  0.00    +0.000 C 
ATOM     15  C   UNL     1       4.518   3.304  18.935  0.00  0.00    +0.000 C 
ATOM     16  O   UNL     1       5.591   3.593  19.440  0.00  0.00    +0.000 OA
ENDBRANCH   5   6
ENDBRANCH   4   5
ENDBRANCH   2   4
ENDBRANCH   1   2
BRANCH   1  17
ATOM     17  C   UNL     1       4.522   7.139  16.873  0.00  0.00    +0.000 C 
BRANCH  17  19
ATOM     18  O   UNL     1       3.224   6.565  18.842  0.00  0.00    +0.000 OA
ATOM     19  C   UNL     1       3.367   7.305  17.878  0.00  0.00    +0.000 C 
ATOM     20  N   UNL     1       2.517   8.357  17.614  0.00  0.00    +0.000 N 
ATOM     21  H   UNL     1       2.852   9.073  16.974  0.00  0.00    +0.000 HD
BRANCH  20  22
ATOM     22  C   UNL     1       1.410   8.734  18.506  0.00  0.00    +0.000 C 
BRANCH  22  23
ATOM     23  C   UNL     1       1.464  10.186  19.037  0.00  0.00    +0.000 C 
BRANCH  23  24
ATOM     24  C   UNL     1       0.167  10.826  18.610  0.00  0.00    +0.000 A 
ATOM     25  C   UNL     1      -0.234  12.094  19.055  0.00  0.00    +0.000 A 
ATOM     26  C   UNL     1      -1.577  12.464  18.990  0.00  0.00    +0.000 A 
ATOM     27  C   UNL     1      -2.509  11.529  18.589  0.00  0.00    +0.000 A 
ATOM     28  F   UNL     1      -3.807  11.850  18.516  0.00  0.00    +0.000 F 
ATOM     29  C   UNL     1      -2.109  10.280  18.151  0.00  0.00    +0.000 A 
ATOM     30  C   UNL     1      -0.766   9.962  18.051  0.00  0.00    +0.000 A 
ENDBRANCH  23  24
ENDBRANCH  22  23
ENDBRANCH  20  22
ENDBRANCH  17  19
ENDBRANCH   1  17
TORSDOF 9
ENDMDL
