MODEL 1
REMARK VINA RESULT:      -6.4      0.000      0.000
REMARK  Name = 
REMARK  4 active torsions:
REMARK  status: ('A' for Active; 'I' for Inactive)
REMARK    1  A    between atoms: C_1  and  C_2
REMARK    2  A    between atoms: C_2  and  N_3
REMARK    3  A    between atoms: C_5  and  C_6
REMARK    4  A    between atoms: C_14  and  C_15
REMARK                            x       y       z     vdW  Elec       q    Type
REMARK                         _______ _______ _______ _____ _____    ______ ____
ROOT
ATOM      1  C   UNL     1       4.284   5.916  17.489  0.00  0.00    +0.000 C 
ATOM      2  C   UNL     1       3.915   5.071  18.460  0.00  0.00    +0.000 C 
ATOM      3  S   UNL     1       2.525   5.337  19.465  0.00  0.00    +0.000 S 
ATOM      4  C   UNL     1       2.774   3.850  20.347  0.00  0.00    +0.000 C 
ATOM      5  S   UNL     1       1.834   3.268  21.580  0.00  0.00    +0.000 S 
ATOM      6  N   UNL     1       3.876   3.213  19.873  0.00  0.00    +0.000 N 
ATOM      7  C   UNL     1       4.577   3.793  18.851  0.00  0.00    +0.000 C 
ATOM      8  O   UNL     1       5.585   3.309  18.367  0.00  0.00    +0.000 OA
ATOM      9  H   UNL     1       4.190   2.334  20.258  0.00  0.00    +0.000 HD
ENDROOT
BRANCH   1  12
ATOM     10  N   UNL     1       6.637   5.216  14.915  0.00  0.00    +0.000 N 
ATOM     11  C   UNL     1       5.360   5.155  15.391  0.00  0.00    +0.000 A 
ATOM     12  C   UNL     1       5.396   5.760  16.623  0.00  0.00    +0.000 A 
ATOM     13  C   UNL     1       6.745   6.145  16.816  0.00  0.00    +0.000 A 
ATOM     14  C   UNL     1       7.359   6.842  17.973  0.00  0.00    +0.000 C 
ATOM     15  N   UNL     1       7.506   5.788  15.770  0.00  0.00    +0.000 NA
BRANCH  10  17
ATOM     16  C   UNL     1       6.170   3.654  13.072  0.00  0.00    +0.000 C 
ATOM     17  C   UNL     1       7.100   4.712  13.638  0.00  0.00    +0.000 C 
ENDBRANCH  10  17
ENDBRANCH   1  12
TORSDOF 2
ENDMDL
MODEL 2
REMARK VINA RESULT:      -6.1      1.042      1.042
REMARK  Name = 
REMARK  4 active torsions:
REMARK  status: ('A' for Active; 'I' for Inactive)
REMARK    1  A    between atoms: C_1  and  C_2
REMARK    2  A    between atoms: C_2  and  N_3
REMARK    3  A    between atoms: C_5  and  C_6
REMARK    4  A    between atoms: C_14  and  C_15
REMARK                            x       y       z     vdW  Elec       q    Type
REMARK                         _______ _______ _______ _____ _____    ______ ____
ROOT
ATOM      1  C   UNL     1       4.474   5.870  17.108  0.00  0.00    +0.000 C 
ATOM      2  C   UNL     1       3.696   5.059  17.836  0.00  0.00    +0.000 C 
ATOM      3  S   UNL     1       2.407   5.639  18.842  0.00  0.00    +0.000 S 
ATOM      4  C   UNL     1       1.958   4.027  19.342  0.00  0.00    +0.000 C 
ATOM      5  S   UNL     1       0.728   3.623  20.374  0.00  0.00    +0.000 S 
ATOM      6  N   UNL     1       2.778   3.118  18.753  0.00  0.00    +0.000 N 
ATOM      7  C   UNL     1       3.765   3.572  17.920  0.00  0.00    +0.000 C 
ATOM      8  O   UNL     1       4.558   2.839  17.357  0.00  0.00    +0.000 OA
ATOM      9  H   UNL     1       2.682   2.127  18.920  0.00  0.00    +0.000 HD
ENDROOT
BRANCH   1  12
ATOM     10  N   UNL     1       6.662   4.840  14.501  0.00  0.00    +0.000 N 
ATOM     11  C   UNL     1       5.411   5.188  14.919  0.00  0.00    +0.000 A 
ATOM     12  C   UNL     1       5.535   5.470  16.257  0.00  0.00    +0.000 A 
ATOM     13  C   UNL     1       6.900   5.250  16.565  0.00  0.00    +0.000 A 
ATOM     14  C   UNL     1       7.598   5.404  17.866  0.00  0.00    +0.000 C 
ATOM     15  N   UNL     1       7.582   4.842  15.485  0.00  0.00    +0.000 NA
BRANCH  10  17
ATOM     16  C   UNL     1       6.060   3.481  12.540  0.00  0.00    +0.000 C 
ATOM     17  C   UNL     1       7.041   4.463  13.153  0.00  0.00    +0.000 C 
ENDBRANCH  10  17
ENDBRANCH   1  12
TORSDOF 2
ENDMDL
MODEL 3
REMARK VINA RESULT:      -5.9      1.801      1.972
REMARK  Name = 
REMARK  4 active torsions:
REMARK  status: ('A' for Active; 'I' for Inactive)
REMARK    1  A    between atoms: C_1  and  C_2
REMARK    2  A    between atoms: C_2  and  N_3
REMARK    3  A    between atoms: C_5  and  C_6
REMARK    4  A    between atoms: C_14  and  C_15
REMARK                            x       y       z     vdW  Elec       q    Type
REMARK                         _______ _______ _______ _____ _____    ______ ____
ROOT
ATOM      1  C   UNL     1       4.981   3.215  16.831  0.00  0.00    +0.000 C 
ATOM      2  C   UNL     1       4.035   3.761  17.605  0.00  0.00    +0.000 C 
ATOM      3  S   UNL     1       2.982   2.821  18.616  0.00  0.00    +0.000 S 
ATOM      4  C   UNL     1       2.168   4.239  19.230  0.00  0.00    +0.000 C 
ATOM      5  S   UNL     1       0.934   4.265  20.333  0.00  0.00    +0.000 S 
ATOM      6  N   UNL     1       2.697   5.355  18.664  0.00  0.00    +0.000 N 
ATOM      7  C   UNL     1       3.714   5.209  17.759  0.00  0.00    +0.000 C 
ATOM      8  O   UNL     1       4.244   6.145  17.187  0.00  0.00    +0.000 OA
ATOM      9  H   UNL     1       2.356   6.278  18.888  0.00  0.00    +0.000 HD
ENDROOT
BRANCH   1  12
ATOM     10  N   UNL     1       6.879   4.718  14.225  0.00  0.00    +0.000 N 
ATOM     11  C   UNL     1       5.827   3.943  14.619  0.00  0.00    +0.000 A 
ATOM     12  C   UNL     1       5.883   3.916  15.991  0.00  0.00    +0.000 A 
ATOM     13  C   UNL     1       7.015   4.693  16.339  0.00  0.00    +0.000 A 
ATOM     14  C   UNL     1       7.551   5.006  17.687  0.00  0.00    +0.000 C 
ATOM     15  N   UNL     1       7.633   5.165  15.247  0.00  0.00    +0.000 NA
BRANCH  10  17
ATOM     16  C   UNL     1       7.011   3.885  11.914  0.00  0.00    +0.000 C 
ATOM     17  C   UNL     1       7.233   5.051  12.860  0.00  0.00    +0.000 C 
ENDBRANCH  10  17
ENDBRANCH   1  12
TORSDOF 2
ENDMDL
MODEL 4
REMARK VINA RESULT:      -5.9      2.070      3.479
REMARK  Name = 
REMARK  4 active torsions:
REMARK  status: ('A' for Active; 'I' for Inactive)
REMARK    1  A    between atoms: C_1  and  C_2
REMARK    2  A    between atoms: C_2  and  N_3
REMARK    3  A    between atoms: C_5  and  C_6
REMARK    4  A    between atoms: C_14  and  C_15
REMARK                            x       y       z     vdW  Elec       q    Type
REMARK                         _______ _______ _______ _____ _____    ______ ____
ROOT
ATOM      1  C   UNL     1       5.796   3.939  18.056  0.00  0.00    +0.000 C 
ATOM      2  C   UNL     1       4.466   3.870  18.194  0.00  0.00    +0.000 C 
ATOM      3  S   UNL     1       3.632   2.398  18.585  0.00  0.00    +0.000 S 
ATOM      4  C   UNL     1       2.073   3.184  18.592  0.00  0.00    +0.000 C 
ATOM      5  S   UNL     1       0.611   2.469  18.901  0.00  0.00    +0.000 S 
ATOM      6  N   UNL     1       2.221   4.503  18.301  0.00  0.00    +0.000 N 
ATOM      7  C   UNL     1       3.481   4.980  18.059  0.00  0.00    +0.000 C 
ATOM      8  O   UNL     1       3.716   6.142  17.777  0.00  0.00    +0.000 OA
ATOM      9  H   UNL     1       1.431   5.129  18.253  0.00  0.00    +0.000 HD
ENDROOT
BRANCH   1  12
ATOM     10  N   UNL     1       7.706   6.937  17.954  0.00  0.00    +0.000 N 
ATOM     11  C   UNL     1       7.084   5.961  18.677  0.00  0.00    +0.000 A 
ATOM     12  C   UNL     1       6.546   5.103  17.751  0.00  0.00    +0.000 A 
ATOM     13  C   UNL     1       6.881   5.650  16.489  0.00  0.00    +0.000 A 
ATOM     14  C   UNL     1       6.558   5.135  15.135  0.00  0.00    +0.000 C 
ATOM     15  N   UNL     1       7.576   6.789  16.622  0.00  0.00    +0.000 NA
BRANCH  10  17
ATOM     16  C   UNL     1       8.088   9.361  17.769  0.00  0.00    +0.000 C 
ATOM     17  C   UNL     1       8.432   8.071  18.492  0.00  0.00    +0.000 C 
ENDBRANCH  10  17
ENDBRANCH   1  12
TORSDOF 2
ENDMDL
MODEL 5
REMARK VINA RESULT:      -5.9      1.978      2.195
REMARK  Name = 
REMARK  4 active torsions:
REMARK  status: ('A' for Active; 'I' for Inactive)
REMARK    1  A    between atoms: C_1  and  C_2
REMARK    2  A    between atoms: C_2  and  N_3
REMARK    3  A    between atoms: C_5  and  C_6
REMARK    4  A    between atoms: C_14  and  C_15
REMARK                            x       y       z     vdW  Elec       q    Type
REMARK                         _______ _______ _______ _____ _____    ______ ____
ROOT
ATOM      1  C   UNL     1       4.596   3.919  17.392  0.00  0.00    +0.000 C 
ATOM      2  C   UNL     1       3.911   4.848  18.071  0.00  0.00    +0.000 C 
ATOM      3  S   UNL     1       2.742   4.455  19.292  0.00  0.00    +0.000 S 
ATOM      4  C   UNL     1       2.404   6.135  19.630  0.00  0.00    +0.000 C 
ATOM      5  S   UNL     1       1.333   6.718  20.749  0.00  0.00    +0.000 S 
ATOM      6  N   UNL     1       3.162   6.926  18.826  0.00  0.00    +0.000 N 
ATOM      7  C   UNL     1       4.011   6.329  17.934  0.00  0.00    +0.000 C 
ATOM      8  O   UNL     1       4.720   6.951  17.162  0.00  0.00    +0.000 OA
ATOM      9  H   UNL     1       3.107   7.934  18.867  0.00  0.00    +0.000 HD
ENDROOT
BRANCH   1  12
ATOM     10  N   UNL     1       6.557   4.365  14.458  0.00  0.00    +0.000 N 
ATOM     11  C   UNL     1       5.363   4.053  15.040  0.00  0.00    +0.000 A 
ATOM     12  C   UNL     1       5.572   4.163  16.393  0.00  0.00    +0.000 A 
ATOM     13  C   UNL     1       6.931   4.533  16.537  0.00  0.00    +0.000 A 
ATOM     14  C   UNL     1       7.701   4.791  17.779  0.00  0.00    +0.000 C 
ATOM     15  N   UNL     1       7.535   4.634  15.343  0.00  0.00    +0.000 NA
BRANCH  10  17
ATOM     16  C   UNL     1       6.027   3.361  12.275  0.00  0.00    +0.000 C 
ATOM     17  C   UNL     1       6.834   4.397  13.036  0.00  0.00    +0.000 C 
ENDBRANCH  10  17
ENDBRANCH   1  12
TORSDOF 2
ENDMDL
MODEL 6
REMARK VINA RESULT:      -5.8      1.439      1.644
REMARK  Name = 
REMARK  4 active torsions:
REMARK  status: ('A' for Active; 'I' for Inactive)
REMARK    1  A    between atoms: C_1  and  C_2
REMARK    2  A    between atoms: C_2  and  N_3
REMARK    3  A    between atoms: C_5  and  C_6
REMARK    4  A    between atoms: C_14  and  C_15
REMARK                            x       y       z     vdW  Elec       q    Type
REMARK                         _______ _______ _______ _____ _____    ______ ____
ROOT
ATOM      1  C   UNL     1       5.828   3.692  18.043  0.00  0.00    +0.000 C 
ATOM      2  C   UNL     1       4.605   3.855  18.563  0.00  0.00    +0.000 C 
ATOM      3  S   UNL     1       4.034   2.956  19.933  0.00  0.00    +0.000 S 
ATOM      4  C   UNL     1       2.490   3.773  19.932  0.00  0.00    +0.000 C 
ATOM      5  S   UNL     1       1.240   3.516  20.987  0.00  0.00    +0.000 S 
ATOM      6  N   UNL     1       2.448   4.676  18.918  0.00  0.00    +0.000 N 
ATOM      7  C   UNL     1       3.543   4.797  18.106  0.00  0.00    +0.000 C 
ATOM      8  O   UNL     1       3.599   5.567  17.163  0.00  0.00    +0.000 OA
ATOM      9  H   UNL     1       1.634   5.248  18.748  0.00  0.00    +0.000 HD
ENDROOT
BRANCH   1  12
ATOM     10  N   UNL     1       6.951   4.944  14.909  0.00  0.00    +0.000 N 
ATOM     11  C   UNL     1       6.304   3.982  15.629  0.00  0.00    +0.000 A 
ATOM     12  C   UNL     1       6.368   4.396  16.936  0.00  0.00    +0.000 A 
ATOM     13  C   UNL     1       7.087   5.616  16.913  0.00  0.00    +0.000 A 
ATOM     14  C   UNL     1       7.450   6.505  18.043  0.00  0.00    +0.000 C 
ATOM     15  N   UNL     1       7.460   5.935  15.665  0.00  0.00    +0.000 NA
BRANCH  10  17
ATOM     16  C   UNL     1       6.466   3.773  12.799  0.00  0.00    +0.000 C 
ATOM     17  C   UNL     1       7.139   4.956  13.472  0.00  0.00    +0.000 C 
ENDBRANCH  10  17
ENDBRANCH   1  12
TORSDOF 2
ENDMDL
MODEL 7
REMARK VINA RESULT:      -5.8      1.530      3.029
REMARK  Name = 
REMARK  4 active torsions:
REMARK  status: ('A' for Active; 'I' for Inactive)
REMARK    1  A    between atoms: C_1  and  C_2
REMARK    2  A    between atoms: C_2  and  N_3
REMARK    3  A    between atoms: C_5  and  C_6
REMARK    4  A    between atoms: C_14  and  C_15
REMARK                            x       y       z     vdW  Elec       q    Type
REMARK                         _______ _______ _______ _____ _____    ______ ____
ROOT
ATOM      1  C   UNL     1       4.131   5.686  17.023  0.00  0.00    +0.000 C 
ATOM      2  C   UNL     1       3.591   4.719  17.774  0.00  0.00    +0.000 C 
ATOM      3  S   UNL     1       1.915   4.277  17.682  0.00  0.00    +0.000 S 
ATOM      4  C   UNL     1       2.093   3.021  18.883  0.00  0.00    +0.000 C 
ATOM      5  S   UNL     1       0.901   2.017  19.442  0.00  0.00    +0.000 S 
ATOM      6  N   UNL     1       3.381   2.976  19.314  0.00  0.00    +0.000 N 
ATOM      7  C   UNL     1       4.279   3.861  18.781  0.00  0.00    +0.000 C 
ATOM      8  O   UNL     1       5.451   3.910  19.111  0.00  0.00    +0.000 OA
ATOM      9  H   UNL     1       3.685   2.316  20.015  0.00  0.00    +0.000 HD
ENDROOT
BRANCH   1  12
ATOM     10  N   UNL     1       7.346   7.118  17.542  0.00  0.00    +0.000 N 
ATOM     11  C   UNL     1       6.027   7.029  17.883  0.00  0.00    +0.000 A 
ATOM     12  C   UNL     1       5.490   6.094  17.033  0.00  0.00    +0.000 A 
ATOM     13  C   UNL     1       6.557   5.681  16.200  0.00  0.00    +0.000 A 
ATOM     14  C   UNL     1       6.550   4.685  15.100  0.00  0.00    +0.000 C 
ATOM     15  N   UNL     1       7.690   6.330  16.506  0.00  0.00    +0.000 NA
BRANCH  10  17
ATOM     16  C   UNL     1       8.111   9.438  17.839  0.00  0.00    +0.000 C 
ATOM     17  C   UNL     1       8.336   7.972  18.166  0.00  0.00    +0.000 C 
ENDBRANCH  10  17
ENDBRANCH   1  12
TORSDOF 2
ENDMDL
MODEL 8
REMARK VINA RESULT:      -5.8      3.749      4.863
REMARK  Name = 
REMARK  4 active torsions:
REMARK  status: ('A' for Active; 'I' for Inactive)
REMARK    1  A    between atoms: C_1  and  C_2
REMARK    2  A    between atoms: C_2  and  N_3
REMARK    3  A    between atoms: C_5  and  C_6
REMARK    4  A    between atoms: C_14  and  C_15
REMARK                            x       y       z     vdW  Elec       q    Type
REMARK                         _______ _______ _______ _____ _____    ______ ____
ROOT
ATOM      1  C   UNL     1       2.744   6.348  19.692  0.00  0.00    +0.000 C 
ATOM      2  C   UNL     1       2.160   7.544  19.548  0.00  0.00    +0.000 C 
ATOM      3  S   UNL     1       1.318   8.346  20.837  0.00  0.00    +0.000 S 
ATOM      4  C   UNL     1       0.943   9.732  19.844  0.00  0.00    +0.000 C 
ATOM      5  S   UNL     1       0.103  11.081  20.312  0.00  0.00    +0.000 S 
ATOM      6  N   UNL     1       1.447   9.553  18.595  0.00  0.00    +0.000 N 
ATOM      7  C   UNL     1       2.121   8.393  18.323  0.00  0.00    +0.000 C 
ATOM      8  O   UNL     1       2.596   8.133  17.232  0.00  0.00    +0.000 OA
ATOM      9  H   UNL     1       1.330  10.245  17.870  0.00  0.00    +0.000 HD
ENDROOT
BRANCH   1  12
ATOM     10  N   UNL     1       5.056   4.930  17.392  0.00  0.00    +0.000 N 
ATOM     11  C   UNL     1       4.795   5.786  18.422  0.00  0.00    +0.000 A 
ATOM     12  C   UNL     1       3.457   5.640  18.692  0.00  0.00    +0.000 A 
ATOM     13  C   UNL     1       2.985   4.682  17.762  0.00  0.00    +0.000 A 
ATOM     14  C   UNL     1       1.614   4.139  17.598  0.00  0.00    +0.000 C 
ATOM     15  N   UNL     1       3.970   4.266  16.952  0.00  0.00    +0.000 NA
BRANCH  10  17
ATOM     16  C   UNL     1       7.479   4.716  17.763  0.00  0.00    +0.000 C 
ATOM     17  C   UNL     1       6.342   4.720  16.757  0.00  0.00    +0.000 C 
ENDBRANCH  10  17
ENDBRANCH   1  12
TORSDOF 2
ENDMDL
MODEL 9
REMARK VINA RESULT:      -5.7      2.034      3.399
REMARK  Name = 
REMARK  4 active torsions:
REMARK  status: ('A' for Active; 'I' for Inactive)
REMARK    1  A    between atoms: C_1  and  C_2
REMARK    2  A    between atoms: C_2  and  N_3
REMARK    3  A    between atoms: C_5  and  C_6
REMARK    4  A    between atoms: C_14  and  C_15
REMARK                            x       y       z     vdW  Elec       q    Type
REMARK                         _______ _______ _______ _____ _____    ______ ____
ROOT
ATOM      1  C   UNL     1       5.838   4.203  18.502  0.00  0.00    +0.000 C 
ATOM      2  C   UNL     1       4.686   4.109  19.177  0.00  0.00    +0.000 C 
ATOM      3  S   UNL     1       4.037   2.597  19.730  0.00  0.00    +0.000 S 
ATOM      4  C   UNL     1       2.654   3.365  20.471  0.00  0.00    +0.000 C 
ATOM      5  S   UNL     1       1.430   2.610  21.291  0.00  0.00    +0.000 S 
ATOM      6  N   UNL     1       2.718   4.709  20.280  0.00  0.00    +0.000 N 
ATOM      7  C   UNL     1       3.778   5.220  19.581  0.00  0.00    +0.000 C 
ATOM      8  O   UNL     1       3.918   6.407  19.345  0.00  0.00    +0.000 OA
ATOM      9  H   UNL     1       2.004   5.331  20.631  0.00  0.00    +0.000 HD
ENDROOT
BRANCH   1  12
ATOM     10  N   UNL     1       7.636   7.215  17.915  0.00  0.00    +0.000 N 
ATOM     11  C   UNL     1       7.331   6.167  18.733  0.00  0.00    +0.000 A 
ATOM     12  C   UNL     1       6.436   5.399  18.029  0.00  0.00    +0.000 A 
ATOM     13  C   UNL     1       6.247   6.071  16.798  0.00  0.00    +0.000 A 
ATOM     14  C   UNL     1       5.387   5.690  15.650  0.00  0.00    +0.000 C 
ATOM     15  N   UNL     1       6.972   7.198  16.744  0.00  0.00    +0.000 NA
BRANCH  10  17
ATOM     16  C   UNL     1       7.970   9.652  17.854  0.00  0.00    +0.000 C 
ATOM     17  C   UNL     1       8.552   8.298  18.216  0.00  0.00    +0.000 C 
ENDBRANCH  10  17
ENDBRANCH   1  12
TORSDOF 2
ENDMDL
