MODEL 1
REMARK VINA RESULT:      -7.4      0.000      0.000
REMARK  Name = 
REMARK  7 active torsions:
REMARK  status: ('A' for Active; 'I' for Inactive)
REMARK    1  A    between atoms: C_1  and  C_2
REMARK    2  A    between atoms: C_3  and  N_4
REMARK    3  A    between atoms: C_5  and  C_7
REMARK    4  A    between atoms: C_7  and  S_8
REMARK    5  A    between atoms: S_8  and  C_9
REMARK    6  A    between atoms: N_19  and  O_20
REMARK    7  A    between atoms: O_20  and  S_21
REMARK                            x       y       z     vdW  Elec       q    Type
REMARK                         _______ _______ _______ _____ _____    ______ ____
ROOT
ATOM      1  N   UNL     1       3.448   5.577  19.748  0.00  0.00    +0.000 N 
ATOM      2  C   UNL     1       2.366   5.360  20.598  0.00  0.00    +0.000 C 
ATOM      3  O   UNL     1       2.262   4.351  21.282  0.00  0.00    +0.000 OA
ATOM      4  H   UNL     1       3.178   6.093  18.907  0.00  0.00    +0.000 HD
ENDROOT
BRANCH   1   7
ATOM      5  C   UNL     1       3.491   3.733  17.216  0.00  0.00    +0.000 C 
ATOM      6  C   UNL     1       4.658   3.804  18.161  0.00  0.00    +0.000 C 
ATOM      7  C   UNL     1       4.506   4.479  19.577  0.00  0.00    +0.000 C 
ATOM      8  C   UNL     1       5.949   4.992  19.197  0.00  0.00    +0.000 C 
ATOM      9  O   UNL     1       6.939   5.325  19.808  0.00  0.00    +0.000 OA
ATOM     10  N   UNL     1       5.598   4.907  17.877  0.00  0.00    +0.000 N 
BRANCH  10  11
ATOM     11  O   UNL     1       6.625   4.650  16.963  0.00  0.00    +0.000 OA
BRANCH  11  12
ATOM     12  S   UNL     1       6.827   5.912  15.919  0.00  0.00    +0.000 S 
ATOM     13  O   UNL     1       7.558   5.303  14.797  0.00  0.00    +0.000 OA
ATOM     14  O   UNL     1       5.487   6.354  15.611  0.00  0.00    +0.000 OA
ATOM     15  O   UNL     1       7.648   6.859  16.679  0.00  0.00    +0.000 OA
ENDBRANCH  11  12
ENDBRANCH  10  11
ENDBRANCH   1   7
BRANCH   2  16
ATOM     16  C   UNL     1       1.364   6.507  20.722  0.00  0.00    +0.000 C 
BRANCH  16  17
ATOM     17  S   UNL     1       1.959   7.938  19.783  0.00  0.00    +0.000 S 
BRANCH  17  18
ATOM     18  C   UNL     1       0.836   9.269  20.190  0.00  0.00    +0.000 A 
ATOM     19  C   UNL     1       0.403   9.587  21.472  0.00  0.00    +0.000 A 
ATOM     20  C   UNL     1      -0.518  10.615  21.613  0.00  0.00    +0.000 A 
ATOM     21 CL   UNL     1      -1.140  11.015  23.161  0.00  0.00    +0.000 Cl
ATOM     22  N   UNL     1      -1.020  11.342  20.603  0.00  0.00    +0.000 NA
ATOM     23  C   UNL     1      -0.575  11.020  19.377  0.00  0.00    +0.000 A 
ATOM     24 CL   UNL     1      -1.272  11.926  18.100  0.00  0.00    +0.000 Cl
ATOM     25  C   UNL     1       0.343  10.017  19.117  0.00  0.00    +0.000 A 
ENDBRANCH  17  18
ENDBRANCH  16  17
ENDBRANCH   2  16
TORSDOF 6
ENDMDL
MODEL 2
REMARK VINA RESULT:      -7.3      0.407      1.983
REMARK  Name = 
REMARK  7 active torsions:
REMARK  status: ('A' for Active; 'I' for Inactive)
REMARK    1  A    between atoms: C_1  and  C_2
REMARK    2  A    between atoms: C_3  and  N_4
REMARK    3  A    between atoms: C_5  and  C_7
REMARK    4  A    between atoms: C_7  and  S_8
REMARK    5  A    between atoms: S_8  and  C_9
REMARK    6  A    between atoms: N_19  and  O_20
REMARK    7  A    between atoms: O_20  and  S_21
REMARK                            x       y       z     vdW  Elec       q    Type
REMARK                         _______ _______ _______ _____ _____    ______ ____
ROOT
ATOM      1  N   UNL     1       3.569   5.814  19.897  0.00  0.00    +0.000 N 
ATOM      2  C   UNL     1       2.306   5.614  20.449  0.00  0.00    +0.000 C 
ATOM      3  O   UNL     1       1.925   4.517  20.834  0.00  0.00    +0.000 OA
ATOM      4  H   UNL     1       3.560   6.535  19.171  0.00  0.00    +0.000 HD
ENDROOT
BRANCH   1   7
ATOM      5  C   UNL     1       3.327   4.042  17.325  0.00  0.00    +0.000 C 
ATOM      6  C   UNL     1       4.524   3.960  18.232  0.00  0.00    +0.000 C 
ATOM      7  C   UNL     1       4.491   4.611  19.666  0.00  0.00    +0.000 C 
ATOM      8  C   UNL     1       5.970   4.971  19.249  0.00  0.00    +0.000 C 
ATOM      9  O   UNL     1       7.010   5.176  19.834  0.00  0.00    +0.000 OA
ATOM     10  N   UNL     1       5.571   4.958  17.940  0.00  0.00    +0.000 N 
BRANCH  10  11
ATOM     11  O   UNL     1       6.534   4.613  16.987  0.00  0.00    +0.000 OA
BRANCH  11  12
ATOM     12  S   UNL     1       6.816   5.859  15.941  0.00  0.00    +0.000 S 
ATOM     13  O   UNL     1       5.463   6.295  15.568  0.00  0.00    +0.000 OA
ATOM     14  O   UNL     1       7.582   6.816  16.706  0.00  0.00    +0.000 OA
ATOM     15  O   UNL     1       7.529   5.220  14.831  0.00  0.00    +0.000 OA
ENDBRANCH  11  12
ENDBRANCH  10  11
ENDBRANCH   1   7
BRANCH   2  16
ATOM     16  C   UNL     1       1.453   6.865  20.657  0.00  0.00    +0.000 C 
BRANCH  16  17
ATOM     17  S   UNL     1       1.845   8.087  19.377  0.00  0.00    +0.000 S 
BRANCH  17  18
ATOM     18  C   UNL     1       0.810   9.499  19.742  0.00  0.00    +0.000 A 
ATOM     19  C   UNL     1       0.494  10.512  18.845  0.00  0.00    +0.000 A 
ATOM     20  C   UNL     1      -0.276  11.572  19.304  0.00  0.00    +0.000 A 
ATOM     21 CL   UNL     1      -0.648  12.885  18.266  0.00  0.00    +0.000 Cl
ATOM     22  N   UNL     1      -0.754  11.692  20.552  0.00  0.00    +0.000 NA
ATOM     23  C   UNL     1      -0.441  10.693  21.393  0.00  0.00    +0.000 A 
ATOM     24 CL   UNL     1      -1.017  10.896  22.995  0.00  0.00    +0.000 Cl
ATOM     25  C   UNL     1       0.316   9.587  21.047  0.00  0.00    +0.000 A 
ENDBRANCH  17  18
ENDBRANCH  16  17
ENDBRANCH   2  16
TORSDOF 6
ENDMDL
MODEL 3
REMARK VINA RESULT:      -7.2      0.749      1.915
REMARK  Name = 
REMARK  7 active torsions:
REMARK  status: ('A' for Active; 'I' for Inactive)
REMARK    1  A    between atoms: C_1  and  C_2
REMARK    2  A    between atoms: C_3  and  N_4
REMARK    3  A    between atoms: C_5  and  C_7
REMARK    4  A    between atoms: C_7  and  S_8
REMARK    5  A    between atoms: S_8  and  C_9
REMARK    6  A    between atoms: N_19  and  O_20
REMARK    7  A    between atoms: O_20  and  S_21
REMARK                            x       y       z     vdW  Elec       q    Type
REMARK                         _______ _______ _______ _____ _____    ______ ____
ROOT
ATOM      1  N   UNL     1       3.602   5.658  19.690  0.00  0.00    +0.000 N 
ATOM      2  C   UNL     1       2.485   5.502  20.507  0.00  0.00    +0.000 C 
ATOM      3  O   UNL     1       2.278   4.479  21.146  0.00  0.00    +0.000 OA
ATOM      4  H   UNL     1       3.398   6.228  18.865  0.00  0.00    +0.000 HD
ENDROOT
BRANCH   1   7
ATOM      5  C   UNL     1       3.286   3.666  17.294  0.00  0.00    +0.000 C 
ATOM      6  C   UNL     1       4.541   3.713  18.121  0.00  0.00    +0.000 C 
ATOM      7  C   UNL     1       4.567   4.482  19.497  0.00  0.00    +0.000 C 
ATOM      8  C   UNL     1       5.997   4.870  18.953  0.00  0.00    +0.000 C 
ATOM      9  O   UNL     1       7.060   5.170  19.447  0.00  0.00    +0.000 OA
ATOM     10  N   UNL     1       5.516   4.729  17.679  0.00  0.00    +0.000 N 
BRANCH  10  11
ATOM     11  O   UNL     1       6.433   4.346  16.695  0.00  0.00    +0.000 OA
BRANCH  11  12
ATOM     12  S   UNL     1       6.218   5.213  15.307  0.00  0.00    +0.000 S 
ATOM     13  O   UNL     1       7.592   5.426  14.829  0.00  0.00    +0.000 OA
ATOM     14  O   UNL     1       5.399   4.369  14.468  0.00  0.00    +0.000 OA
ATOM     15  O   UNL     1       5.584   6.451  15.770  0.00  0.00    +0.000 OA
ENDBRANCH  11  12
ENDBRANCH  10  11
ENDBRANCH   1   7
BRANCH   2  16
ATOM     16  C   UNL     1       1.580   6.725  20.656  0.00  0.00    +0.000 C 
BRANCH  16  17
ATOM     17  S   UNL     1       1.947   7.916  19.340  0.00  0.00    +0.000 S 
BRANCH  17  18
ATOM     18  C   UNL     1       1.024   9.387  19.766  0.00  0.00    +0.000 A 
ATOM     19  C   UNL     1       0.889  10.509  18.958  0.00  0.00    +0.000 A 
ATOM     20  C   UNL     1       0.186  11.595  19.460  0.00  0.00    +0.000 A 
ATOM     21 CL   UNL     1       0.038  13.034  18.539  0.00  0.00    +0.000 Cl
ATOM     22  N   UNL     1      -0.390  11.643  20.671  0.00  0.00    +0.000 NA
ATOM     23  C   UNL     1      -0.253  10.540  21.426  0.00  0.00    +0.000 A 
ATOM     24 CL   UNL     1      -0.951  10.648  22.987  0.00  0.00    +0.000 Cl
ATOM     25  C   UNL     1       0.423   9.400  21.028  0.00  0.00    +0.000 A 
ENDBRANCH  17  18
ENDBRANCH  16  17
ENDBRANCH   2  16
TORSDOF 6
ENDMDL
MODEL 4
REMARK VINA RESULT:      -7.2      0.793      1.269
REMARK  Name = 
REMARK  7 active torsions:
REMARK  status: ('A' for Active; 'I' for Inactive)
REMARK    1  A    between atoms: C_1  and  C_2
REMARK    2  A    between atoms: C_3  and  N_4
REMARK    3  A    between atoms: C_5  and  C_7
REMARK    4  A    between atoms: C_7  and  S_8
REMARK    5  A    between atoms: S_8  and  C_9
REMARK    6  A    between atoms: N_19  and  O_20
REMARK    7  A    between atoms: O_20  and  S_21
REMARK                            x       y       z     vdW  Elec       q    Type
REMARK                         _______ _______ _______ _____ _____    ______ ____
ROOT
ATOM      1  N   UNL     1       3.365   5.214  19.647  0.00  0.00    +0.000 N 
ATOM      2  C   UNL     1       2.352   5.062  20.591  0.00  0.00    +0.000 C 
ATOM      3  O   UNL     1       2.238   4.052  21.272  0.00  0.00    +0.000 OA
ATOM      4  H   UNL     1       3.058   5.761  18.839  0.00  0.00    +0.000 HD
ENDROOT
BRANCH   1   7
ATOM      5  C   UNL     1       2.962   3.325  17.181  0.00  0.00    +0.000 C 
ATOM      6  C   UNL     1       4.245   3.337  17.965  0.00  0.00    +0.000 C 
ATOM      7  C   UNL     1       4.321   4.047  19.370  0.00  0.00    +0.000 C 
ATOM      8  C   UNL     1       5.731   4.457  18.793  0.00  0.00    +0.000 C 
ATOM      9  O   UNL     1       6.812   4.736  19.261  0.00  0.00    +0.000 OA
ATOM     10  N   UNL     1       5.206   4.371  17.532  0.00  0.00    +0.000 N 
BRANCH  10  11
ATOM     11  O   UNL     1       6.087   4.031  16.500  0.00  0.00    +0.000 OA
BRANCH  11  12
ATOM     12  S   UNL     1       6.007   5.118  15.261  0.00  0.00    +0.000 S 
ATOM     13  O   UNL     1       5.084   6.142  15.774  0.00  0.00    +0.000 OA
ATOM     14  O   UNL     1       7.368   5.559  15.069  0.00  0.00    +0.000 OA
ATOM     15  O   UNL     1       5.431   4.341  14.160  0.00  0.00    +0.000 OA
ENDBRANCH  11  12
ENDBRANCH  10  11
ENDBRANCH   1   7
BRANCH   2  16
ATOM     16  C   UNL     1       1.451   6.275  20.816  0.00  0.00    +0.000 C 
BRANCH  16  17
ATOM     17  S   UNL     1       1.997   7.642  19.759  0.00  0.00    +0.000 S 
BRANCH  17  18
ATOM     18  C   UNL     1       1.025   9.052  20.275  0.00  0.00    +0.000 A 
ATOM     19  C   UNL     1       0.442   9.208  21.527  0.00  0.00    +0.000 A 
ATOM     20  C   UNL     1      -0.332  10.337  21.750  0.00  0.00    +0.000 A 
ATOM     21 CL   UNL     1      -1.131  10.557  23.251  0.00  0.00    +0.000 Cl
ATOM     22  N   UNL     1      -0.555  11.307  20.850  0.00  0.00    +0.000 NA
ATOM     23  C   UNL     1       0.031  11.136  19.653  0.00  0.00    +0.000 A 
ATOM     24 CL   UNL     1      -0.314  12.360  18.504  0.00  0.00    +0.000 Cl
ATOM     25  C   UNL     1       0.825  10.052  19.319  0.00  0.00    +0.000 A 
ENDBRANCH  17  18
ENDBRANCH  16  17
ENDBRANCH   2  16
TORSDOF 6
ENDMDL
MODEL 5
REMARK VINA RESULT:      -7.0      1.894      2.157
REMARK  Name = 
REMARK  7 active torsions:
REMARK  status: ('A' for Active; 'I' for Inactive)
REMARK    1  A    between atoms: C_1  and  C_2
REMARK    2  A    between atoms: C_3  and  N_4
REMARK    3  A    between atoms: C_5  and  C_7
REMARK    4  A    between atoms: C_7  and  S_8
REMARK    5  A    between atoms: S_8  and  C_9
REMARK    6  A    between atoms: N_19  and  O_20
REMARK    7  A    between atoms: O_20  and  S_21
REMARK                            x       y       z     vdW  Elec       q    Type
REMARK                         _______ _______ _______ _____ _____    ______ ____
ROOT
ATOM      1  N   UNL     1       4.077   6.126  19.176  0.00  0.00    +0.000 N 
ATOM      2  C   UNL     1       2.790   6.143  19.710  0.00  0.00    +0.000 C 
ATOM      3  O   UNL     1       2.265   5.146  20.187  0.00  0.00    +0.000 OA
ATOM      4  H   UNL     1       4.173   6.768  18.386  0.00  0.00    +0.000 HD
ENDROOT
BRANCH   1   7
ATOM      5  C   UNL     1       3.372   3.986  16.999  0.00  0.00    +0.000 C 
ATOM      6  C   UNL     1       4.646   3.914  17.795  0.00  0.00    +0.000 C 
ATOM      7  C   UNL     1       4.839   4.798  19.085  0.00  0.00    +0.000 C 
ATOM      8  C   UNL     1       6.292   4.899  18.479  0.00  0.00    +0.000 C 
ATOM      9  O   UNL     1       7.406   5.074  18.920  0.00  0.00    +0.000 OA
ATOM     10  N   UNL     1       5.753   4.714  17.235  0.00  0.00    +0.000 N 
BRANCH  10  11
ATOM     11  O   UNL     1       6.564   4.097  16.277  0.00  0.00    +0.000 OA
BRANCH  11  12
ATOM     12  S   UNL     1       6.526   4.914  14.844  0.00  0.00    +0.000 S 
ATOM     13  O   UNL     1       5.583   6.011  15.109  0.00  0.00    +0.000 OA
ATOM     14  O   UNL     1       7.893   5.321  14.614  0.00  0.00    +0.000 OA
ATOM     15  O   UNL     1       5.991   3.927  13.901  0.00  0.00    +0.000 OA
ENDBRANCH  11  12
ENDBRANCH  10  11
ENDBRANCH   1   7
BRANCH   2  16
ATOM     16  C   UNL     1       2.104   7.507  19.776  0.00  0.00    +0.000 C 
BRANCH  16  17
ATOM     17  S   UNL     1       2.175   8.301  18.149  0.00  0.00    +0.000 S 
BRANCH  17  18
ATOM     18  C   UNL     1       1.080   9.711  18.265  0.00  0.00    +0.000 A 
ATOM     19  C   UNL     1       1.453  10.981  18.688  0.00  0.00    +0.000 A 
ATOM     20  C   UNL     1       0.467  11.953  18.778  0.00  0.00    +0.000 A 
ATOM     21 CL   UNL     1       0.849  13.523  19.353  0.00  0.00    +0.000 Cl
ATOM     22  N   UNL     1      -0.827  11.767  18.474  0.00  0.00    +0.000 NA
ATOM     23  C   UNL     1      -1.155  10.533  18.058  0.00  0.00    +0.000 A 
ATOM     24 CL   UNL     1      -2.822  10.307  17.729  0.00  0.00    +0.000 Cl
ATOM     25  C   UNL     1      -0.258   9.488  17.927  0.00  0.00    +0.000 A 
ENDBRANCH  17  18
ENDBRANCH  16  17
ENDBRANCH   2  16
TORSDOF 6
ENDMDL
MODEL 6
REMARK VINA RESULT:      -7.0      1.222      1.350
REMARK  Name = 
REMARK  7 active torsions:
REMARK  status: ('A' for Active; 'I' for Inactive)
REMARK    1  A    between atoms: C_1  and  C_2
REMARK    2  A    between atoms: C_3  and  N_4
REMARK    3  A    between atoms: C_5  and  C_7
REMARK    4  A    between atoms: C_7  and  S_8
REMARK    5  A    between atoms: S_8  and  C_9
REMARK    6  A    between atoms: N_19  and  O_20
REMARK    7  A    between atoms: O_20  and  S_21
REMARK                            x       y       z     vdW  Elec       q    Type
REMARK                         _______ _______ _______ _____ _____    ______ ____
ROOT
ATOM      1  N   UNL     1       3.997   5.708  19.363  0.00  0.00    +0.000 N 
ATOM      2  C   UNL     1       2.761   5.680  20.006  0.00  0.00    +0.000 C 
ATOM      3  O   UNL     1       2.276   4.646  20.446  0.00  0.00    +0.000 OA
ATOM      4  H   UNL     1       4.027   6.410  18.620  0.00  0.00    +0.000 HD
ENDROOT
BRANCH   1   7
ATOM      5  C   UNL     1       3.092   3.735  17.104  0.00  0.00    +0.000 C 
ATOM      6  C   UNL     1       4.433   3.609  17.773  0.00  0.00    +0.000 C 
ATOM      7  C   UNL     1       4.744   4.394  19.104  0.00  0.00    +0.000 C 
ATOM      8  C   UNL     1       6.137   4.547  18.378  0.00  0.00    +0.000 C 
ATOM      9  O   UNL     1       7.286   4.691  18.729  0.00  0.00    +0.000 OA
ATOM     10  N   UNL     1       5.486   4.453  17.177  0.00  0.00    +0.000 N 
BRANCH  10  11
ATOM     11  O   UNL     1       6.206   3.914  16.107  0.00  0.00    +0.000 OA
BRANCH  11  12
ATOM     12  S   UNL     1       6.276   4.969  14.839  0.00  0.00    +0.000 S 
ATOM     13  O   UNL     1       5.862   4.145  13.694  0.00  0.00    +0.000 OA
ATOM     14  O   UNL     1       5.364   6.031  15.194  0.00  0.00    +0.000 OA
ATOM     15  O   UNL     1       7.692   5.343  14.782  0.00  0.00    +0.000 OA
ENDBRANCH  11  12
ENDBRANCH  10  11
ENDBRANCH   1   7
BRANCH   2  16
ATOM     16  C   UNL     1       2.088   7.031  20.236  0.00  0.00    +0.000 C 
BRANCH  16  17
ATOM     17  S   UNL     1       2.146   8.007  18.710  0.00  0.00    +0.000 S 
BRANCH  17  18
ATOM     18  C   UNL     1       0.990   9.347  18.963  0.00  0.00    +0.000 A 
ATOM     19  C   UNL     1       0.945  10.165  20.087  0.00  0.00    +0.000 A 
ATOM     20  C   UNL     1      -0.054  11.125  20.156  0.00  0.00    +0.000 A 
ATOM     21 CL   UNL     1      -0.203  12.123  21.543  0.00  0.00    +0.000 Cl
ATOM     22  N   UNL     1      -0.982  11.338  19.211  0.00  0.00    +0.000 NA
ATOM     23  C   UNL     1      -0.908  10.541  18.132  0.00  0.00    +0.000 A 
ATOM     24 CL   UNL     1      -2.137  10.797  16.965  0.00  0.00    +0.000 Cl
ATOM     25  C   UNL     1       0.045   9.553  17.953  0.00  0.00    +0.000 A 
ENDBRANCH  17  18
ENDBRANCH  16  17
ENDBRANCH   2  16
TORSDOF 6
ENDMDL
MODEL 7
REMARK VINA RESULT:      -7.0      1.747      2.092
REMARK  Name = 
REMARK  7 active torsions:
REMARK  status: ('A' for Active; 'I' for Inactive)
REMARK    1  A    between atoms: C_1  and  C_2
REMARK    2  A    between atoms: C_3  and  N_4
REMARK    3  A    between atoms: C_5  and  C_7
REMARK    4  A    between atoms: C_7  and  S_8
REMARK    5  A    between atoms: S_8  and  C_9
REMARK    6  A    between atoms: N_19  and  O_20
REMARK    7  A    between atoms: O_20  and  S_21
REMARK                            x       y       z     vdW  Elec       q    Type
REMARK                         _______ _______ _______ _____ _____    ______ ____
ROOT
ATOM      1  N   UNL     1       3.442   6.489  19.568  0.00  0.00    +0.000 N 
ATOM      2  C   UNL     1       2.184   6.577  20.159  0.00  0.00    +0.000 C 
ATOM      3  O   UNL     1       1.668   5.635  20.746  0.00  0.00    +0.000 OA
ATOM      4  H   UNL     1       3.508   7.058  18.721  0.00  0.00    +0.000 HD
ENDROOT
BRANCH   1   7
ATOM      5  C   UNL     1       2.862   4.327  17.376  0.00  0.00    +0.000 C 
ATOM      6  C   UNL     1       4.069   4.242  18.271  0.00  0.00    +0.000 C 
ATOM      7  C   UNL     1       4.179   5.144  19.558  0.00  0.00    +0.000 C 
ATOM      8  C   UNL     1       5.677   5.204  19.067  0.00  0.00    +0.000 C 
ATOM      9  O   UNL     1       6.757   5.363  19.592  0.00  0.00    +0.000 OA
ATOM     10  N   UNL     1       5.233   5.009  17.787  0.00  0.00    +0.000 N 
BRANCH  10  11
ATOM     11  O   UNL     1       6.103   4.359  16.906  0.00  0.00    +0.000 OA
BRANCH  11  12
ATOM     12  S   UNL     1       6.196   5.152  15.461  0.00  0.00    +0.000 S 
ATOM     13  O   UNL     1       5.623   4.185  14.512  0.00  0.00    +0.000 OA
ATOM     14  O   UNL     1       5.423   6.357  15.652  0.00  0.00    +0.000 OA
ATOM     15  O   UNL     1       7.636   5.346  15.268  0.00  0.00    +0.000 OA
ENDBRANCH  11  12
ENDBRANCH  10  11
ENDBRANCH   1   7
BRANCH   2  16
ATOM     16  C   UNL     1       1.522   7.954  20.137  0.00  0.00    +0.000 C 
BRANCH  16  17
ATOM     17  S   UNL     1       1.848   8.759  18.547  0.00  0.00    +0.000 S 
BRANCH  17  18
ATOM     18  C   UNL     1       0.855  10.247  18.560  0.00  0.00    +0.000 A 
ATOM     19  C   UNL     1      -0.529  10.286  18.449  0.00  0.00    +0.000 A 
ATOM     20  C   UNL     1      -1.147  11.528  18.418  0.00  0.00    +0.000 A 
ATOM     21 CL   UNL     1      -2.846  11.647  18.218  0.00  0.00    +0.000 Cl
ATOM     22  N   UNL     1      -0.509  12.706  18.499  0.00  0.00    +0.000 NA
ATOM     23  C   UNL     1       0.828  12.637  18.617  0.00  0.00    +0.000 A 
ATOM     24 CL   UNL     1       1.623  14.154  18.664  0.00  0.00    +0.000 Cl
ATOM     25  C   UNL     1       1.549  11.456  18.662  0.00  0.00    +0.000 A 
ENDBRANCH  17  18
ENDBRANCH  16  17
ENDBRANCH   2  16
TORSDOF 6
ENDMDL
MODEL 8
REMARK VINA RESULT:      -7.0      1.820      2.278
REMARK  Name = 
REMARK  7 active torsions:
REMARK  status: ('A' for Active; 'I' for Inactive)
REMARK    1  A    between atoms: C_1  and  C_2
REMARK    2  A    between atoms: C_3  and  N_4
REMARK    3  A    between atoms: C_5  and  C_7
REMARK    4  A    between atoms: C_7  and  S_8
REMARK    5  A    between atoms: S_8  and  C_9
REMARK    6  A    between atoms: N_19  and  O_20
REMARK    7  A    between atoms: O_20  and  S_21
REMARK                            x       y       z     vdW  Elec       q    Type
REMARK                         _______ _______ _______ _____ _____    ______ ____
ROOT
ATOM      1  N   UNL     1       3.853   6.242  19.403  0.00  0.00    +0.000 N 
ATOM      2  C   UNL     1       2.564   6.280  19.930  0.00  0.00    +0.000 C 
ATOM      3  O   UNL     1       2.027   5.294  20.417  0.00  0.00    +0.000 OA
ATOM      4  H   UNL     1       3.959   6.873  18.604  0.00  0.00    +0.000 HD
ENDROOT
BRANCH   1   7
ATOM      5  C   UNL     1       3.211   4.124  17.186  0.00  0.00    +0.000 C 
ATOM      6  C   UNL     1       4.451   4.032  18.031  0.00  0.00    +0.000 C 
ATOM      7  C   UNL     1       4.602   4.906  19.334  0.00  0.00    +0.000 C 
ATOM      8  C   UNL     1       6.080   4.994  18.787  0.00  0.00    +0.000 C 
ATOM      9  O   UNL     1       7.177   5.152  19.274  0.00  0.00    +0.000 OA
ATOM     10  N   UNL     1       5.588   4.822  17.521  0.00  0.00    +0.000 N 
BRANCH  10  11
ATOM     11  O   UNL     1       6.431   4.202  16.593  0.00  0.00    +0.000 OA
BRANCH  11  12
ATOM     12  S   UNL     1       6.409   4.991  15.143  0.00  0.00    +0.000 S 
ATOM     13  O   UNL     1       5.557   6.159  15.411  0.00  0.00    +0.000 OA
ATOM     14  O   UNL     1       7.794   5.291  14.866  0.00  0.00    +0.000 OA
ATOM     15  O   UNL     1       5.776   4.027  14.237  0.00  0.00    +0.000 OA
ENDBRANCH  11  12
ENDBRANCH  10  11
ENDBRANCH   1   7
BRANCH   2  16
ATOM     16  C   UNL     1       1.891   7.651  19.974  0.00  0.00    +0.000 C 
BRANCH  16  17
ATOM     17  S   UNL     1       1.983   8.425  18.338  0.00  0.00    +0.000 S 
BRANCH  17  18
ATOM     18  C   UNL     1       0.826   9.788  18.396  0.00  0.00    +0.000 A 
ATOM     19  C   UNL     1      -0.512   9.718  18.030  0.00  0.00    +0.000 A 
ATOM     20  C   UNL     1      -1.264  10.883  18.078  0.00  0.00    +0.000 A 
ATOM     21 CL   UNL     1      -2.904  10.878  17.578  0.00  0.00    +0.000 Cl
ATOM     22  N   UNL     1      -0.800  12.081  18.465  0.00  0.00    +0.000 NA
ATOM     23  C   UNL     1       0.494  12.116  18.824  0.00  0.00    +0.000 A 
ATOM     24 CL   UNL     1       1.075  13.668  19.262  0.00  0.00    +0.000 Cl
ATOM     25  C   UNL     1       1.337  11.019  18.819  0.00  0.00    +0.000 A 
ENDBRANCH  17  18
ENDBRANCH  16  17
ENDBRANCH   2  16
TORSDOF 6
ENDMDL
MODEL 9
REMARK VINA RESULT:      -6.9      1.170      2.280
REMARK  Name = 
REMARK  7 active torsions:
REMARK  status: ('A' for Active; 'I' for Inactive)
REMARK    1  A    between atoms: C_1  and  C_2
REMARK    2  A    between atoms: C_3  and  N_4
REMARK    3  A    between atoms: C_5  and  C_7
REMARK    4  A    between atoms: C_7  and  S_8
REMARK    5  A    between atoms: S_8  and  C_9
REMARK    6  A    between atoms: N_19  and  O_20
REMARK    7  A    between atoms: O_20  and  S_21
REMARK                            x       y       z     vdW  Elec       q    Type
REMARK                         _______ _______ _______ _____ _____    ______ ____
ROOT
ATOM      1  N   UNL     1       3.439   6.544  19.536  0.00  0.00    +0.000 N 
ATOM      2  C   UNL     1       2.198   6.734  20.140  0.00  0.00    +0.000 C 
ATOM      3  O   UNL     1       1.643   5.856  20.787  0.00  0.00    +0.000 OA
ATOM      4  H   UNL     1       3.520   7.060  18.656  0.00  0.00    +0.000 HD
ENDROOT
BRANCH   1   7
ATOM      5  C   UNL     1       2.793   4.336  17.409  0.00  0.00    +0.000 C 
ATOM      6  C   UNL     1       3.972   4.220  18.335  0.00  0.00    +0.000 C 
ATOM      7  C   UNL     1       4.102   5.162  19.591  0.00  0.00    +0.000 C 
ATOM      8  C   UNL     1       5.612   5.125  19.135  0.00  0.00    +0.000 C 
ATOM      9  O   UNL     1       6.686   5.245  19.680  0.00  0.00    +0.000 OA
ATOM     10  N   UNL     1       5.187   4.906  17.853  0.00  0.00    +0.000 N 
BRANCH  10  11
ATOM     11  O   UNL     1       6.041   4.178  17.017  0.00  0.00    +0.000 OA
BRANCH  11  12
ATOM     12  S   UNL     1       6.390   5.019  15.640  0.00  0.00    +0.000 S 
ATOM     13  O   UNL     1       7.555   5.829  16.029  0.00  0.00    +0.000 OA
ATOM     14  O   UNL     1       6.652   4.005  14.645  0.00  0.00    +0.000 OA
ATOM     15  O   UNL     1       5.189   5.829  15.418  0.00  0.00    +0.000 OA
ENDBRANCH  11  12
ENDBRANCH  10  11
ENDBRANCH   1   7
BRANCH   2  16
ATOM     16  C   UNL     1       1.611   8.142  20.049  0.00  0.00    +0.000 C 
BRANCH  16  17
ATOM     17  S   UNL     1       0.629   8.486  21.533  0.00  0.00    +0.000 S 
BRANCH  17  18
ATOM     18  C   UNL     1      -0.231  10.015  21.183  0.00  0.00    +0.000 A 
ATOM     19  C   UNL     1      -0.638  10.434  19.923  0.00  0.00    +0.000 A 
ATOM     20  C   UNL     1      -1.243  11.678  19.813  0.00  0.00    +0.000 A 
ATOM     21 CL   UNL     1      -1.711  12.282  18.277  0.00  0.00    +0.000 Cl
ATOM     22  N   UNL     1      -1.480  12.511  20.837  0.00  0.00    +0.000 NA
ATOM     23  C   UNL     1      -1.087  12.075  22.045  0.00  0.00    +0.000 A 
ATOM     24 CL   UNL     1      -1.352  13.179  23.329  0.00  0.00    +0.000 Cl
ATOM     25  C   UNL     1      -0.477  10.854  22.275  0.00  0.00    +0.000 A 
ENDBRANCH  17  18
ENDBRANCH  16  17
ENDBRANCH   2  16
TORSDOF 6
ENDMDL
