MODEL 1
REMARK VINA RESULT:      -8.7      0.000      0.000
REMARK  Name = 
REMARK  8 active torsions:
REMARK  status: ('A' for Active; 'I' for Inactive)
REMARK    1  A    between atoms: C_1  and  C_2
REMARK    2  A    between atoms: C_6  and  S_7
REMARK    3  A    between atoms: S_7  and  N_10
REMARK    4  A    between atoms: N_10  and  C_11
REMARK    5  A    between atoms: N_19  and  C_20
REMARK    6  A    between atoms: C_20  and  C_21
REMARK    7  A    between atoms: C_21  and  C_22
REMARK    8  A    between atoms: C_22  and  O_24
REMARK                            x       y       z     vdW  Elec       q    Type
REMARK                         _______ _______ _______ _____ _____    ______ ____
ROOT
ATOM      1  C   UNL     1       4.443   5.630  16.446  0.00  0.00    +0.000 A 
ATOM      2  C   UNL     1       4.261   4.517  17.258  0.00  0.00    +0.000 A 
ATOM      3  C   UNL     1       3.510   4.597  18.441  0.00  0.00    +0.000 A 
ATOM      4  C   UNL     1       2.941   5.836  18.791  0.00  0.00    +0.000 A 
ATOM      5  C   UNL     1       3.092   6.953  17.958  0.00  0.00    +0.000 A 
ATOM      6  C   UNL     1       3.849   6.848  16.774  0.00  0.00    +0.000 A 
ATOM      7  C   UNL     1       2.378   8.022  18.548  0.00  0.00    +0.000 A 
ATOM      8  C   UNL     1       1.855   7.570  19.743  0.00  0.00    +0.000 A 
ATOM      9  N   UNL     1       2.182   6.238  19.890  0.00  0.00    +0.000 N 
ATOM     10  C   UNL     1       1.026   8.398  20.673  0.00  0.00    +0.000 C 
ATOM     11  C   UNL     1       1.165   9.892  20.319  0.00  0.00    +0.000 C 
ATOM     12  C   UNL     1       1.073  10.136  18.803  0.00  0.00    +0.000 C 
ATOM     13  C   UNL     1       2.203   9.419  18.051  0.00  0.00    +0.000 C 
ENDROOT
BRANCH   1  14
ATOM     14  N   UNL     1       5.213   5.523  15.254  0.00  0.00    +0.000 N 
ATOM     15  H   UNL     1       4.754   5.093  14.453  0.00  0.00    +0.000 HD
BRANCH  14  16
ATOM     16  S   UNL     1       6.828   5.027  15.369  0.00  0.00    +0.000 S 
ATOM     17  O   UNL     1       7.584   5.586  14.267  0.00  0.00    +0.000 OA
ATOM     18  O   UNL     1       6.790   3.600  15.604  0.00  0.00    +0.000 OA
BRANCH  16  24
ATOM     19  C   UNL     1       8.299   9.256  18.149  0.00  0.00    +0.000 C 
ATOM     20  C   UNL     1       8.066   7.774  18.100  0.00  0.00    +0.000 A 
ATOM     21  C   UNL     1       8.291   6.974  19.228  0.00  0.00    +0.000 A 
ATOM     22  C   UNL     1       8.080   5.595  19.176  0.00  0.00    +0.000 A 
ATOM     23  C   UNL     1       7.631   4.997  17.999  0.00  0.00    +0.000 A 
ATOM     24  C   UNL     1       7.387   5.793  16.877  0.00  0.00    +0.000 A 
ATOM     25  C   UNL     1       7.624   7.172  16.914  0.00  0.00    +0.000 A 
ENDBRANCH  16  24
ENDBRANCH  14  16
ENDBRANCH   1  14
BRANCH   9  26
ATOM     26  C   UNL     1       1.745   5.383  20.985  0.00  0.00    +0.000 C 
BRANCH  26  27
ATOM     27  C   UNL     1       0.914   4.187  20.536  0.00  0.00    +0.000 C 
BRANCH  27  28
ATOM     28  C   UNL     1       1.517   2.895  21.023  0.00  0.00    +0.000 C 
ATOM     29  O   UNL     1       1.861   2.667  22.171  0.00  0.00    +0.000 OA
BRANCH  28  30
ATOM     30  O   UNL     1       1.642   1.979  20.033  0.00  0.00    +0.000 OA
ATOM     31  H   UNL     1       0.802   1.562  19.760  0.00  0.00    +0.000 HD
ENDBRANCH  28  30
ENDBRANCH  27  28
ENDBRANCH  26  27
ENDBRANCH   9  26
TORSDOF 7
ENDMDL
MODEL 2
REMARK VINA RESULT:      -8.4      3.596      7.652
REMARK  Name = 
REMARK  8 active torsions:
REMARK  status: ('A' for Active; 'I' for Inactive)
REMARK    1  A    between atoms: C_1  and  C_2
REMARK    2  A    between atoms: C_6  and  S_7
REMARK    3  A    between atoms: S_7  and  N_10
REMARK    4  A    between atoms: N_10  and  C_11
REMARK    5  A    between atoms: N_19  and  C_20
REMARK    6  A    between atoms: C_20  and  C_21
REMARK    7  A    between atoms: C_21  and  C_22
REMARK    8  A    between atoms: C_22  and  O_24
REMARK                            x       y       z     vdW  Elec       q    Type
REMARK                         _______ _______ _______ _____ _____    ______ ____
ROOT
ATOM      1  C   UNL     1       2.259   8.335  17.944  0.00  0.00    +0.000 A 
ATOM      2  C   UNL     1       3.491   8.184  17.317  0.00  0.00    +0.000 A 
ATOM      3  C   UNL     1       4.267   7.032  17.512  0.00  0.00    +0.000 A 
ATOM      4  C   UNL     1       3.770   6.024  18.361  0.00  0.00    +0.000 A 
ATOM      5  C   UNL     1       2.513   6.156  18.967  0.00  0.00    +0.000 A 
ATOM      6  C   UNL     1       1.751   7.322  18.755  0.00  0.00    +0.000 A 
ATOM      7  C   UNL     1       2.277   4.977  19.713  0.00  0.00    +0.000 A 
ATOM      8  C   UNL     1       3.395   4.177  19.602  0.00  0.00    +0.000 A 
ATOM      9  N   UNL     1       4.302   4.801  18.770  0.00  0.00    +0.000 N 
ATOM     10  C   UNL     1       3.544   2.835  20.244  0.00  0.00    +0.000 C 
ATOM     11  C   UNL     1       2.472   2.647  21.336  0.00  0.00    +0.000 C 
ATOM     12  C   UNL     1       1.084   3.110  20.865  0.00  0.00    +0.000 C 
ATOM     13  C   UNL     1       1.079   4.608  20.523  0.00  0.00    +0.000 C 
ENDROOT
BRANCH   1  14
ATOM     14  N   UNL     1       1.494   9.516  17.733  0.00  0.00    +0.000 N 
ATOM     15  H   UNL     1       1.861  10.182  17.054  0.00  0.00    +0.000 HD
BRANCH  14  16
ATOM     16  S   UNL     1       0.839  10.315  19.074  0.00  0.00    +0.000 S 
ATOM     17  O   UNL     1       1.523  11.577  19.267  0.00  0.00    +0.000 OA
ATOM     18  O   UNL     1       0.773   9.328  20.131  0.00  0.00    +0.000 OA
BRANCH  16  24
ATOM     19  C   UNL     1      -3.186   9.800  15.710  0.00  0.00    +0.000 C 
ATOM     20  C   UNL     1      -2.646  10.392  16.979  0.00  0.00    +0.000 A 
ATOM     21  C   UNL     1      -3.442  11.223  17.778  0.00  0.00    +0.000 A 
ATOM     22  C   UNL     1      -2.934  11.778  18.955  0.00  0.00    +0.000 A 
ATOM     23  C   UNL     1      -1.627  11.500  19.354  0.00  0.00    +0.000 A 
ATOM     24  C   UNL     1      -0.836  10.657  18.572  0.00  0.00    +0.000 A 
ATOM     25  C   UNL     1      -1.330  10.120  17.376  0.00  0.00    +0.000 A 
ENDBRANCH  16  24
ENDBRANCH  14  16
ENDBRANCH   1  14
BRANCH   9  26
ATOM     26  C   UNL     1       5.575   4.238  18.343  0.00  0.00    +0.000 C 
BRANCH  26  27
ATOM     27  C   UNL     1       5.784   4.270  16.833  0.00  0.00    +0.000 C 
BRANCH  27  28
ATOM     28  C   UNL     1       7.215   4.598  16.492  0.00  0.00    +0.000 C 
ATOM     29  O   UNL     1       8.192   4.228  17.123  0.00  0.00    +0.000 OA
BRANCH  28  30
ATOM     30  O   UNL     1       7.317   5.366  15.382  0.00  0.00    +0.000 OA
ATOM     31  H   UNL     1       8.175   5.296  14.920  0.00  0.00    +0.000 HD
ENDBRANCH  28  30
ENDBRANCH  27  28
ENDBRANCH  26  27
ENDBRANCH   9  26
TORSDOF 7
ENDMDL
MODEL 3
REMARK VINA RESULT:      -8.4      3.581      8.059
REMARK  Name = 
REMARK  8 active torsions:
REMARK  status: ('A' for Active; 'I' for Inactive)
REMARK    1  A    between atoms: C_1  and  C_2
REMARK    2  A    between atoms: C_6  and  S_7
REMARK    3  A    between atoms: S_7  and  N_10
REMARK    4  A    between atoms: N_10  and  C_11
REMARK    5  A    between atoms: N_19  and  C_20
REMARK    6  A    between atoms: C_20  and  C_21
REMARK    7  A    between atoms: C_21  and  C_22
REMARK    8  A    between atoms: C_22  and  O_24
REMARK                            x       y       z     vdW  Elec       q    Type
REMARK                         _______ _______ _______ _____ _____    ______ ____
ROOT
ATOM      1  C   UNL     1       1.721   8.477  19.482  0.00  0.00    +0.000 A 
ATOM      2  C   UNL     1       2.366   8.636  18.261  0.00  0.00    +0.000 A 
ATOM      3  C   UNL     1       3.126   7.596  17.702  0.00  0.00    +0.000 A 
ATOM      4  C   UNL     1       3.221   6.381  18.406  0.00  0.00    +0.000 A 
ATOM      5  C   UNL     1       2.544   6.204  19.620  0.00  0.00    +0.000 A 
ATOM      6  C   UNL     1       1.786   7.262  20.162  0.00  0.00    +0.000 A 
ATOM      7  C   UNL     1       2.794   4.882  20.057  0.00  0.00    +0.000 A 
ATOM      8  C   UNL     1       3.653   4.295  19.150  0.00  0.00    +0.000 A 
ATOM      9  N   UNL     1       3.906   5.196  18.137  0.00  0.00    +0.000 N 
ATOM     10  C   UNL     1       4.160   2.891  19.249  0.00  0.00    +0.000 C 
ATOM     11  C   UNL     1       3.917   2.339  20.667  0.00  0.00    +0.000 C 
ATOM     12  C   UNL     1       2.507   2.671  21.182  0.00  0.00    +0.000 C 
ATOM     13  C   UNL     1       2.289   4.188  21.278  0.00  0.00    +0.000 C 
ENDROOT
BRANCH   1  14
ATOM     14  N   UNL     1       0.961   9.549  20.029  0.00  0.00    +0.000 N 
ATOM     15  H   UNL     1       1.259  10.490  19.781  0.00  0.00    +0.000 HD
BRANCH  14  16
ATOM     16  S   UNL     1       0.489   9.468  21.653  0.00  0.00    +0.000 S 
ATOM     17  O   UNL     1       1.665   9.365  22.493  0.00  0.00    +0.000 OA
ATOM     18  O   UNL     1      -0.564   8.477  21.712  0.00  0.00    +0.000 OA
BRANCH  16  24
ATOM     19  C   UNL     1      -3.246  12.498  23.810  0.00  0.00    +0.000 C 
ATOM     20  C   UNL     1      -2.021  12.394  22.949  0.00  0.00    +0.000 A 
ATOM     21  C   UNL     1      -1.463  13.533  22.356  0.00  0.00    +0.000 A 
ATOM     22  C   UNL     1      -0.327  13.432  21.550  0.00  0.00    +0.000 A 
ATOM     23  C   UNL     1       0.273  12.192  21.335  0.00  0.00    +0.000 A 
ATOM     24  C   UNL     1      -0.268  11.055  21.940  0.00  0.00    +0.000 A 
ATOM     25  C   UNL     1      -1.424  11.146  22.726  0.00  0.00    +0.000 A 
ENDBRANCH  16  24
ENDBRANCH  14  16
ENDBRANCH   1  14
BRANCH   9  26
ATOM     26  C   UNL     1       4.704   4.922  16.950  0.00  0.00    +0.000 C 
BRANCH  26  27
ATOM     27  C   UNL     1       6.059   5.620  16.947  0.00  0.00    +0.000 C 
BRANCH  27  28
ATOM     28  C   UNL     1       7.073   4.836  17.739  0.00  0.00    +0.000 C 
ATOM     29  O   UNL     1       7.147   4.808  18.957  0.00  0.00    +0.000 OA
BRANCH  28  30
ATOM     30  O   UNL     1       7.922   4.140  16.945  0.00  0.00    +0.000 OA
ATOM     31  H   UNL     1       7.826   3.170  17.004  0.00  0.00    +0.000 HD
ENDBRANCH  28  30
ENDBRANCH  27  28
ENDBRANCH  26  27
ENDBRANCH   9  26
TORSDOF 7
ENDMDL
MODEL 4
REMARK VINA RESULT:      -8.4      3.643      7.721
REMARK  Name = 
REMARK  8 active torsions:
REMARK  status: ('A' for Active; 'I' for Inactive)
REMARK    1  A    between atoms: C_1  and  C_2
REMARK    2  A    between atoms: C_6  and  S_7
REMARK    3  A    between atoms: S_7  and  N_10
REMARK    4  A    between atoms: N_10  and  C_11
REMARK    5  A    between atoms: N_19  and  C_20
REMARK    6  A    between atoms: C_20  and  C_21
REMARK    7  A    between atoms: C_21  and  C_22
REMARK    8  A    between atoms: C_22  and  O_24
REMARK                            x       y       z     vdW  Elec       q    Type
REMARK                         _______ _______ _______ _____ _____    ______ ____
ROOT
ATOM      1  C   UNL     1       2.059   8.242  17.943  0.00  0.00    +0.000 A 
ATOM      2  C   UNL     1       3.314   8.183  17.348  0.00  0.00    +0.000 A 
ATOM      3  C   UNL     1       4.168   7.090  17.565  0.00  0.00    +0.000 A 
ATOM      4  C   UNL     1       3.726   6.049  18.402  0.00  0.00    +0.000 A 
ATOM      5  C   UNL     1       2.448   6.088  18.976  0.00  0.00    +0.000 A 
ATOM      6  C   UNL     1       1.607   7.195  18.742  0.00  0.00    +0.000 A 
ATOM      7  C   UNL     1       2.279   4.895  19.718  0.00  0.00    +0.000 A 
ATOM      8  C   UNL     1       3.456   4.179  19.636  0.00  0.00    +0.000 A 
ATOM      9  N   UNL     1       4.335   4.869  18.827  0.00  0.00    +0.000 N 
ATOM     10  C   UNL     1       3.688   2.851  20.285  0.00  0.00    +0.000 C 
ATOM     11  C   UNL     1       2.605   2.585  21.349  0.00  0.00    +0.000 C 
ATOM     12  C   UNL     1       1.198   2.945  20.844  0.00  0.00    +0.000 C 
ATOM     13  C   UNL     1       1.092   4.438  20.499  0.00  0.00    +0.000 C 
ENDROOT
BRANCH   1  14
ATOM     14  N   UNL     1       1.215   9.364  17.710  0.00  0.00    +0.000 N 
ATOM     15  H   UNL     1       1.323   9.838  16.815  0.00  0.00    +0.000 HD
BRANCH  14  16
ATOM     16  S   UNL     1       0.975  10.478  18.963  0.00  0.00    +0.000 S 
ATOM     17  O   UNL     1       1.780  11.658  18.720  0.00  0.00    +0.000 OA
ATOM     18  O   UNL     1       1.099   9.726  20.193  0.00  0.00    +0.000 OA
BRANCH  16  24
ATOM     19  C   UNL     1      -3.293  13.150  20.518  0.00  0.00    +0.000 C 
ATOM     20  C   UNL     1      -2.673  12.172  19.564  0.00  0.00    +0.000 A 
ATOM     21  C   UNL     1      -3.430  11.594  18.537  0.00  0.00    +0.000 A 
ATOM     22  C   UNL     1      -2.851  10.679  17.655  0.00  0.00    +0.000 A 
ATOM     23  C   UNL     1      -1.505  10.338  17.781  0.00  0.00    +0.000 A 
ATOM     24  C   UNL     1      -0.741  10.926  18.792  0.00  0.00    +0.000 A 
ATOM     25  C   UNL     1      -1.322  11.823  19.697  0.00  0.00    +0.000 A 
ENDBRANCH  16  24
ENDBRANCH  14  16
ENDBRANCH   1  14
BRANCH   9  26
ATOM     26  C   UNL     1       5.656   4.400  18.433  0.00  0.00    +0.000 C 
BRANCH  26  27
ATOM     27  C   UNL     1       5.824   4.231  16.927  0.00  0.00    +0.000 C 
BRANCH  27  28
ATOM     28  C   UNL     1       7.202   4.650  16.485  0.00  0.00    +0.000 C 
ATOM     29  O   UNL     1       7.447   5.374  15.534  0.00  0.00    +0.000 OA
BRANCH  28  30
ATOM     30  O   UNL     1       8.175   4.132  17.271  0.00  0.00    +0.000 OA
ATOM     31  H   UNL     1       9.033   4.005  16.822  0.00  0.00    +0.000 HD
ENDBRANCH  28  30
ENDBRANCH  27  28
ENDBRANCH  26  27
ENDBRANCH   9  26
TORSDOF 7
ENDMDL
MODEL 5
REMARK VINA RESULT:      -8.2      3.545      5.793
REMARK  Name = 
REMARK  8 active torsions:
REMARK  status: ('A' for Active; 'I' for Inactive)
REMARK    1  A    between atoms: C_1  and  C_2
REMARK    2  A    between atoms: C_6  and  S_7
REMARK    3  A    between atoms: S_7  and  N_10
REMARK    4  A    between atoms: N_10  and  C_11
REMARK    5  A    between atoms: N_19  and  C_20
REMARK    6  A    between atoms: C_20  and  C_21
REMARK    7  A    between atoms: C_21  and  C_22
REMARK    8  A    between atoms: C_22  and  O_24
REMARK                            x       y       z     vdW  Elec       q    Type
REMARK                         _______ _______ _______ _____ _____    ______ ____
ROOT
ATOM      1  C   UNL     1       2.290   7.426  19.578  0.00  0.00    +0.000 A 
ATOM      2  C   UNL     1       2.357   8.081  18.353  0.00  0.00    +0.000 A 
ATOM      3  C   UNL     1       1.645   9.269  18.126  0.00  0.00    +0.000 A 
ATOM      4  C   UNL     1       0.856   9.788  19.170  0.00  0.00    +0.000 A 
ATOM      5  C   UNL     1       0.812   9.150  20.417  0.00  0.00    +0.000 A 
ATOM      6  C   UNL     1       1.538   7.959  20.623  0.00  0.00    +0.000 A 
ATOM      7  C   UNL     1      -0.019   9.925  21.261  0.00  0.00    +0.000 A 
ATOM      8  C   UNL     1      -0.511  10.977  20.516  0.00  0.00    +0.000 A 
ATOM      9  N   UNL     1       0.027  10.908  19.248  0.00  0.00    +0.000 N 
ATOM     10  C   UNL     1      -1.429  12.033  21.043  0.00  0.00    +0.000 C 
ATOM     11  C   UNL     1      -2.048  11.578  22.380  0.00  0.00    +0.000 C 
ATOM     12  C   UNL     1      -1.001  10.950  23.315  0.00  0.00    +0.000 C 
ATOM     13  C   UNL     1      -0.375   9.694  22.692  0.00  0.00    +0.000 C 
ENDROOT
BRANCH   1  14
ATOM     14  N   UNL     1       3.019   6.221  19.780  0.00  0.00    +0.000 N 
ATOM     15  H   UNL     1       4.001   6.319  20.031  0.00  0.00    +0.000 HD
BRANCH  14  16
ATOM     16  S   UNL     1       2.792   4.940  18.696  0.00  0.00    +0.000 S 
ATOM     17  O   UNL     1       1.662   5.228  17.837  0.00  0.00    +0.000 OA
ATOM     18  O   UNL     1       2.840   3.733  19.492  0.00  0.00    +0.000 OA
BRANCH  16  24
ATOM     19  C   UNL     1       7.473   7.004  17.428  0.00  0.00    +0.000 C 
ATOM     20  C   UNL     1       6.413   5.975  17.161  0.00  0.00    +0.000 A 
ATOM     21  C   UNL     1       6.566   5.039  16.131  0.00  0.00    +0.000 A 
ATOM     22  C   UNL     1       5.574   4.088  15.881  0.00  0.00    +0.000 A 
ATOM     23  C   UNL     1       4.421   4.054  16.664  0.00  0.00    +0.000 A 
ATOM     24  C   UNL     1       4.273   4.974  17.705  0.00  0.00    +0.000 A 
ATOM     25  C   UNL     1       5.250   5.947  17.943  0.00  0.00    +0.000 A 
ENDBRANCH  16  24
ENDBRANCH  14  16
ENDBRANCH   1  14
BRANCH   9  26
ATOM     26  C   UNL     1      -0.187  11.886  18.190  0.00  0.00    +0.000 C 
BRANCH  26  27
ATOM     27  C   UNL     1       0.515  13.217  18.434  0.00  0.00    +0.000 C 
BRANCH  27  28
ATOM     28  C   UNL     1       2.009  13.036  18.501  0.00  0.00    +0.000 C 
ATOM     29  O   UNL     1       2.699  13.233  19.488  0.00  0.00    +0.000 OA
BRANCH  28  30
ATOM     30  O   UNL     1       2.532  12.618  17.324  0.00  0.00    +0.000 OA
ATOM     31  H   UNL     1       3.493  12.444  17.348  0.00  0.00    +0.000 HD
ENDBRANCH  28  30
ENDBRANCH  27  28
ENDBRANCH  26  27
ENDBRANCH   9  26
TORSDOF 7
ENDMDL
MODEL 6
REMARK VINA RESULT:      -8.2      3.903      7.966
REMARK  Name = 
REMARK  8 active torsions:
REMARK  status: ('A' for Active; 'I' for Inactive)
REMARK    1  A    between atoms: C_1  and  C_2
REMARK    2  A    between atoms: C_6  and  S_7
REMARK    3  A    between atoms: S_7  and  N_10
REMARK    4  A    between atoms: N_10  and  C_11
REMARK    5  A    between atoms: N_19  and  C_20
REMARK    6  A    between atoms: C_20  and  C_21
REMARK    7  A    between atoms: C_21  and  C_22
REMARK    8  A    between atoms: C_22  and  O_24
REMARK                            x       y       z     vdW  Elec       q    Type
REMARK                         _______ _______ _______ _____ _____    ______ ____
ROOT
ATOM      1  C   UNL     1       1.543   8.649  19.671  0.00  0.00    +0.000 A 
ATOM      2  C   UNL     1       2.111   8.877  18.423  0.00  0.00    +0.000 A 
ATOM      3  C   UNL     1       2.860   7.882  17.775  0.00  0.00    +0.000 A 
ATOM      4  C   UNL     1       3.026   6.641  18.417  0.00  0.00    +0.000 A 
ATOM      5  C   UNL     1       2.427   6.395  19.660  0.00  0.00    +0.000 A 
ATOM      6  C   UNL     1       1.678   7.408  20.292  0.00  0.00    +0.000 A 
ATOM      7  C   UNL     1       2.734   5.062  20.022  0.00  0.00    +0.000 A 
ATOM      8  C   UNL     1       3.550   4.537  19.041  0.00  0.00    +0.000 A 
ATOM      9  N   UNL     1       3.721   5.487  18.056  0.00  0.00    +0.000 N 
ATOM     10  C   UNL     1       4.096   3.144  19.048  0.00  0.00    +0.000 C 
ATOM     11  C   UNL     1       3.951   2.525  20.452  0.00  0.00    +0.000 C 
ATOM     12  C   UNL     1       2.567   2.798  21.063  0.00  0.00    +0.000 C 
ATOM     13  C   UNL     1       2.319   4.303  21.239  0.00  0.00    +0.000 C 
ENDROOT
BRANCH   1  14
ATOM     14  N   UNL     1       0.793   9.676  20.309  0.00  0.00    +0.000 N 
ATOM     15  H   UNL     1      -0.057   9.387  20.790  0.00  0.00    +0.000 HD
BRANCH  14  16
ATOM     16  S   UNL     1       0.563  11.143  19.496  0.00  0.00    +0.000 S 
ATOM     17  O   UNL     1       1.591  11.302  18.487  0.00  0.00    +0.000 OA
ATOM     18  O   UNL     1       0.361  12.140  20.524  0.00  0.00    +0.000 OA
BRANCH  16  24
ATOM     19  C   UNL     1      -4.584  12.146  18.965  0.00  0.00    +0.000 C 
ATOM     20  C   UNL     1      -3.368  11.408  18.487  0.00  0.00    +0.000 A 
ATOM     21  C   UNL     1      -3.444  10.529  17.399  0.00  0.00    +0.000 A 
ATOM     22  C   UNL     1      -2.312   9.839  16.961  0.00  0.00    +0.000 A 
ATOM     23  C   UNL     1      -1.086  10.026  17.599  0.00  0.00    +0.000 A 
ATOM     24  C   UNL     1      -1.000  10.915  18.671  0.00  0.00    +0.000 A 
ATOM     25  C   UNL     1      -2.138  11.589  19.133  0.00  0.00    +0.000 A 
ENDBRANCH  16  24
ENDBRANCH  14  16
ENDBRANCH   1  14
BRANCH   9  26
ATOM     26  C   UNL     1       4.453   5.285  16.813  0.00  0.00    +0.000 C 
BRANCH  26  27
ATOM     27  C   UNL     1       5.925   5.672  16.898  0.00  0.00    +0.000 C 
BRANCH  27  28
ATOM     28  C   UNL     1       6.812   4.470  16.705  0.00  0.00    +0.000 C 
ATOM     29  O   UNL     1       7.974   4.386  17.069  0.00  0.00    +0.000 OA
BRANCH  28  30
ATOM     30  O   UNL     1       6.177   3.457  16.070  0.00  0.00    +0.000 OA
ATOM     31  H   UNL     1       5.337   3.181  16.487  0.00  0.00    +0.000 HD
ENDBRANCH  28  30
ENDBRANCH  27  28
ENDBRANCH  26  27
ENDBRANCH   9  26
TORSDOF 7
ENDMDL
MODEL 7
REMARK VINA RESULT:      -8.1      4.036      8.272
REMARK  Name = 
REMARK  8 active torsions:
REMARK  status: ('A' for Active; 'I' for Inactive)
REMARK    1  A    between atoms: C_1  and  C_2
REMARK    2  A    between atoms: C_6  and  S_7
REMARK    3  A    between atoms: S_7  and  N_10
REMARK    4  A    between atoms: N_10  and  C_11
REMARK    5  A    between atoms: N_19  and  C_20
REMARK    6  A    between atoms: C_20  and  C_21
REMARK    7  A    between atoms: C_21  and  C_22
REMARK    8  A    between atoms: C_22  and  O_24
REMARK                            x       y       z     vdW  Elec       q    Type
REMARK                         _______ _______ _______ _____ _____    ______ ____
ROOT
ATOM      1  C   UNL     1       1.536   8.682  19.803  0.00  0.00    +0.000 A 
ATOM      2  C   UNL     1       2.104   8.914  18.555  0.00  0.00    +0.000 A 
ATOM      3  C   UNL     1       2.828   7.912  17.891  0.00  0.00    +0.000 A 
ATOM      4  C   UNL     1       2.968   6.659  18.516  0.00  0.00    +0.000 A 
ATOM      5  C   UNL     1       2.367   6.409  19.757  0.00  0.00    +0.000 A 
ATOM      6  C   UNL     1       1.644   7.431  20.405  0.00  0.00    +0.000 A 
ATOM      7  C   UNL     1       2.646   5.065  20.100  0.00  0.00    +0.000 A 
ATOM      8  C   UNL     1       3.446   4.535  19.109  0.00  0.00    +0.000 A 
ATOM      9  N   UNL     1       3.635   5.494  18.136  0.00  0.00    +0.000 N 
ATOM     10  C   UNL     1       3.960   3.130  19.095  0.00  0.00    +0.000 C 
ATOM     11  C   UNL     1       3.806   2.496  20.491  0.00  0.00    +0.000 C 
ATOM     12  C   UNL     1       2.430   2.791  21.111  0.00  0.00    +0.000 C 
ATOM     13  C   UNL     1       2.217   4.299  21.308  0.00  0.00    +0.000 C 
ENDROOT
BRANCH   1  14
ATOM     14  N   UNL     1       0.811   9.718  20.457  0.00  0.00    +0.000 N 
ATOM     15  H   UNL     1       0.293   9.452  21.292  0.00  0.00    +0.000 HD
BRANCH  14  16
ATOM     16  S   UNL     1      -0.070  10.816  19.517  0.00  0.00    +0.000 S 
ATOM     17  O   UNL     1      -0.855  10.093  18.538  0.00  0.00    +0.000 OA
ATOM     18  O   UNL     1       0.871  11.840  19.116  0.00  0.00    +0.000 OA
BRANCH  16  24
ATOM     19  C   UNL     1      -4.373  13.628  20.680  0.00  0.00    +0.000 C 
ATOM     20  C   UNL     1      -3.171  12.871  21.161  0.00  0.00    +0.000 A 
ATOM     21  C   UNL     1      -2.903  12.745  22.531  0.00  0.00    +0.000 A 
ATOM     22  C   UNL     1      -1.779  12.046  22.975  0.00  0.00    +0.000 A 
ATOM     23  C   UNL     1      -0.913  11.454  22.056  0.00  0.00    +0.000 A 
ATOM     24  C   UNL     1      -1.185  11.560  20.691  0.00  0.00    +0.000 A 
ATOM     25  C   UNL     1      -2.295  12.284  20.238  0.00  0.00    +0.000 A 
ENDBRANCH  16  24
ENDBRANCH  14  16
ENDBRANCH   1  14
BRANCH   9  26
ATOM     26  C   UNL     1       4.358   5.293  16.888  0.00  0.00    +0.000 C 
BRANCH  26  27
ATOM     27  C   UNL     1       5.843   5.625  16.978  0.00  0.00    +0.000 C 
BRANCH  27  28
ATOM     28  C   UNL     1       6.685   4.477  16.486  0.00  0.00    +0.000 C 
ATOM     29  O   UNL     1       7.901   4.484  16.395  0.00  0.00    +0.000 OA
BRANCH  28  30
ATOM     30  O   UNL     1       5.939   3.399  16.145  0.00  0.00    +0.000 OA
ATOM     31  H   UNL     1       5.929   3.200  15.189  0.00  0.00    +0.000 HD
ENDBRANCH  28  30
ENDBRANCH  27  28
ENDBRANCH  26  27
ENDBRANCH   9  26
TORSDOF 7
ENDMDL
MODEL 8
REMARK VINA RESULT:      -8.0      3.564      7.225
REMARK  Name = 
REMARK  8 active torsions:
REMARK  status: ('A' for Active; 'I' for Inactive)
REMARK    1  A    between atoms: C_1  and  C_2
REMARK    2  A    between atoms: C_6  and  S_7
REMARK    3  A    between atoms: S_7  and  N_10
REMARK    4  A    between atoms: N_10  and  C_11
REMARK    5  A    between atoms: N_19  and  C_20
REMARK    6  A    between atoms: C_20  and  C_21
REMARK    7  A    between atoms: C_21  and  C_22
REMARK    8  A    between atoms: C_22  and  O_24
REMARK                            x       y       z     vdW  Elec       q    Type
REMARK                         _______ _______ _______ _____ _____    ______ ____
ROOT
ATOM      1  C   UNL     1       1.971   8.360  18.032  0.00  0.00    +0.000 A 
ATOM      2  C   UNL     1       3.235   8.337  17.453  0.00  0.00    +0.000 A 
ATOM      3  C   UNL     1       4.103   7.252  17.649  0.00  0.00    +0.000 A 
ATOM      4  C   UNL     1       3.666   6.179  18.449  0.00  0.00    +0.000 A 
ATOM      5  C   UNL     1       2.380   6.182  19.006  0.00  0.00    +0.000 A 
ATOM      6  C   UNL     1       1.525   7.282  18.794  0.00  0.00    +0.000 A 
ATOM      7  C   UNL     1       2.221   4.965  19.711  0.00  0.00    +0.000 A 
ATOM      8  C   UNL     1       3.410   4.270  19.624  0.00  0.00    +0.000 A 
ATOM      9  N   UNL     1       4.288   4.996  18.848  0.00  0.00    +0.000 N 
ATOM     10  C   UNL     1       3.653   2.927  20.236  0.00  0.00    +0.000 C 
ATOM     11  C   UNL     1       2.561   2.613  21.278  0.00  0.00    +0.000 C 
ATOM     12  C   UNL     1       1.155   2.966  20.764  0.00  0.00    +0.000 C 
ATOM     13  C   UNL     1       1.030   4.467  20.462  0.00  0.00    +0.000 C 
ENDROOT
BRANCH   1  14
ATOM     14  N   UNL     1       1.113   9.475  17.821  0.00  0.00    +0.000 N 
ATOM     15  H   UNL     1       1.383  10.125  17.086  0.00  0.00    +0.000 HD
BRANCH  14  16
ATOM     16  S   UNL     1       0.501  10.300  19.168  0.00  0.00    +0.000 S 
ATOM     17  O   UNL     1       1.143   9.805  20.369  0.00  0.00    +0.000 OA
ATOM     18  O   UNL     1      -0.938  10.282  19.025  0.00  0.00    +0.000 OA
BRANCH  16  24
ATOM     19  C   UNL     1      -0.392  15.494  19.122  0.00  0.00    +0.000 C 
ATOM     20  C   UNL     1       0.558  14.356  18.885  0.00  0.00    +0.000 A 
ATOM     21  C   UNL     1       1.866  14.594  18.444  0.00  0.00    +0.000 A 
ATOM     22  C   UNL     1       2.745  13.533  18.219  0.00  0.00    +0.000 A 
ATOM     23  C   UNL     1       2.332  12.220  18.441  0.00  0.00    +0.000 A 
ATOM     24  C   UNL     1       1.035  11.978  18.899  0.00  0.00    +0.000 A 
ATOM     25  C   UNL     1       0.139  13.036  19.100  0.00  0.00    +0.000 A 
ENDBRANCH  16  24
ENDBRANCH  14  16
ENDBRANCH   1  14
BRANCH   9  26
ATOM     26  C   UNL     1       5.621   4.560  18.457  0.00  0.00    +0.000 C 
BRANCH  26  27
ATOM     27  C   UNL     1       5.759   4.261  16.969  0.00  0.00    +0.000 C 
BRANCH  27  28
ATOM     28  C   UNL     1       7.116   4.670  16.458  0.00  0.00    +0.000 C 
ATOM     29  O   UNL     1       7.319   5.393  15.496  0.00  0.00    +0.000 OA
BRANCH  28  30
ATOM     30  O   UNL     1       8.124   4.142  17.193  0.00  0.00    +0.000 OA
ATOM     31  H   UNL     1       8.901   3.861  16.671  0.00  0.00    +0.000 HD
ENDBRANCH  28  30
ENDBRANCH  27  28
ENDBRANCH  26  27
ENDBRANCH   9  26
TORSDOF 7
ENDMDL
MODEL 9
REMARK VINA RESULT:      -8.0      3.514      5.483
REMARK  Name = 
REMARK  8 active torsions:
REMARK  status: ('A' for Active; 'I' for Inactive)
REMARK    1  A    between atoms: C_1  and  C_2
REMARK    2  A    between atoms: C_6  and  S_7
REMARK    3  A    between atoms: S_7  and  N_10
REMARK    4  A    between atoms: N_10  and  C_11
REMARK    5  A    between atoms: N_19  and  C_20
REMARK    6  A    between atoms: C_20  and  C_21
REMARK    7  A    between atoms: C_21  and  C_22
REMARK    8  A    between atoms: C_22  and  O_24
REMARK                            x       y       z     vdW  Elec       q    Type
REMARK                         _______ _______ _______ _____ _____    ______ ____
ROOT
ATOM      1  C   UNL     1       2.265   7.479  19.536  0.00  0.00    +0.000 A 
ATOM      2  C   UNL     1       2.226   8.073  18.279  0.00  0.00    +0.000 A 
ATOM      3  C   UNL     1       1.447   9.216  18.042  0.00  0.00    +0.000 A 
ATOM      4  C   UNL     1       0.701   9.753  19.108  0.00  0.00    +0.000 A 
ATOM      5  C   UNL     1       0.764   9.178  20.385  0.00  0.00    +0.000 A 
ATOM      6  C   UNL     1       1.555   8.031  20.600  0.00  0.00    +0.000 A 
ATOM      7  C   UNL     1      -0.048   9.958  21.242  0.00  0.00    +0.000 A 
ATOM      8  C   UNL     1      -0.633  10.949  20.480  0.00  0.00    +0.000 A 
ATOM      9  N   UNL     1      -0.172  10.838  19.185  0.00  0.00    +0.000 N 
ATOM     10  C   UNL     1      -1.565  11.990  21.014  0.00  0.00    +0.000 C 
ATOM     11  C   UNL     1      -2.077  11.577  22.408  0.00  0.00    +0.000 C 
ATOM     12  C   UNL     1      -0.947  11.043  23.304  0.00  0.00    +0.000 C 
ATOM     13  C   UNL     1      -0.303   9.785  22.702  0.00  0.00    +0.000 C 
ENDROOT
BRANCH   1  14
ATOM     14  N   UNL     1       3.060   6.318  19.748  0.00  0.00    +0.000 N 
ATOM     15  H   UNL     1       4.038   6.473  19.985  0.00  0.00    +0.000 HD
BRANCH  14  16
ATOM     16  S   UNL     1       2.890   5.008  18.689  0.00  0.00    +0.000 S 
ATOM     17  O   UNL     1       1.742   5.226  17.833  0.00  0.00    +0.000 OA
ATOM     18  O   UNL     1       3.001   3.819  19.506  0.00  0.00    +0.000 OA
BRANCH  16  24
ATOM     19  C   UNL     1       7.520   7.193  17.438  0.00  0.00    +0.000 C 
ATOM     20  C   UNL     1       6.478   6.152  17.153  0.00  0.00    +0.000 A 
ATOM     21  C   UNL     1       6.639   5.245  16.098  0.00  0.00    +0.000 A 
ATOM     22  C   UNL     1       5.664   4.282  15.831  0.00  0.00    +0.000 A 
ATOM     23  C   UNL     1       4.518   4.206  16.622  0.00  0.00    +0.000 A 
ATOM     24  C   UNL     1       4.361   5.095  17.688  0.00  0.00    +0.000 A 
ATOM     25  C   UNL     1       5.322   6.081  17.943  0.00  0.00    +0.000 A 
ENDBRANCH  16  24
ENDBRANCH  14  16
ENDBRANCH   1  14
BRANCH   9  26
ATOM     26  C   UNL     1      -0.497  11.751  18.098  0.00  0.00    +0.000 C 
BRANCH  26  27
ATOM     27  C   UNL     1      -1.970  11.743  17.708  0.00  0.00    +0.000 C 
BRANCH  27  28
ATOM     28  C   UNL     1      -2.417  10.360  17.310  0.00  0.00    +0.000 C 
ATOM     29  O   UNL     1      -3.296   9.718  17.860  0.00  0.00    +0.000 OA
BRANCH  28  30
ATOM     30  O   UNL     1      -1.728   9.882  16.246  0.00  0.00    +0.000 OA
ATOM     31  H   UNL     1      -2.238   9.857  15.413  0.00  0.00    +0.000 HD
ENDBRANCH  28  30
ENDBRANCH  27  28
ENDBRANCH  26  27
ENDBRANCH   9  26
TORSDOF 7
ENDMDL
