MODEL 1
REMARK VINA RESULT:      -7.9      0.000      0.000
REMARK  Name = 
REMARK  9 active torsions:
REMARK  status: ('A' for Active; 'I' for Inactive)
REMARK    1  A    between atoms: C_1  and  O_2
REMARK    2  A    between atoms: O_2  and  C_3
REMARK    3  A    between atoms: C_3  and  C_5
REMARK    4  A    between atoms: C_8  and  C_9
REMARK    5  A    between atoms: C_9  and  O_10
REMARK    6  A    between atoms: O_10  and  C_11
REMARK    7  A    between atoms: C_14  and  C_15
REMARK    8  A    between atoms: C_24  and  O_25
REMARK    9  A    between atoms: O_25  and  C_26
REMARK                            x       y       z     vdW  Elec       q    Type
REMARK                         _______ _______ _______ _____ _____    ______ ____
ROOT
ATOM      1  C   UNL     1       5.873   6.689  16.960  0.00  0.00    +0.000 A 
ATOM      2  C   UNL     1       4.710   7.200  17.571  0.00  0.00    +0.000 A 
ATOM      3  C   UNL     1       3.580   6.405  17.784  0.00  0.00    +0.000 A 
ATOM      4  C   UNL     1       3.593   5.077  17.386  0.00  0.00    +0.000 A 
ATOM      5  C   UNL     1       4.730   4.567  16.762  0.00  0.00    +0.000 A 
ATOM      6  C   UNL     1       5.881   5.347  16.535  0.00  0.00    +0.000 A 
ENDROOT
BRANCH   4   7
ATOM      7  C   UNL     1       2.471   4.181  17.656  0.00  0.00    +0.000 C 
ATOM      8  C   UNL     1       2.093   3.744  18.864  0.00  0.00    +0.000 C 
ATOM      9  S   UNL     1       2.799   4.102  20.393  0.00  0.00    +0.000 S 
ATOM     10  C   UNL     1       1.685   3.042  21.237  0.00  0.00    +0.000 C 
ATOM     11  O   UNL     1       1.702   2.844  22.439  0.00  0.00    +0.000 OA
ATOM     12  N   UNL     1       0.833   2.481  20.355  0.00  0.00    +0.000 N 
ATOM     13  C   UNL     1       0.948   2.811  19.035  0.00  0.00    +0.000 C 
ATOM     14  O   UNL     1       0.229   2.398  18.143  0.00  0.00    +0.000 OA
ATOM     15  H   UNL     1       0.118   1.837  20.664  0.00  0.00    +0.000 HD
ENDBRANCH   4   7
BRANCH   6  16
ATOM     16  O   UNL     1       7.010   4.782  15.986  0.00  0.00    +0.000 OA
ATOM     17  C   UNL     1       7.122   4.893  14.557  0.00  0.00    +0.000 C 
ENDBRANCH   6  16
BRANCH   1  18
ATOM     18  O   UNL     1       6.876   7.624  16.927  0.00  0.00    +0.000 OA
BRANCH  18  19
ATOM     19  C   UNL     1       7.869   7.626  17.949  0.00  0.00    +0.000 C 
BRANCH  19  23
ATOM     20  C   UNL     1       9.105  11.755  18.614  0.00  0.00    +0.000 A 
ATOM     21  C   UNL     1       8.221  11.428  17.580  0.00  0.00    +0.000 A 
ATOM     22  C   UNL     1       7.835  10.099  17.371  0.00  0.00    +0.000 A 
ATOM     23  C   UNL     1       8.325   9.064  18.183  0.00  0.00    +0.000 A 
ATOM     24  C   UNL     1       9.225   9.397  19.208  0.00  0.00    +0.000 A 
ATOM     25  C   UNL     1       9.613  10.731  19.422  0.00  0.00    +0.000 A 
BRANCH  20  26
ATOM     26  C   UNL     1       9.437  13.192  18.819  0.00  0.00    +0.000 C 
ATOM     27  O   UNL     1       9.073  13.835  19.792  0.00  0.00    +0.000 OA
BRANCH  26  29
ATOM     28  C   UNL     1      10.231  15.087  17.719  0.00  0.00    +0.000 C 
ATOM     29  O   UNL     1      10.202  13.661  17.803  0.00  0.00    +0.000 OA
ENDBRANCH  26  29
ENDBRANCH  20  26
ENDBRANCH  19  23
ENDBRANCH  18  19
ENDBRANCH   1  18
TORSDOF 7
ENDMDL
MODEL 2
REMARK VINA RESULT:      -7.7      0.725      1.056
REMARK  Name = 
REMARK  9 active torsions:
REMARK  status: ('A' for Active; 'I' for Inactive)
REMARK    1  A    between atoms: C_1  and  O_2
REMARK    2  A    between atoms: O_2  and  C_3
REMARK    3  A    between atoms: C_3  and  C_5
REMARK    4  A    between atoms: C_8  and  C_9
REMARK    5  A    between atoms: C_9  and  O_10
REMARK    6  A    between atoms: O_10  and  C_11
REMARK    7  A    between atoms: C_14  and  C_15
REMARK    8  A    between atoms: C_24  and  O_25
REMARK    9  A    between atoms: O_25  and  C_26
REMARK                            x       y       z     vdW  Elec       q    Type
REMARK                         _______ _______ _______ _____ _____    ______ ____
ROOT
ATOM      1  C   UNL     1       6.221   7.008  16.941  0.00  0.00    +0.000 A 
ATOM      2  C   UNL     1       5.138   7.387  17.759  0.00  0.00    +0.000 A 
ATOM      3  C   UNL     1       4.036   6.549  17.957  0.00  0.00    +0.000 A 
ATOM      4  C   UNL     1       3.999   5.311  17.335  0.00  0.00    +0.000 A 
ATOM      5  C   UNL     1       5.056   4.934  16.508  0.00  0.00    +0.000 A 
ATOM      6  C   UNL     1       6.176   5.761  16.292  0.00  0.00    +0.000 A 
ENDROOT
BRANCH   4   7
ATOM      7  C   UNL     1       2.911   4.363  17.569  0.00  0.00    +0.000 C 
ATOM      8  C   UNL     1       2.616   3.788  18.742  0.00  0.00    +0.000 C 
ATOM      9  S   UNL     1       3.407   3.994  20.257  0.00  0.00    +0.000 S 
ATOM     10  C   UNL     1       2.366   2.821  21.042  0.00  0.00    +0.000 C 
ATOM     11  O   UNL     1       2.461   2.493  22.212  0.00  0.00    +0.000 OA
ATOM     12  N   UNL     1       1.472   2.339  20.155  0.00  0.00    +0.000 N 
ATOM     13  C   UNL     1       1.500   2.814  18.875  0.00  0.00    +0.000 C 
ATOM     14  O   UNL     1       0.736   2.484  17.987  0.00  0.00    +0.000 OA
ATOM     15  H   UNL     1       0.788   1.648  20.432  0.00  0.00    +0.000 HD
ENDBRANCH   4   7
BRANCH   6  16
ATOM     16  O   UNL     1       7.233   5.318  15.528  0.00  0.00    +0.000 OA
ATOM     17  C   UNL     1       6.883   4.469  14.423  0.00  0.00    +0.000 C 
ENDBRANCH   6  16
BRANCH   1  18
ATOM     18  O   UNL     1       7.218   7.951  16.959  0.00  0.00    +0.000 OA
BRANCH  18  19
ATOM     19  C   UNL     1       8.108   8.013  18.070  0.00  0.00    +0.000 C 
BRANCH  19  23
ATOM     20  C   UNL     1       9.208  12.188  18.684  0.00  0.00    +0.000 A 
ATOM     21  C   UNL     1       8.357  11.817  17.638  0.00  0.00    +0.000 A 
ATOM     22  C   UNL     1       8.015  10.473  17.446  0.00  0.00    +0.000 A 
ATOM     23  C   UNL     1       8.516   9.468  18.287  0.00  0.00    +0.000 A 
ATOM     24  C   UNL     1       9.384   9.846  19.326  0.00  0.00    +0.000 A 
ATOM     25  C   UNL     1       9.728  11.194  19.523  0.00  0.00    +0.000 A 
BRANCH  20  26
ATOM     26  C   UNL     1       9.494  13.638  18.870  0.00  0.00    +0.000 C 
ATOM     27  O   UNL     1       9.903  14.363  17.977  0.00  0.00    +0.000 OA
BRANCH  26  29
ATOM     28  C   UNL     1       7.865  14.451  20.326  0.00  0.00    +0.000 C 
ATOM     29  O   UNL     1       9.217  14.026  20.139  0.00  0.00    +0.000 OA
ENDBRANCH  26  29
ENDBRANCH  20  26
ENDBRANCH  19  23
ENDBRANCH  18  19
ENDBRANCH   1  18
TORSDOF 7
ENDMDL
MODEL 3
REMARK VINA RESULT:      -7.6      6.191      8.614
REMARK  Name = 
REMARK  9 active torsions:
REMARK  status: ('A' for Active; 'I' for Inactive)
REMARK    1  A    between atoms: C_1  and  O_2
REMARK    2  A    between atoms: O_2  and  C_3
REMARK    3  A    between atoms: C_3  and  C_5
REMARK    4  A    between atoms: C_8  and  C_9
REMARK    5  A    between atoms: C_9  and  O_10
REMARK    6  A    between atoms: O_10  and  C_11
REMARK    7  A    between atoms: C_14  and  C_15
REMARK    8  A    between atoms: C_24  and  O_25
REMARK    9  A    between atoms: O_25  and  C_26
REMARK                            x       y       z     vdW  Elec       q    Type
REMARK                         _______ _______ _______ _____ _____    ______ ____
ROOT
ATOM      1  C   UNL     1       1.730   7.282  20.107  0.00  0.00    +0.000 A 
ATOM      2  C   UNL     1       2.147   8.196  19.118  0.00  0.00    +0.000 A 
ATOM      3  C   UNL     1       2.986   7.813  18.068  0.00  0.00    +0.000 A 
ATOM      4  C   UNL     1       3.426   6.500  17.988  0.00  0.00    +0.000 A 
ATOM      5  C   UNL     1       3.036   5.593  18.972  0.00  0.00    +0.000 A 
ATOM      6  C   UNL     1       2.192   5.954  20.040  0.00  0.00    +0.000 A 
ENDROOT
BRANCH   4   7
ATOM      7  C   UNL     1       4.239   6.026  16.870  0.00  0.00    +0.000 C 
ATOM      8  C   UNL     1       5.445   5.454  16.968  0.00  0.00    +0.000 C 
ATOM      9  S   UNL     1       6.353   5.123  18.393  0.00  0.00    +0.000 S 
ATOM     10  C   UNL     1       7.706   4.492  17.473  0.00  0.00    +0.000 C 
ATOM     11  O   UNL     1       8.744   4.088  17.966  0.00  0.00    +0.000 OA
ATOM     12  N   UNL     1       7.423   4.541  16.155  0.00  0.00    +0.000 N 
ATOM     13  C   UNL     1       6.207   5.025  15.765  0.00  0.00    +0.000 C 
ATOM     14  O   UNL     1       5.817   5.098  14.615  0.00  0.00    +0.000 OA
ATOM     15  H   UNL     1       8.092   4.218  15.469  0.00  0.00    +0.000 HD
ENDBRANCH   4   7
BRANCH   6  16
ATOM     16  O   UNL     1       1.770   5.008  20.947  0.00  0.00    +0.000 OA
ATOM     17  C   UNL     1       2.465   3.751  20.896  0.00  0.00    +0.000 C 
ENDBRANCH   6  16
BRANCH   1  18
ATOM     18  O   UNL     1       0.851   7.860  20.987  0.00  0.00    +0.000 OA
BRANCH  18  19
ATOM     19  C   UNL     1       1.302   8.902  21.849  0.00  0.00    +0.000 C 
BRANCH  19  23
ATOM     20  C   UNL     1      -1.899  11.846  22.166  0.00  0.00    +0.000 A 
ATOM     21  C   UNL     1      -1.153  11.722  20.990  0.00  0.00    +0.000 A 
ATOM     22  C   UNL     1      -0.124  10.778  20.900  0.00  0.00    +0.000 A 
ATOM     23  C   UNL     1       0.190   9.940  21.981  0.00  0.00    +0.000 A 
ATOM     24  C   UNL     1      -0.552  10.082  23.166  0.00  0.00    +0.000 A 
ATOM     25  C   UNL     1      -1.587  11.028  23.258  0.00  0.00    +0.000 A 
BRANCH  20  26
ATOM     26  C   UNL     1      -3.015  12.832  22.183  0.00  0.00    +0.000 C 
ATOM     27  O   UNL     1      -2.969  13.911  21.612  0.00  0.00    +0.000 OA
BRANCH  26  29
ATOM     28  C   UNL     1      -4.387  13.138  24.043  0.00  0.00    +0.000 C 
ATOM     29  O   UNL     1      -4.070  12.356  22.890  0.00  0.00    +0.000 OA
ENDBRANCH  26  29
ENDBRANCH  20  26
ENDBRANCH  19  23
ENDBRANCH  18  19
ENDBRANCH   1  18
TORSDOF 7
ENDMDL
MODEL 4
REMARK VINA RESULT:      -7.6      6.185      8.315
REMARK  Name = 
REMARK  9 active torsions:
REMARK  status: ('A' for Active; 'I' for Inactive)
REMARK    1  A    between atoms: C_1  and  O_2
REMARK    2  A    between atoms: O_2  and  C_3
REMARK    3  A    between atoms: C_3  and  C_5
REMARK    4  A    between atoms: C_8  and  C_9
REMARK    5  A    between atoms: C_9  and  O_10
REMARK    6  A    between atoms: O_10  and  C_11
REMARK    7  A    between atoms: C_14  and  C_15
REMARK    8  A    between atoms: C_24  and  O_25
REMARK    9  A    between atoms: O_25  and  C_26
REMARK                            x       y       z     vdW  Elec       q    Type
REMARK                         _______ _______ _______ _____ _____    ______ ____
ROOT
ATOM      1  C   UNL     1       1.701   7.463  20.122  0.00  0.00    +0.000 A 
ATOM      2  C   UNL     1       2.035   8.395  19.119  0.00  0.00    +0.000 A 
ATOM      3  C   UNL     1       2.885   8.065  18.060  0.00  0.00    +0.000 A 
ATOM      4  C   UNL     1       3.421   6.788  17.986  0.00  0.00    +0.000 A 
ATOM      5  C   UNL     1       3.113   5.864  18.984  0.00  0.00    +0.000 A 
ATOM      6  C   UNL     1       2.260   6.173  20.061  0.00  0.00    +0.000 A 
ENDROOT
BRANCH   4   7
ATOM      7  C   UNL     1       4.250   6.364  16.860  0.00  0.00    +0.000 C 
ATOM      8  C   UNL     1       5.418   5.715  16.951  0.00  0.00    +0.000 C 
ATOM      9  S   UNL     1       6.247   5.211  18.373  0.00  0.00    +0.000 S 
ATOM     10  C   UNL     1       7.599   4.583  17.449  0.00  0.00    +0.000 C 
ATOM     11  O   UNL     1       8.592   4.078  17.942  0.00  0.00    +0.000 OA
ATOM     12  N   UNL     1       7.373   4.760  16.132  0.00  0.00    +0.000 N 
ATOM     13  C   UNL     1       6.202   5.346  15.742  0.00  0.00    +0.000 C 
ATOM     14  O   UNL     1       5.864   5.540  14.590  0.00  0.00    +0.000 OA
ATOM     15  H   UNL     1       8.050   4.457  15.445  0.00  0.00    +0.000 HD
ENDBRANCH   4   7
BRANCH   6  16
ATOM     16  O   UNL     1       1.922   5.208  20.983  0.00  0.00    +0.000 OA
ATOM     17  C   UNL     1       1.506   3.948  20.432  0.00  0.00    +0.000 C 
ENDBRANCH   6  16
BRANCH   1  18
ATOM     18  O   UNL     1       0.794   7.984  21.010  0.00  0.00    +0.000 OA
BRANCH  18  19
ATOM     19  C   UNL     1       1.243   8.857  22.044  0.00  0.00    +0.000 C 
BRANCH  19  23
ATOM     20  C   UNL     1      -1.440  12.284  22.312  0.00  0.00    +0.000 A 
ATOM     21  C   UNL     1      -1.561  11.207  23.196  0.00  0.00    +0.000 A 
ATOM     22  C   UNL     1      -0.699  10.109  23.097  0.00  0.00    +0.000 A 
ATOM     23  C   UNL     1       0.300  10.055  22.114  0.00  0.00    +0.000 A 
ATOM     24  C   UNL     1       0.406  11.133  21.218  0.00  0.00    +0.000 A 
ATOM     25  C   UNL     1      -0.457  12.238  21.315  0.00  0.00    +0.000 A 
BRANCH  20  26
ATOM     26  C   UNL     1      -2.352  13.447  22.499  0.00  0.00    +0.000 C 
ATOM     27  O   UNL     1      -3.569  13.359  22.466  0.00  0.00    +0.000 OA
BRANCH  26  29
ATOM     28  C   UNL     1      -1.327  14.789  24.106  0.00  0.00    +0.000 C 
ATOM     29  O   UNL     1      -1.646  14.582  22.729  0.00  0.00    +0.000 OA
ENDBRANCH  26  29
ENDBRANCH  20  26
ENDBRANCH  19  23
ENDBRANCH  18  19
ENDBRANCH   1  18
TORSDOF 7
ENDMDL
MODEL 5
REMARK VINA RESULT:      -7.5      6.330      8.669
REMARK  Name = 
REMARK  9 active torsions:
REMARK  status: ('A' for Active; 'I' for Inactive)
REMARK    1  A    between atoms: C_1  and  O_2
REMARK    2  A    between atoms: O_2  and  C_3
REMARK    3  A    between atoms: C_3  and  C_5
REMARK    4  A    between atoms: C_8  and  C_9
REMARK    5  A    between atoms: C_9  and  O_10
REMARK    6  A    between atoms: O_10  and  C_11
REMARK    7  A    between atoms: C_14  and  C_15
REMARK    8  A    between atoms: C_24  and  O_25
REMARK    9  A    between atoms: O_25  and  C_26
REMARK                            x       y       z     vdW  Elec       q    Type
REMARK                         _______ _______ _______ _____ _____    ______ ____
ROOT
ATOM      1  C   UNL     1       1.895   7.928  19.609  0.00  0.00    +0.000 A 
ATOM      2  C   UNL     1       2.342   8.610  18.460  0.00  0.00    +0.000 A 
ATOM      3  C   UNL     1       3.159   7.992  17.507  0.00  0.00    +0.000 A 
ATOM      4  C   UNL     1       3.546   6.674  17.691  0.00  0.00    +0.000 A 
ATOM      5  C   UNL     1       3.127   5.996  18.834  0.00  0.00    +0.000 A 
ATOM      6  C   UNL     1       2.304   6.596  19.808  0.00  0.00    +0.000 A 
ENDROOT
BRANCH   4   7
ATOM      7  C   UNL     1       4.332   5.955  16.690  0.00  0.00    +0.000 C 
ATOM      8  C   UNL     1       5.516   5.366  16.903  0.00  0.00    +0.000 C 
ATOM      9  S   UNL     1       6.419   5.289  18.367  0.00  0.00    +0.000 S 
ATOM     10  C   UNL     1       7.740   4.435  17.593  0.00  0.00    +0.000 C 
ATOM     11  O   UNL     1       8.764   4.096  18.158  0.00  0.00    +0.000 OA
ATOM     12  N   UNL     1       7.451   4.232  16.291  0.00  0.00    +0.000 N 
ATOM     13  C   UNL     1       6.253   4.677  15.810  0.00  0.00    +0.000 C 
ATOM     14  O   UNL     1       5.859   4.535  14.668  0.00  0.00    +0.000 OA
ATOM     15  H   UNL     1       8.103   3.752  15.684  0.00  0.00    +0.000 HD
ENDBRANCH   4   7
BRANCH   6  16
ATOM     16  O   UNL     1       1.850   5.866  20.884  0.00  0.00    +0.000 OA
ATOM     17  C   UNL     1       1.282   4.585  20.565  0.00  0.00    +0.000 C 
ENDBRANCH   6  16
BRANCH   1  18
ATOM     18  O   UNL     1       1.045   8.704  20.355  0.00  0.00    +0.000 OA
BRANCH  18  19
ATOM     19  C   UNL     1       0.651   9.984  19.868  0.00  0.00    +0.000 C 
BRANCH  19  23
ATOM     20  C   UNL     1      -2.052  11.830  22.750  0.00  0.00    +0.000 A 
ATOM     21  C   UNL     1      -1.965  12.309  21.439  0.00  0.00    +0.000 A 
ATOM     22  C   UNL     1      -1.090  11.714  20.523  0.00  0.00    +0.000 A 
ATOM     23  C   UNL     1      -0.277  10.631  20.893  0.00  0.00    +0.000 A 
ATOM     24  C   UNL     1      -0.357  10.166  22.217  0.00  0.00    +0.000 A 
ATOM     25  C   UNL     1      -1.236  10.760  23.138  0.00  0.00    +0.000 A 
BRANCH  20  26
ATOM     26  C   UNL     1      -3.039  12.471  23.663  0.00  0.00    +0.000 C 
ATOM     27  O   UNL     1      -3.916  11.853  24.246  0.00  0.00    +0.000 OA
BRANCH  26  29
ATOM     28  C   UNL     1      -3.965  14.604  23.513  0.00  0.00    +0.000 C 
ATOM     29  O   UNL     1      -2.809  13.803  23.764  0.00  0.00    +0.000 OA
ENDBRANCH  26  29
ENDBRANCH  20  26
ENDBRANCH  19  23
ENDBRANCH  18  19
ENDBRANCH   1  18
TORSDOF 7
ENDMDL
MODEL 6
REMARK VINA RESULT:      -7.5      6.525      9.613
REMARK  Name = 
REMARK  9 active torsions:
REMARK  status: ('A' for Active; 'I' for Inactive)
REMARK    1  A    between atoms: C_1  and  O_2
REMARK    2  A    between atoms: O_2  and  C_3
REMARK    3  A    between atoms: C_3  and  C_5
REMARK    4  A    between atoms: C_8  and  C_9
REMARK    5  A    between atoms: C_9  and  O_10
REMARK    6  A    between atoms: O_10  and  C_11
REMARK    7  A    between atoms: C_14  and  C_15
REMARK    8  A    between atoms: C_24  and  O_25
REMARK    9  A    between atoms: O_25  and  C_26
REMARK                            x       y       z     vdW  Elec       q    Type
REMARK                         _______ _______ _______ _____ _____    ______ ____
ROOT
ATOM      1  C   UNL     1       1.219   9.293  19.406  0.00  0.00    +0.000 A 
ATOM      2  C   UNL     1       1.696   9.134  18.089  0.00  0.00    +0.000 A 
ATOM      3  C   UNL     1       2.326   7.958  17.671  0.00  0.00    +0.000 A 
ATOM      4  C   UNL     1       2.492   6.915  18.569  0.00  0.00    +0.000 A 
ATOM      5  C   UNL     1       2.041   7.069  19.879  0.00  0.00    +0.000 A 
ATOM      6  C   UNL     1       1.404   8.243  20.325  0.00  0.00    +0.000 A 
ENDROOT
BRANCH   4   7
ATOM      7  C   UNL     1       3.071   5.635  18.165  0.00  0.00    +0.000 C 
ATOM      8  C   UNL     1       4.267   5.467  17.587  0.00  0.00    +0.000 C 
ATOM      9  S   UNL     1       5.425   6.671  17.168  0.00  0.00    +0.000 S 
ATOM     10  C   UNL     1       6.503   5.487  16.452  0.00  0.00    +0.000 C 
ATOM     11  O   UNL     1       7.567   5.758  15.924  0.00  0.00    +0.000 OA
ATOM     12  N   UNL     1       5.968   4.255  16.565  0.00  0.00    +0.000 N 
ATOM     13  C   UNL     1       4.760   4.121  17.189  0.00  0.00    +0.000 C 
ATOM     14  O   UNL     1       4.181   3.068  17.380  0.00  0.00    +0.000 OA
ATOM     15  H   UNL     1       6.452   3.444  16.205  0.00  0.00    +0.000 HD
ENDBRANCH   4   7
BRANCH   6  16
ATOM     16  O   UNL     1       0.906   8.324  21.606  0.00  0.00    +0.000 OA
ATOM     17  C   UNL     1       1.626   9.194  22.494  0.00  0.00    +0.000 C 
ENDBRANCH   6  16
BRANCH   1  18
ATOM     18  O   UNL     1       0.569  10.491  19.563  0.00  0.00    +0.000 OA
BRANCH  18  19
ATOM     19  C   UNL     1       0.161  11.228  18.414  0.00  0.00    +0.000 C 
BRANCH  19  23
ATOM     20  C   UNL     1      -4.195  11.161  18.238  0.00  0.00    +0.000 A 
ATOM     21  C   UNL     1      -3.431  10.318  17.424  0.00  0.00    +0.000 A 
ATOM     22  C   UNL     1      -2.033  10.352  17.483  0.00  0.00    +0.000 A 
ATOM     23  C   UNL     1      -1.363  11.228  18.351  0.00  0.00    +0.000 A 
ATOM     24  C   UNL     1      -2.137  12.084  19.153  0.00  0.00    +0.000 A 
ATOM     25  C   UNL     1      -3.541  12.052  19.097  0.00  0.00    +0.000 A 
BRANCH  20  26
ATOM     26  C   UNL     1      -5.678  11.042  18.168  0.00  0.00    +0.000 C 
ATOM     27  O   UNL     1      -6.324  10.260  18.848  0.00  0.00    +0.000 OA
BRANCH  26  29
ATOM     28  C   UNL     1      -7.272  12.701  17.796  0.00  0.00    +0.000 C 
ATOM     29  O   UNL     1      -6.191  11.926  17.276  0.00  0.00    +0.000 OA
ENDBRANCH  26  29
ENDBRANCH  20  26
ENDBRANCH  19  23
ENDBRANCH  18  19
ENDBRANCH   1  18
TORSDOF 7
ENDMDL
MODEL 7
REMARK VINA RESULT:      -7.5      0.729      1.348
REMARK  Name = 
REMARK  9 active torsions:
REMARK  status: ('A' for Active; 'I' for Inactive)
REMARK    1  A    between atoms: C_1  and  O_2
REMARK    2  A    between atoms: O_2  and  C_3
REMARK    3  A    between atoms: C_3  and  C_5
REMARK    4  A    between atoms: C_8  and  C_9
REMARK    5  A    between atoms: C_9  and  O_10
REMARK    6  A    between atoms: O_10  and  C_11
REMARK    7  A    between atoms: C_14  and  C_15
REMARK    8  A    between atoms: C_24  and  O_25
REMARK    9  A    between atoms: O_25  and  C_26
REMARK                            x       y       z     vdW  Elec       q    Type
REMARK                         _______ _______ _______ _____ _____    ______ ____
ROOT
ATOM      1  C   UNL     1       6.492   6.733  16.918  0.00  0.00    +0.000 A 
ATOM      2  C   UNL     1       5.533   7.056  17.899  0.00  0.00    +0.000 A 
ATOM      3  C   UNL     1       4.383   6.283  18.088  0.00  0.00    +0.000 A 
ATOM      4  C   UNL     1       4.171   5.167  17.292  0.00  0.00    +0.000 A 
ATOM      5  C   UNL     1       5.103   4.850  16.305  0.00  0.00    +0.000 A 
ATOM      6  C   UNL     1       6.269   5.613  16.095  0.00  0.00    +0.000 A 
ENDROOT
BRANCH   4   7
ATOM      7  C   UNL     1       3.029   4.279  17.498  0.00  0.00    +0.000 C 
ATOM      8  C   UNL     1       2.574   3.854  18.684  0.00  0.00    +0.000 C 
ATOM      9  S   UNL     1       3.186   4.220  20.251  0.00  0.00    +0.000 S 
ATOM     10  C   UNL     1       2.016   3.173  21.032  0.00  0.00    +0.000 C 
ATOM     11  O   UNL     1       1.958   2.984  22.234  0.00  0.00    +0.000 OA
ATOM     12  N   UNL     1       1.216   2.610  20.103  0.00  0.00    +0.000 N 
ATOM     13  C   UNL     1       1.415   2.929  18.790  0.00  0.00    +0.000 C 
ATOM     14  O   UNL     1       0.751   2.514  17.859  0.00  0.00    +0.000 OA
ATOM     15  H   UNL     1       0.479   1.972  20.372  0.00  0.00    +0.000 HD
ENDBRANCH   4   7
BRANCH   6  16
ATOM     16  O   UNL     1       7.201   5.220  15.161  0.00  0.00    +0.000 OA
ATOM     17  C   UNL     1       6.704   4.373  14.112  0.00  0.00    +0.000 C 
ENDBRANCH   6  16
BRANCH   1  18
ATOM     18  O   UNL     1       7.569   7.582  16.969  0.00  0.00    +0.000 OA
BRANCH  18  19
ATOM     19  C   UNL     1       8.194   7.851  18.221  0.00  0.00    +0.000 C 
BRANCH  19  23
ATOM     20  C   UNL     1       9.110  12.107  18.470  0.00  0.00    +0.000 A 
ATOM     21  C   UNL     1       9.668  11.199  19.375  0.00  0.00    +0.000 A 
ATOM     22  C   UNL     1       9.362   9.836  19.291  0.00  0.00    +0.000 A 
ATOM     23  C   UNL     1       8.491   9.346  18.306  0.00  0.00    +0.000 A 
ATOM     24  C   UNL     1       7.921  10.266  17.410  0.00  0.00    +0.000 A 
ATOM     25  C   UNL     1       8.227  11.635  17.491  0.00  0.00    +0.000 A 
BRANCH  20  26
ATOM     26  C   UNL     1       9.513  13.537  18.577  0.00  0.00    +0.000 C 
ATOM     27  O   UNL     1      10.553  13.980  18.114  0.00  0.00    +0.000 OA
BRANCH  26  29
ATOM     28  C   UNL     1       9.001  14.756  20.497  0.00  0.00    +0.000 C 
ATOM     29  O   UNL     1       8.568  14.257  19.230  0.00  0.00    +0.000 OA
ENDBRANCH  26  29
ENDBRANCH  20  26
ENDBRANCH  19  23
ENDBRANCH  18  19
ENDBRANCH   1  18
TORSDOF 7
ENDMDL
MODEL 8
REMARK VINA RESULT:      -7.5      7.013      9.144
REMARK  Name = 
REMARK  9 active torsions:
REMARK  status: ('A' for Active; 'I' for Inactive)
REMARK    1  A    between atoms: C_1  and  O_2
REMARK    2  A    between atoms: O_2  and  C_3
REMARK    3  A    between atoms: C_3  and  C_5
REMARK    4  A    between atoms: C_8  and  C_9
REMARK    5  A    between atoms: C_9  and  O_10
REMARK    6  A    between atoms: O_10  and  C_11
REMARK    7  A    between atoms: C_14  and  C_15
REMARK    8  A    between atoms: C_24  and  O_25
REMARK    9  A    between atoms: O_25  and  C_26
REMARK                            x       y       z     vdW  Elec       q    Type
REMARK                         _______ _______ _______ _____ _____    ______ ____
ROOT
ATOM      1  C   UNL     1       0.720   9.411  19.175  0.00  0.00    +0.000 A 
ATOM      2  C   UNL     1       1.309   9.363  17.896  0.00  0.00    +0.000 A 
ATOM      3  C   UNL     1       2.322   8.451  17.585  0.00  0.00    +0.000 A 
ATOM      4  C   UNL     1       2.767   7.566  18.556  0.00  0.00    +0.000 A 
ATOM      5  C   UNL     1       2.205   7.619  19.830  0.00  0.00    +0.000 A 
ATOM      6  C   UNL     1       1.184   8.529  20.168  0.00  0.00    +0.000 A 
ENDROOT
BRANCH   4   7
ATOM      7  C   UNL     1       3.765   6.540  18.264  0.00  0.00    +0.000 C 
ATOM      8  C   UNL     1       3.507   5.254  17.992  0.00  0.00    +0.000 C 
ATOM      9  S   UNL     1       1.976   4.471  17.910  0.00  0.00    +0.000 S 
ATOM     10  C   UNL     1       2.710   2.909  17.596  0.00  0.00    +0.000 C 
ATOM     11  O   UNL     1       2.087   1.873  17.456  0.00  0.00    +0.000 OA
ATOM     12  N   UNL     1       4.052   3.037  17.552  0.00  0.00    +0.000 N 
ATOM     13  C   UNL     1       4.597   4.277  17.730  0.00  0.00    +0.000 C 
ATOM     14  O   UNL     1       5.785   4.534  17.688  0.00  0.00    +0.000 OA
ATOM     15  H   UNL     1       4.644   2.236  17.381  0.00  0.00    +0.000 HD
ENDBRANCH   4   7
BRANCH   6  16
ATOM     16  O   UNL     1       0.604   8.495  21.416  0.00  0.00    +0.000 OA
ATOM     17  C   UNL     1       1.371   9.099  22.470  0.00  0.00    +0.000 C 
ENDBRANCH   6  16
BRANCH   1  18
ATOM     18  O   UNL     1      -0.301  10.327  19.224  0.00  0.00    +0.000 OA
BRANCH  18  19
ATOM     19  C   UNL     1      -0.061  11.620  19.772  0.00  0.00    +0.000 C 
BRANCH  19  23
ATOM     20  C   UNL     1      -3.062  12.477  22.818  0.00  0.00    +0.000 A 
ATOM     21  C   UNL     1      -1.838  11.891  23.160  0.00  0.00    +0.000 A 
ATOM     22  C   UNL     1      -0.885  11.614  22.174  0.00  0.00    +0.000 A 
ATOM     23  C   UNL     1      -1.128  11.909  20.824  0.00  0.00    +0.000 A 
ATOM     24  C   UNL     1      -2.366  12.482  20.485  0.00  0.00    +0.000 A 
ATOM     25  C   UNL     1      -3.325  12.763  21.473  0.00  0.00    +0.000 A 
BRANCH  20  26
ATOM     26  C   UNL     1      -4.015  12.795  23.917  0.00  0.00    +0.000 C 
ATOM     27  O   UNL     1      -4.559  11.944  24.604  0.00  0.00    +0.000 OA
BRANCH  26  29
ATOM     28  C   UNL     1      -3.261  14.721  24.991  0.00  0.00    +0.000 C 
ATOM     29  O   UNL     1      -4.166  14.136  24.053  0.00  0.00    +0.000 OA
ENDBRANCH  26  29
ENDBRANCH  20  26
ENDBRANCH  19  23
ENDBRANCH  18  19
ENDBRANCH   1  18
TORSDOF 7
ENDMDL
MODEL 9
REMARK VINA RESULT:      -7.4      6.488      9.608
REMARK  Name = 
REMARK  9 active torsions:
REMARK  status: ('A' for Active; 'I' for Inactive)
REMARK    1  A    between atoms: C_1  and  O_2
REMARK    2  A    between atoms: O_2  and  C_3
REMARK    3  A    between atoms: C_3  and  C_5
REMARK    4  A    between atoms: C_8  and  C_9
REMARK    5  A    between atoms: C_9  and  O_10
REMARK    6  A    between atoms: O_10  and  C_11
REMARK    7  A    between atoms: C_14  and  C_15
REMARK    8  A    between atoms: C_24  and  O_25
REMARK    9  A    between atoms: O_25  and  C_26
REMARK                            x       y       z     vdW  Elec       q    Type
REMARK                         _______ _______ _______ _____ _____    ______ ____
ROOT
ATOM      1  C   UNL     1       1.317   9.243  19.463  0.00  0.00    +0.000 A 
ATOM      2  C   UNL     1       1.832   9.101  18.159  0.00  0.00    +0.000 A 
ATOM      3  C   UNL     1       2.451   7.920  17.736  0.00  0.00    +0.000 A 
ATOM      4  C   UNL     1       2.567   6.856  18.618  0.00  0.00    +0.000 A 
ATOM      5  C   UNL     1       2.080   6.994  19.916  0.00  0.00    +0.000 A 
ATOM      6  C   UNL     1       1.453   8.172  20.366  0.00  0.00    +0.000 A 
ENDROOT
BRANCH   4   7
ATOM      7  C   UNL     1       3.132   5.573  18.206  0.00  0.00    +0.000 C 
ATOM      8  C   UNL     1       4.310   5.399  17.593  0.00  0.00    +0.000 C 
ATOM      9  S   UNL     1       5.457   6.598  17.131  0.00  0.00    +0.000 S 
ATOM     10  C   UNL     1       6.512   5.408  16.391  0.00  0.00    +0.000 C 
ATOM     11  O   UNL     1       7.559   5.674  15.829  0.00  0.00    +0.000 OA
ATOM     12  N   UNL     1       5.978   4.177  16.529  0.00  0.00    +0.000 N 
ATOM     13  C   UNL     1       4.790   4.050  17.190  0.00  0.00    +0.000 C 
ATOM     14  O   UNL     1       4.216   2.999  17.406  0.00  0.00    +0.000 OA
ATOM     15  H   UNL     1       6.451   3.363  16.160  0.00  0.00    +0.000 HD
ENDBRANCH   4   7
BRANCH   6  16
ATOM     16  O   UNL     1       0.918   8.238  21.633  0.00  0.00    +0.000 OA
ATOM     17  C   UNL     1       1.494   9.232  22.496  0.00  0.00    +0.000 C 
ENDBRANCH   6  16
BRANCH   1  18
ATOM     18  O   UNL     1       0.688  10.451  19.626  0.00  0.00    +0.000 OA
BRANCH  18  19
ATOM     19  C   UNL     1       0.246  11.175  18.480  0.00  0.00    +0.000 C 
BRANCH  19  23
ATOM     20  C   UNL     1      -4.109  11.388  18.513  0.00  0.00    +0.000 A 
ATOM     21  C   UNL     1      -3.344  12.197  19.359  0.00  0.00    +0.000 A 
ATOM     22  C   UNL     1      -1.947  12.117  19.346  0.00  0.00    +0.000 A 
ATOM     23  C   UNL     1      -1.279  11.225  18.493  0.00  0.00    +0.000 A 
ATOM     24  C   UNL     1      -2.053  10.403  17.657  0.00  0.00    +0.000 A 
ATOM     25  C   UNL     1      -3.456  10.483  17.667  0.00  0.00    +0.000 A 
BRANCH  20  26
ATOM     26  C   UNL     1      -5.588  11.556  18.536  0.00  0.00    +0.000 C 
ATOM     27  O   UNL     1      -6.266  11.688  17.528  0.00  0.00    +0.000 OA
BRANCH  26  29
ATOM     28  C   UNL     1      -7.137  10.599  19.991  0.00  0.00    +0.000 C 
ATOM     29  O   UNL     1      -6.059  11.519  19.807  0.00  0.00    +0.000 OA
ENDBRANCH  26  29
ENDBRANCH  20  26
ENDBRANCH  19  23
ENDBRANCH  18  19
ENDBRANCH   1  18
TORSDOF 7
ENDMDL
