MODEL 1
REMARK VINA RESULT:      -7.5      0.000      0.000
REMARK  Name = 
REMARK  7 active torsions:
REMARK  status: ('A' for Active; 'I' for Inactive)
REMARK    1  A    between atoms: C_1  and  C_2
REMARK    2  A    between atoms: C_2  and  C_3
REMARK    3  A    between atoms: N_6  and  C_7
REMARK    4  A    between atoms: C_11  and  C_13
REMARK    5  A    between atoms: C_16  and  C_17
REMARK    6  A    between atoms: C_17  and  O_18
REMARK    7  A    between atoms: O_18  and  C_19
REMARK                            x       y       z     vdW  Elec       q    Type
REMARK                         _______ _______ _______ _____ _____    ______ ____
ROOT
ATOM      1  C   UNL     1       1.051  10.751  19.437  0.00  0.00    +0.000 A 
ATOM      2  C   UNL     1       1.791  11.161  18.345  0.00  0.00    +0.000 A 
ATOM      3  O   UNL     1       2.264  10.065  17.691  0.00  0.00    +0.000 OA
ATOM      4  C   UNL     1       1.807   9.020  18.449  0.00  0.00    +0.000 A 
ATOM      5  N   UNL     1       1.123   9.379  19.518  0.00  0.00    +0.000 NA
ENDROOT
BRANCH   1  14
ATOM      6  C   UNL     1      -1.752  12.310  19.111  0.00  0.00    +0.000 C 
ATOM      7  C   UNL     1      -3.258  12.100  19.501  0.00  0.00    +0.000 C 
ATOM      8  O   UNL     1      -4.104  11.639  18.737  0.00  0.00    +0.000 OA
ATOM      9  N   UNL     1      -3.625  12.730  20.694  0.00  0.00    +0.000 N 
ATOM     10  C   UNL     1      -5.017  13.035  20.950  0.00  0.00    +0.000 C 
ATOM     11  C   UNL     1      -2.732  12.612  21.835  0.00  0.00    +0.000 C 
ATOM     12  C   UNL     1      -1.297  12.951  21.450  0.00  0.00    +0.000 C 
ATOM     13  N   UNL     1      -0.853  12.140  20.305  0.00  0.00    +0.000 N 
ATOM     14  C   UNL     1       0.462  11.655  20.415  0.00  0.00    +0.000 C 
ATOM     15  O   UNL     1       1.154  11.965  21.390  0.00  0.00    +0.000 OA
BRANCH   6  17
ATOM     16  C   UNL     1      -1.807  10.193  17.647  0.00  0.00    +0.000 C 
ATOM     17  C   UNL     1      -1.425  11.675  17.753  0.00  0.00    +0.000 C 
ENDBRANCH   6  17
ENDBRANCH   1  14
BRANCH   4  18
ATOM     18  C   UNL     1       2.256   7.652  18.079  0.00  0.00    +0.000 C 
BRANCH  18  19
ATOM     19  O   UNL     1       2.458   6.886  19.271  0.00  0.00    +0.000 OA
BRANCH  19  20
ATOM     20  C   UNL     1       2.056   5.578  19.188  0.00  0.00    +0.000 A 
ATOM     21  C   UNL     1       1.975   4.825  18.010  0.00  0.00    +0.000 A 
ATOM     22  C   UNL     1       1.560   3.490  18.043  0.00  0.00    +0.000 A 
ATOM     23  C   UNL     1       1.222   2.901  19.255  0.00  0.00    +0.000 A 
ATOM     24  C   UNL     1       1.308   3.647  20.425  0.00  0.00    +0.000 A 
ATOM     25  F   UNL     1       0.982   3.074  21.590  0.00  0.00    +0.000 F 
ATOM     26  C   UNL     1       1.731   4.972  20.407  0.00  0.00    +0.000 A 
ENDBRANCH  19  20
ENDBRANCH  18  19
ENDBRANCH   4  18
TORSDOF 5
ENDMDL
MODEL 2
REMARK VINA RESULT:      -7.4      6.395      9.498
REMARK  Name = 
REMARK  7 active torsions:
REMARK  status: ('A' for Active; 'I' for Inactive)
REMARK    1  A    between atoms: C_1  and  C_2
REMARK    2  A    between atoms: C_2  and  C_3
REMARK    3  A    between atoms: N_6  and  C_7
REMARK    4  A    between atoms: C_11  and  C_13
REMARK    5  A    between atoms: C_16  and  C_17
REMARK    6  A    between atoms: C_17  and  O_18
REMARK    7  A    between atoms: O_18  and  C_19
REMARK                            x       y       z     vdW  Elec       q    Type
REMARK                         _______ _______ _______ _____ _____    ______ ____
ROOT
ATOM      1  C   UNL     1       6.248   5.554  18.094  0.00  0.00    +0.000 A 
ATOM      2  C   UNL     1       6.018   5.693  16.739  0.00  0.00    +0.000 A 
ATOM      3  O   UNL     1       6.592   6.849  16.307  0.00  0.00    +0.000 OA
ATOM      4  C   UNL     1       7.127   7.385  17.448  0.00  0.00    +0.000 A 
ATOM      5  N   UNL     1       6.909   6.676  18.539  0.00  0.00    +0.000 NA
ENDROOT
BRANCH   1  14
ATOM      6  C   UNL     1       3.123   5.023  18.685  0.00  0.00    +0.000 C 
ATOM      7  C   UNL     1       1.952   4.161  18.094  0.00  0.00    +0.000 C 
ATOM      8  O   UNL     1       1.120   4.592  17.298  0.00  0.00    +0.000 OA
ATOM      9  N   UNL     1       1.764   2.941  18.750  0.00  0.00    +0.000 N 
ATOM     10  C   UNL     1       0.488   2.262  18.659  0.00  0.00    +0.000 C 
ATOM     11  C   UNL     1       2.938   2.144  19.067  0.00  0.00    +0.000 C 
ATOM     12  C   UNL     1       4.004   2.984  19.758  0.00  0.00    +0.000 C 
ATOM     13  N   UNL     1       4.335   4.177  18.962  0.00  0.00    +0.000 N 
ATOM     14  C   UNL     1       5.708   4.476  18.911  0.00  0.00    +0.000 C 
ATOM     15  O   UNL     1       6.513   3.789  19.548  0.00  0.00    +0.000 OA
BRANCH   6  17
ATOM     16  C   UNL     1       2.452   7.509  18.690  0.00  0.00    +0.000 C 
ATOM     17  C   UNL     1       3.229   6.387  17.989  0.00  0.00    +0.000 C 
ENDBRANCH   6  17
ENDBRANCH   1  14
BRANCH   4  18
ATOM     18  C   UNL     1       7.735   8.738  17.355  0.00  0.00    +0.000 C 
BRANCH  18  19
ATOM     19  O   UNL     1       8.534   8.975  18.518  0.00  0.00    +0.000 OA
BRANCH  19  20
ATOM     20  C   UNL     1       9.002  10.258  18.642  0.00  0.00    +0.000 A 
ATOM     21  C   UNL     1       8.691  11.323  17.787  0.00  0.00    +0.000 A 
ATOM     22  C   UNL     1       9.219  12.598  18.014  0.00  0.00    +0.000 A 
ATOM     23  C   UNL     1      10.063  12.815  19.097  0.00  0.00    +0.000 A 
ATOM     24  C   UNL     1      10.366  11.758  19.948  0.00  0.00    +0.000 A 
ATOM     25  F   UNL     1      11.179  11.973  20.991  0.00  0.00    +0.000 F 
ATOM     26  C   UNL     1       9.838  10.488  19.740  0.00  0.00    +0.000 A 
ENDBRANCH  19  20
ENDBRANCH  18  19
ENDBRANCH   4  18
TORSDOF 5
ENDMDL
MODEL 3
REMARK VINA RESULT:      -7.4      4.598      6.926
REMARK  Name = 
REMARK  7 active torsions:
REMARK  status: ('A' for Active; 'I' for Inactive)
REMARK    1  A    between atoms: C_1  and  C_2
REMARK    2  A    between atoms: C_2  and  C_3
REMARK    3  A    between atoms: N_6  and  C_7
REMARK    4  A    between atoms: C_11  and  C_13
REMARK    5  A    between atoms: C_16  and  C_17
REMARK    6  A    between atoms: C_17  and  O_18
REMARK    7  A    between atoms: O_18  and  C_19
REMARK                            x       y       z     vdW  Elec       q    Type
REMARK                         _______ _______ _______ _____ _____    ______ ____
ROOT
ATOM      1  C   UNL     1       2.595   4.640  18.798  0.00  0.00    +0.000 A 
ATOM      2  C   UNL     1       1.673   4.071  17.941  0.00  0.00    +0.000 A 
ATOM      3  O   UNL     1       2.334   3.396  16.962  0.00  0.00    +0.000 OA
ATOM      4  C   UNL     1       3.653   3.618  17.256  0.00  0.00    +0.000 A 
ATOM      5  N   UNL     1       3.856   4.386  18.309  0.00  0.00    +0.000 NA
ENDROOT
BRANCH   1  14
ATOM      6  C   UNL     1       2.668   7.863  18.776  0.00  0.00    +0.000 C 
ATOM      7  C   UNL     1       1.678   9.053  18.513  0.00  0.00    +0.000 C 
ATOM      8  O   UNL     1       1.583   9.637  17.435  0.00  0.00    +0.000 OA
ATOM      9  N   UNL     1       1.106   9.577  19.676  0.00  0.00    +0.000 N 
ATOM     10  C   UNL     1       0.569  10.921  19.672  0.00  0.00    +0.000 C 
ATOM     11  C   UNL     1       0.606   8.647  20.675  0.00  0.00    +0.000 C 
ATOM     12  C   UNL     1       1.644   7.580  21.002  0.00  0.00    +0.000 C 
ATOM     13  N   UNL     1       2.104   6.898  19.782  0.00  0.00    +0.000 N 
ATOM     14  C   UNL     1       2.250   5.506  19.917  0.00  0.00    +0.000 C 
ATOM     15  O   UNL     1       2.046   4.968  21.010  0.00  0.00    +0.000 OA
BRANCH   6  17
ATOM     16  C   UNL     1       4.867   7.344  17.542  0.00  0.00    +0.000 C 
ATOM     17  C   UNL     1       3.335   7.384  17.479  0.00  0.00    +0.000 C 
ENDBRANCH   6  17
ENDBRANCH   1  14
BRANCH   4  18
ATOM     18  C   UNL     1       4.669   3.114  16.294  0.00  0.00    +0.000 C 
BRANCH  18  19
ATOM     19  O   UNL     1       5.575   4.173  15.972  0.00  0.00    +0.000 OA
BRANCH  19  20
ATOM     20  C   UNL     1       6.039   4.158  14.681  0.00  0.00    +0.000 A 
ATOM     21  C   UNL     1       5.494   3.410  13.629  0.00  0.00    +0.000 A 
ATOM     22  C   UNL     1       6.043   3.479  12.346  0.00  0.00    +0.000 A 
ATOM     23  C   UNL     1       7.142   4.296  12.106  0.00  0.00    +0.000 A 
ATOM     24  C   UNL     1       7.678   5.042  13.149  0.00  0.00    +0.000 A 
ATOM     25  F   UNL     1       8.736   5.828  12.911  0.00  0.00    +0.000 F 
ATOM     26  C   UNL     1       7.134   4.992  14.428  0.00  0.00    +0.000 A 
ENDBRANCH  19  20
ENDBRANCH  18  19
ENDBRANCH   4  18
TORSDOF 5
ENDMDL
MODEL 4
REMARK VINA RESULT:      -7.4      1.536      1.656
REMARK  Name = 
REMARK  7 active torsions:
REMARK  status: ('A' for Active; 'I' for Inactive)
REMARK    1  A    between atoms: C_1  and  C_2
REMARK    2  A    between atoms: C_2  and  C_3
REMARK    3  A    between atoms: N_6  and  C_7
REMARK    4  A    between atoms: C_11  and  C_13
REMARK    5  A    between atoms: C_16  and  C_17
REMARK    6  A    between atoms: C_17  and  O_18
REMARK    7  A    between atoms: O_18  and  C_19
REMARK                            x       y       z     vdW  Elec       q    Type
REMARK                         _______ _______ _______ _____ _____    ______ ____
ROOT
ATOM      1  C   UNL     1       1.315  10.710  19.072  0.00  0.00    +0.000 A 
ATOM      2  C   UNL     1       1.706   9.940  17.994  0.00  0.00    +0.000 A 
ATOM      3  O   UNL     1       1.808   8.641  18.388  0.00  0.00    +0.000 OA
ATOM      4  C   UNL     1       1.499   8.687  19.722  0.00  0.00    +0.000 A 
ATOM      5  N   UNL     1       1.245   9.897  20.182  0.00  0.00    +0.000 NA
ENDROOT
BRANCH   1  14
ATOM      6  C   UNL     1      -1.455  12.356  19.174  0.00  0.00    +0.000 C 
ATOM      7  C   UNL     1      -2.368  13.042  20.251  0.00  0.00    +0.000 C 
ATOM      8  O   UNL     1      -3.355  12.505  20.751  0.00  0.00    +0.000 OA
ATOM      9  N   UNL     1      -2.134  14.412  20.399  0.00  0.00    +0.000 N 
ATOM     10  C   UNL     1      -3.158  15.261  20.969  0.00  0.00    +0.000 C 
ATOM     11  C   UNL     1      -0.755  14.869  20.465  0.00  0.00    +0.000 C 
ATOM     12  C   UNL     1       0.073  14.287  19.326  0.00  0.00    +0.000 C 
ATOM     13  N   UNL     1      -0.029  12.819  19.296  0.00  0.00    +0.000 N 
ATOM     14  C   UNL     1       1.186  12.160  19.042  0.00  0.00    +0.000 C 
ATOM     15  O   UNL     1       2.209  12.816  18.817  0.00  0.00    +0.000 OA
BRANCH   6  17
ATOM     16  C   UNL     1      -2.061  10.472  17.528  0.00  0.00    +0.000 C 
ATOM     17  C   UNL     1      -1.812  10.876  18.987  0.00  0.00    +0.000 C 
ENDBRANCH   6  17
ENDBRANCH   1  14
BRANCH   4  18
ATOM     18  C   UNL     1       1.637   7.432  20.506  0.00  0.00    +0.000 C 
BRANCH  18  19
ATOM     19  O   UNL     1       2.546   6.555  19.833  0.00  0.00    +0.000 OA
BRANCH  19  20
ATOM     20  C   UNL     1       2.068   5.288  19.617  0.00  0.00    +0.000 A 
ATOM     21  C   UNL     1       1.913   4.679  18.365  0.00  0.00    +0.000 A 
ATOM     22  C   UNL     1       1.424   3.373  18.263  0.00  0.00    +0.000 A 
ATOM     23  C   UNL     1       1.085   2.669  19.412  0.00  0.00    +0.000 A 
ATOM     24  C   UNL     1       1.244   3.273  20.655  0.00  0.00    +0.000 A 
ATOM     25  F   UNL     1       0.917   2.589  21.758  0.00  0.00    +0.000 F 
ATOM     26  C   UNL     1       1.741   4.567  20.770  0.00  0.00    +0.000 A 
ENDBRANCH  19  20
ENDBRANCH  18  19
ENDBRANCH   4  18
TORSDOF 5
ENDMDL
MODEL 5
REMARK VINA RESULT:      -7.3      6.446      9.804
REMARK  Name = 
REMARK  7 active torsions:
REMARK  status: ('A' for Active; 'I' for Inactive)
REMARK    1  A    between atoms: C_1  and  C_2
REMARK    2  A    between atoms: C_2  and  C_3
REMARK    3  A    between atoms: N_6  and  C_7
REMARK    4  A    between atoms: C_11  and  C_13
REMARK    5  A    between atoms: C_16  and  C_17
REMARK    6  A    between atoms: C_17  and  O_18
REMARK    7  A    between atoms: O_18  and  C_19
REMARK                            x       y       z     vdW  Elec       q    Type
REMARK                         _______ _______ _______ _____ _____    ______ ____
ROOT
ATOM      1  C   UNL     1       6.517   5.978  18.051  0.00  0.00    +0.000 A 
ATOM      2  C   UNL     1       5.935   6.471  16.900  0.00  0.00    +0.000 A 
ATOM      3  O   UNL     1       6.512   7.663  16.585  0.00  0.00    +0.000 OA
ATOM      4  C   UNL     1       7.413   7.857  17.597  0.00  0.00    +0.000 A 
ATOM      5  N   UNL     1       7.420   6.908  18.513  0.00  0.00    +0.000 NA
ENDROOT
BRANCH   1  14
ATOM      6  C   UNL     1       3.477   5.199  18.790  0.00  0.00    +0.000 C 
ATOM      7  C   UNL     1       2.296   4.376  18.163  0.00  0.00    +0.000 C 
ATOM      8  O   UNL     1       1.383   4.880  17.511  0.00  0.00    +0.000 OA
ATOM      9  N   UNL     1       2.213   3.062  18.634  0.00  0.00    +0.000 N 
ATOM     10  C   UNL     1       0.962   2.340  18.537  0.00  0.00    +0.000 C 
ATOM     11  C   UNL     1       3.440   2.290  18.731  0.00  0.00    +0.000 C 
ATOM     12  C   UNL     1       4.526   3.070  19.462  0.00  0.00    +0.000 C 
ATOM     13  N   UNL     1       4.741   4.386  18.838  0.00  0.00    +0.000 N 
ATOM     14  C   UNL     1       6.091   4.761  18.729  0.00  0.00    +0.000 C 
ATOM     15  O   UNL     1       6.974   4.028  19.188  0.00  0.00    +0.000 OA
BRANCH   6  17
ATOM     16  C   UNL     1       2.445   7.546  19.027  0.00  0.00    +0.000 C 
ATOM     17  C   UNL     1       3.469   6.657  18.310  0.00  0.00    +0.000 C 
ENDBRANCH   6  17
ENDBRANCH   1  14
BRANCH   4  18
ATOM     18  C   UNL     1       8.144   9.151  17.631  0.00  0.00    +0.000 C 
BRANCH  18  19
ATOM     19  O   UNL     1       8.591   9.404  18.967  0.00  0.00    +0.000 OA
BRANCH  19  20
ATOM     20  C   UNL     1       9.430  10.481  19.098  0.00  0.00    +0.000 A 
ATOM     21  C   UNL     1       9.932  10.979  20.307  0.00  0.00    +0.000 A 
ATOM     22  C   UNL     1      10.792  12.080  20.324  0.00  0.00    +0.000 A 
ATOM     23  C   UNL     1      11.155  12.692  19.130  0.00  0.00    +0.000 A 
ATOM     24  C   UNL     1      10.661  12.194  17.929  0.00  0.00    +0.000 A 
ATOM     25  F   UNL     1      11.015  12.787  16.782  0.00  0.00    +0.000 F 
ATOM     26  C   UNL     1       9.814  11.091  17.899  0.00  0.00    +0.000 A 
ENDBRANCH  19  20
ENDBRANCH  18  19
ENDBRANCH   4  18
TORSDOF 5
ENDMDL
MODEL 6
REMARK VINA RESULT:      -7.3      1.716      2.870
REMARK  Name = 
REMARK  7 active torsions:
REMARK  status: ('A' for Active; 'I' for Inactive)
REMARK    1  A    between atoms: C_1  and  C_2
REMARK    2  A    between atoms: C_2  and  C_3
REMARK    3  A    between atoms: N_6  and  C_7
REMARK    4  A    between atoms: C_11  and  C_13
REMARK    5  A    between atoms: C_16  and  C_17
REMARK    6  A    between atoms: C_17  and  O_18
REMARK    7  A    between atoms: O_18  and  C_19
REMARK                            x       y       z     vdW  Elec       q    Type
REMARK                         _______ _______ _______ _____ _____    ______ ____
ROOT
ATOM      1  C   UNL     1      -0.064  10.978  18.510  0.00  0.00    +0.000 A 
ATOM      2  C   UNL     1       1.151  11.623  18.630  0.00  0.00    +0.000 A 
ATOM      3  O   UNL     1       2.153  10.739  18.369  0.00  0.00    +0.000 OA
ATOM      4  C   UNL     1       1.488   9.567  18.129  0.00  0.00    +0.000 A 
ATOM      5  N   UNL     1       0.176   9.649  18.246  0.00  0.00    +0.000 NA
ENDROOT
BRANCH   1  14
ATOM      6  C   UNL     1      -1.227  11.614  21.449  0.00  0.00    +0.000 C 
ATOM      7  C   UNL     1      -1.263  12.817  22.457  0.00  0.00    +0.000 C 
ATOM      8  O   UNL     1      -0.471  12.953  23.387  0.00  0.00    +0.000 OA
ATOM      9  N   UNL     1      -2.432  13.580  22.381  0.00  0.00    +0.000 N 
ATOM     10  C   UNL     1      -2.833  14.398  23.506  0.00  0.00    +0.000 C 
ATOM     11  C   UNL     1      -2.932  13.941  21.064  0.00  0.00    +0.000 C 
ATOM     12  C   UNL     1      -3.008  12.723  20.151  0.00  0.00    +0.000 C 
ATOM     13  N   UNL     1      -1.711  12.030  20.087  0.00  0.00    +0.000 N 
ATOM     14  C   UNL     1      -1.351  11.593  18.800  0.00  0.00    +0.000 C 
ATOM     15  O   UNL     1      -2.128  11.758  17.854  0.00  0.00    +0.000 OA
BRANCH   6  17
ATOM     16  C   UNL     1      -0.159   9.556  22.569  0.00  0.00    +0.000 C 
ATOM     17  C   UNL     1       0.033  10.758  21.634  0.00  0.00    +0.000 C 
ENDBRANCH   6  17
ENDBRANCH   1  14
BRANCH   4  18
ATOM     18  C   UNL     1       2.303   8.340  17.927  0.00  0.00    +0.000 C 
BRANCH  18  19
ATOM     19  O   UNL     1       2.593   7.754  19.200  0.00  0.00    +0.000 OA
BRANCH  19  20
ATOM     20  C   UNL     1       2.212   6.443  19.329  0.00  0.00    +0.000 A 
ATOM     21  C   UNL     1       1.716   5.852  20.498  0.00  0.00    +0.000 A 
ATOM     22  C   UNL     1       1.347   4.504  20.515  0.00  0.00    +0.000 A 
ATOM     23  C   UNL     1       1.473   3.738  19.362  0.00  0.00    +0.000 A 
ATOM     24  C   UNL     1       1.961   4.327  18.200  0.00  0.00    +0.000 A 
ATOM     25  F   UNL     1       2.079   3.584  17.092  0.00  0.00    +0.000 F 
ATOM     26  C   UNL     1       2.320   5.670  18.168  0.00  0.00    +0.000 A 
ENDBRANCH  19  20
ENDBRANCH  18  19
ENDBRANCH   4  18
TORSDOF 5
ENDMDL
MODEL 7
REMARK VINA RESULT:      -7.3      1.820      2.212
REMARK  Name = 
REMARK  7 active torsions:
REMARK  status: ('A' for Active; 'I' for Inactive)
REMARK    1  A    between atoms: C_1  and  C_2
REMARK    2  A    between atoms: C_2  and  C_3
REMARK    3  A    between atoms: N_6  and  C_7
REMARK    4  A    between atoms: C_11  and  C_13
REMARK    5  A    between atoms: C_16  and  C_17
REMARK    6  A    between atoms: C_17  and  O_18
REMARK    7  A    between atoms: O_18  and  C_19
REMARK                            x       y       z     vdW  Elec       q    Type
REMARK                         _______ _______ _______ _____ _____    ______ ____
ROOT
ATOM      1  C   UNL     1       1.437  10.545  18.884  0.00  0.00    +0.000 A 
ATOM      2  C   UNL     1       1.805   9.732  17.830  0.00  0.00    +0.000 A 
ATOM      3  O   UNL     1       1.884   8.445  18.267  0.00  0.00    +0.000 OA
ATOM      4  C   UNL     1       1.586   8.542  19.599  0.00  0.00    +0.000 A 
ATOM      5  N   UNL     1       1.359   9.772  20.020  0.00  0.00    +0.000 NA
ENDROOT
BRANCH   1  14
ATOM      6  C   UNL     1      -1.287  12.258  19.086  0.00  0.00    +0.000 C 
ATOM      7  C   UNL     1      -2.119  13.003  20.189  0.00  0.00    +0.000 C 
ATOM      8  O   UNL     1      -3.085  12.508  20.767  0.00  0.00    +0.000 OA
ATOM      9  N   UNL     1      -1.848  14.372  20.270  0.00  0.00    +0.000 N 
ATOM     10  C   UNL     1      -2.818  15.265  20.867  0.00  0.00    +0.000 C 
ATOM     11  C   UNL     1      -0.459  14.800  20.236  0.00  0.00    +0.000 C 
ATOM     12  C   UNL     1       0.288  14.157  19.073  0.00  0.00    +0.000 C 
ATOM     13  N   UNL     1       0.153  12.691  19.106  0.00  0.00    +0.000 N 
ATOM     14  C   UNL     1       1.337  11.995  18.805  0.00  0.00    +0.000 C 
ATOM     15  O   UNL     1       2.357  12.619  18.495  0.00  0.00    +0.000 OA
BRANCH   6  17
ATOM     16  C   UNL     1      -2.006  10.322  17.549  0.00  0.00    +0.000 C 
ATOM     17  C   UNL     1      -1.686  10.780  18.978  0.00  0.00    +0.000 C 
ENDBRANCH   6  17
ENDBRANCH   1  14
BRANCH   4  18
ATOM     18  C   UNL     1       1.704   7.311  20.424  0.00  0.00    +0.000 C 
BRANCH  18  19
ATOM     19  O   UNL     1       2.606   6.403  19.786  0.00  0.00    +0.000 OA
BRANCH  19  20
ATOM     20  C   UNL     1       2.105   5.142  19.585  0.00  0.00    +0.000 A 
ATOM     21  C   UNL     1       1.271   4.448  20.471  0.00  0.00    +0.000 A 
ATOM     22  C   UNL     1       0.809   3.166  20.159  0.00  0.00    +0.000 A 
ATOM     23  C   UNL     1       1.180   2.569  18.960  0.00  0.00    +0.000 A 
ATOM     24  C   UNL     1       2.004   3.261  18.079  0.00  0.00    +0.000 A 
ATOM     25  F   UNL     1       2.356   2.682  16.924  0.00  0.00    +0.000 F 
ATOM     26  C   UNL     1       2.460   4.542  18.372  0.00  0.00    +0.000 A 
ENDBRANCH  19  20
ENDBRANCH  18  19
ENDBRANCH   4  18
TORSDOF 5
ENDMDL
MODEL 8
REMARK VINA RESULT:      -7.3      1.677      2.827
REMARK  Name = 
REMARK  7 active torsions:
REMARK  status: ('A' for Active; 'I' for Inactive)
REMARK    1  A    between atoms: C_1  and  C_2
REMARK    2  A    between atoms: C_2  and  C_3
REMARK    3  A    between atoms: N_6  and  C_7
REMARK    4  A    between atoms: C_11  and  C_13
REMARK    5  A    between atoms: C_16  and  C_17
REMARK    6  A    between atoms: C_17  and  O_18
REMARK    7  A    between atoms: O_18  and  C_19
REMARK                            x       y       z     vdW  Elec       q    Type
REMARK                         _______ _______ _______ _____ _____    ______ ____
ROOT
ATOM      1  C   UNL     1       0.694   9.625  17.985  0.00  0.00    +0.000 A 
ATOM      2  C   UNL     1       1.869  10.351  17.991  0.00  0.00    +0.000 A 
ATOM      3  O   UNL     1       2.923   9.492  17.934  0.00  0.00    +0.000 OA
ATOM      4  C   UNL     1       2.330   8.259  17.928  0.00  0.00    +0.000 A 
ATOM      5  N   UNL     1       1.013   8.286  18.003  0.00  0.00    +0.000 NA
ENDROOT
BRANCH   1  14
ATOM      6  C   UNL     1      -0.617  10.704  20.726  0.00  0.00    +0.000 C 
ATOM      7  C   UNL     1      -0.751  12.062  21.501  0.00  0.00    +0.000 C 
ATOM      8  O   UNL     1      -0.005  12.403  22.418  0.00  0.00    +0.000 OA
ATOM      9  N   UNL     1      -1.951  12.736  21.255  0.00  0.00    +0.000 N 
ATOM     10  C   UNL     1      -2.437  13.715  22.203  0.00  0.00    +0.000 C 
ATOM     11  C   UNL     1      -2.415  12.830  19.880  0.00  0.00    +0.000 C 
ATOM     12  C   UNL     1      -2.395  11.469  19.196  0.00  0.00    +0.000 C 
ATOM     13  N   UNL     1      -1.064  10.847  19.297  0.00  0.00    +0.000 N 
ATOM     14  C   UNL     1      -0.632  10.210  18.121  0.00  0.00    +0.000 C 
ATOM     15  O   UNL     1      -1.376  10.164  17.136  0.00  0.00    +0.000 OA
BRANCH   6  17
ATOM     16  C   UNL     1       0.456   8.517  21.559  0.00  0.00    +0.000 C 
ATOM     17  C   UNL     1       0.675   9.964  21.100  0.00  0.00    +0.000 C 
ENDBRANCH   6  17
ENDBRANCH   1  14
BRANCH   4  18
ATOM     18  C   UNL     1       3.215   7.067  17.997  0.00  0.00    +0.000 C 
BRANCH  18  19
ATOM     19  O   UNL     1       3.143   6.503  19.310  0.00  0.00    +0.000 OA
BRANCH  19  20
ATOM     20  C   UNL     1       2.458   5.317  19.390  0.00  0.00    +0.000 A 
ATOM     21  C   UNL     1       1.588   4.949  20.423  0.00  0.00    +0.000 A 
ATOM     22  C   UNL     1       0.932   3.715  20.398  0.00  0.00    +0.000 A 
ATOM     23  C   UNL     1       1.145   2.840  19.339  0.00  0.00    +0.000 A 
ATOM     24  C   UNL     1       2.005   3.209  18.311  0.00  0.00    +0.000 A 
ATOM     25  F   UNL     1       2.205   2.362  17.293  0.00  0.00    +0.000 F 
ATOM     26  C   UNL     1       2.654   4.439  18.319  0.00  0.00    +0.000 A 
ENDBRANCH  19  20
ENDBRANCH  18  19
ENDBRANCH   4  18
TORSDOF 5
ENDMDL
MODEL 9
REMARK VINA RESULT:      -7.2      4.461      6.812
REMARK  Name = 
REMARK  7 active torsions:
REMARK  status: ('A' for Active; 'I' for Inactive)
REMARK    1  A    between atoms: C_1  and  C_2
REMARK    2  A    between atoms: C_2  and  C_3
REMARK    3  A    between atoms: N_6  and  C_7
REMARK    4  A    between atoms: C_11  and  C_13
REMARK    5  A    between atoms: C_16  and  C_17
REMARK    6  A    between atoms: C_17  and  O_18
REMARK    7  A    between atoms: O_18  and  C_19
REMARK                            x       y       z     vdW  Elec       q    Type
REMARK                         _______ _______ _______ _____ _____    ______ ____
ROOT
ATOM      1  C   UNL     1       2.566   4.683  18.812  0.00  0.00    +0.000 A 
ATOM      2  C   UNL     1       1.640   4.086  17.981  0.00  0.00    +0.000 A 
ATOM      3  O   UNL     1       2.294   3.425  16.987  0.00  0.00    +0.000 OA
ATOM      4  C   UNL     1       3.613   3.682  17.248  0.00  0.00    +0.000 A 
ATOM      5  N   UNL     1       3.822   4.461  18.293  0.00  0.00    +0.000 NA
ENDROOT
BRANCH   1  14
ATOM      6  C   UNL     1       2.612   7.907  18.793  0.00  0.00    +0.000 C 
ATOM      7  C   UNL     1       1.609   9.088  18.542  0.00  0.00    +0.000 C 
ATOM      8  O   UNL     1       1.497   9.673  17.467  0.00  0.00    +0.000 OA
ATOM      9  N   UNL     1       1.045   9.606  19.712  0.00  0.00    +0.000 N 
ATOM     10  C   UNL     1       0.496  10.946  19.716  0.00  0.00    +0.000 C 
ATOM     11  C   UNL     1       0.564   8.670  20.715  0.00  0.00    +0.000 C 
ATOM     12  C   UNL     1       1.615   7.612  21.030  0.00  0.00    +0.000 C 
ATOM     13  N   UNL     1       2.067   6.935  19.804  0.00  0.00    +0.000 N 
ATOM     14  C   UNL     1       2.226   5.545  19.935  0.00  0.00    +0.000 C 
ATOM     15  O   UNL     1       2.039   5.004  21.030  0.00  0.00    +0.000 OA
BRANCH   6  17
ATOM     16  C   UNL     1       4.802   7.422  17.530  0.00  0.00    +0.000 C 
ATOM     17  C   UNL     1       3.268   7.435  17.489  0.00  0.00    +0.000 C 
ENDBRANCH   6  17
ENDBRANCH   1  14
BRANCH   4  18
ATOM     18  C   UNL     1       4.618   3.201  16.264  0.00  0.00    +0.000 C 
BRANCH  18  19
ATOM     19  O   UNL     1       5.604   4.218  16.065  0.00  0.00    +0.000 OA
BRANCH  19  20
ATOM     20  C   UNL     1       6.123   4.275  14.796  0.00  0.00    +0.000 A 
ATOM     21  C   UNL     1       7.202   5.071  14.394  0.00  0.00    +0.000 A 
ATOM     22  C   UNL     1       7.656   5.043  13.072  0.00  0.00    +0.000 A 
ATOM     23  C   UNL     1       7.032   4.218  12.143  0.00  0.00    +0.000 A 
ATOM     24  C   UNL     1       5.963   3.424  12.545  0.00  0.00    +0.000 A 
ATOM     25  F   UNL     1       5.367   2.631  11.646  0.00  0.00    +0.000 F 
ATOM     26  C   UNL     1       5.511   3.434  13.860  0.00  0.00    +0.000 A 
ENDBRANCH  19  20
ENDBRANCH  18  19
ENDBRANCH   4  18
TORSDOF 5
ENDMDL
