MODEL 1
REMARK VINA RESULT:      -8.4      0.000      0.000
REMARK  Name = 
REMARK  5 active torsions:
REMARK  status: ('A' for Active; 'I' for Inactive)
REMARK    1  A    between atoms: C_1  and  C_2
REMARK    2  A    between atoms: C_8  and  N_9
REMARK    3  A    between atoms: N_12  and  C_13
REMARK    4  A    between atoms: C_13  and  C_14
REMARK    5  A    between atoms: C_16  and  C_17
REMARK                            x       y       z     vdW  Elec       q    Type
REMARK                         _______ _______ _______ _____ _____    ______ ____
ROOT
ATOM      1  N   UNL     1       4.935   5.177  18.383  0.00  0.00    +0.000 N 
ATOM      2  C   UNL     1       6.209   4.674  18.910  0.00  0.00    +0.000 C 
ATOM      3  C   UNL     1       7.355   4.913  17.914  0.00  0.00    +0.000 C 
ATOM      4  N   UNL     1       7.504   6.305  17.442  0.00  0.00    +0.000 NA
ATOM      5  C   UNL     1       6.190   6.727  16.893  0.00  0.00    +0.000 C 
ATOM      6  C   UNL     1       4.991   6.560  17.864  0.00  0.00    +0.000 C 
ENDROOT
BRANCH   1  14
ATOM      7  C   UNL     1       2.457   6.121  19.913  0.00  0.00    +0.000 C 
ATOM      8  C   UNL     1       2.595   4.837  19.133  0.00  0.00    +0.000 A 
ATOM      9  C   UNL     1       1.452   4.010  19.115  0.00  0.00    +0.000 A 
ATOM     10  C   UNL     1       1.433   2.825  18.404  0.00  0.00    +0.000 A 
ATOM     11  F   UNL     1       0.326   2.066  18.388  0.00  0.00    +0.000 F 
ATOM     12  C   UNL     1       2.559   2.404  17.709  0.00  0.00    +0.000 A 
ATOM     13  C   UNL     1       3.697   3.214  17.728  0.00  0.00    +0.000 A 
ATOM     14  C   UNL     1       3.759   4.447  18.421  0.00  0.00    +0.000 A 
ENDBRANCH   1  14
BRANCH   4  15
ATOM     15  C   UNL     1       7.941   7.229  18.499  0.00  0.00    +0.000 C 
BRANCH  15  16
ATOM     16  C   UNL     1       8.522   8.486  17.926  0.00  0.00    +0.000 C 
ATOM     17  C   UNL     1       7.636   9.612  17.452  0.00  0.00    +0.000 C 
ATOM     18  C   UNL     1       8.423   9.774  18.727  0.00  0.00    +0.000 C 
BRANCH  18  19
ATOM     19  C   UNL     1       9.642  10.664  18.852  0.00  0.00    +0.000 A 
ATOM     20  C   UNL     1      10.115  11.022  20.128  0.00  0.00    +0.000 A 
ATOM     21  C   UNL     1      11.255  11.814  20.299  0.00  0.00    +0.000 A 
ATOM     22  C   UNL     1      11.956  12.267  19.187  0.00  0.00    +0.000 A 
ATOM     23  C   UNL     1      11.517  11.930  17.912  0.00  0.00    +0.000 A 
ATOM     24  C   UNL     1      10.374  11.141  17.750  0.00  0.00    +0.000 A 
ENDBRANCH  18  19
ENDBRANCH  15  16
ENDBRANCH   4  15
TORSDOF 4
ENDMDL
MODEL 2
REMARK VINA RESULT:      -8.1      0.633      1.442
REMARK  Name = 
REMARK  5 active torsions:
REMARK  status: ('A' for Active; 'I' for Inactive)
REMARK    1  A    between atoms: C_1  and  C_2
REMARK    2  A    between atoms: C_8  and  N_9
REMARK    3  A    between atoms: N_12  and  C_13
REMARK    4  A    between atoms: C_13  and  C_14
REMARK    5  A    between atoms: C_16  and  C_17
REMARK                            x       y       z     vdW  Elec       q    Type
REMARK                         _______ _______ _______ _____ _____    ______ ____
ROOT
ATOM      1  N   UNL     1       5.034   5.518  18.705  0.00  0.00    +0.000 N 
ATOM      2  C   UNL     1       6.314   5.015  19.218  0.00  0.00    +0.000 C 
ATOM      3  C   UNL     1       7.436   5.196  18.183  0.00  0.00    +0.000 C 
ATOM      4  N   UNL     1       7.594   6.567  17.653  0.00  0.00    +0.000 NA
ATOM      5  C   UNL     1       6.271   6.988  17.123  0.00  0.00    +0.000 C 
ATOM      6  C   UNL     1       5.097   6.878  18.132  0.00  0.00    +0.000 C 
ENDROOT
BRANCH   1  14
ATOM      7  C   UNL     1       4.114   3.541  16.557  0.00  0.00    +0.000 C 
ATOM      8  C   UNL     1       3.374   3.899  17.822  0.00  0.00    +0.000 A 
ATOM      9  C   UNL     1       2.143   3.239  18.015  0.00  0.00    +0.000 A 
ATOM     10  C   UNL     1       1.385   3.447  19.152  0.00  0.00    +0.000 A 
ATOM     11  F   UNL     1       0.226   2.791  19.321  0.00  0.00    +0.000 F 
ATOM     12  C   UNL     1       1.810   4.342  20.125  0.00  0.00    +0.000 A 
ATOM     13  C   UNL     1       3.025   5.006  19.937  0.00  0.00    +0.000 A 
ATOM     14  C   UNL     1       3.849   4.809  18.803  0.00  0.00    +0.000 A 
ENDBRANCH   1  14
BRANCH   4  15
ATOM     15  C   UNL     1       8.072   7.523  18.661  0.00  0.00    +0.000 C 
BRANCH  15  16
ATOM     16  C   UNL     1       8.652   8.750  18.024  0.00  0.00    +0.000 C 
ATOM     17  C   UNL     1       7.769   9.887  17.570  0.00  0.00    +0.000 C 
ATOM     18  C   UNL     1       8.630  10.059  18.795  0.00  0.00    +0.000 C 
BRANCH  18  19
ATOM     19  C   UNL     1       9.875  10.920  18.830  0.00  0.00    +0.000 A 
ATOM     20  C   UNL     1      10.498  11.195  20.062  0.00  0.00    +0.000 A 
ATOM     21  C   UNL     1      11.668  11.956  20.145  0.00  0.00    +0.000 A 
ATOM     22  C   UNL     1      12.249  12.462  18.988  0.00  0.00    +0.000 A 
ATOM     23  C   UNL     1      11.660  12.208  17.754  0.00  0.00    +0.000 A 
ATOM     24  C   UNL     1      10.488  11.449  17.681  0.00  0.00    +0.000 A 
ENDBRANCH  18  19
ENDBRANCH  15  16
ENDBRANCH   4  15
TORSDOF 4
ENDMDL
MODEL 3
REMARK VINA RESULT:      -7.7      3.988      7.056
REMARK  Name = 
REMARK  5 active torsions:
REMARK  status: ('A' for Active; 'I' for Inactive)
REMARK    1  A    between atoms: C_1  and  C_2
REMARK    2  A    between atoms: C_8  and  N_9
REMARK    3  A    between atoms: N_12  and  C_13
REMARK    4  A    between atoms: C_13  and  C_14
REMARK    5  A    between atoms: C_16  and  C_17
REMARK                            x       y       z     vdW  Elec       q    Type
REMARK                         _______ _______ _______ _____ _____    ______ ____
ROOT
ATOM      1  N   UNL     1       4.676   4.632  18.311  0.00  0.00    +0.000 N 
ATOM      2  C   UNL     1       4.342   4.755  16.887  0.00  0.00    +0.000 C 
ATOM      3  C   UNL     1       4.893   6.064  16.299  0.00  0.00    +0.000 C 
ATOM      4  N   UNL     1       6.337   6.296  16.514  0.00  0.00    +0.000 NA
ATOM      5  C   UNL     1       6.587   6.191  17.974  0.00  0.00    +0.000 C 
ATOM      6  C   UNL     1       6.100   4.871  18.628  0.00  0.00    +0.000 C 
ENDROOT
BRANCH   1  14
ATOM      7  C   UNL     1       2.624   6.588  19.467  0.00  0.00    +0.000 C 
ATOM      8  C   UNL     1       2.800   5.140  19.853  0.00  0.00    +0.000 A 
ATOM      9  C   UNL     1       1.915   4.661  20.841  0.00  0.00    +0.000 A 
ATOM     10  C   UNL     1       1.944   3.343  21.256  0.00  0.00    +0.000 A 
ATOM     11  F   UNL     1       1.076   2.908  22.184  0.00  0.00    +0.000 F 
ATOM     12  C   UNL     1       2.874   2.459  20.725  0.00  0.00    +0.000 A 
ATOM     13  C   UNL     1       3.760   2.928  19.751  0.00  0.00    +0.000 A 
ATOM     14  C   UNL     1       3.755   4.262  19.276  0.00  0.00    +0.000 A 
ENDBRANCH   1  14
BRANCH   4  15
ATOM     15  C   UNL     1       7.189   5.353  15.777  0.00  0.00    +0.000 C 
BRANCH  15  16
ATOM     16  C   UNL     1       6.828   5.304  14.323  0.00  0.00    +0.000 C 
ATOM     17  C   UNL     1       7.882   5.427  13.250  0.00  0.00    +0.000 C 
ATOM     18  C   UNL     1       7.235   4.090  13.504  0.00  0.00    +0.000 C 
BRANCH  18  19
ATOM     19  C   UNL     1       6.228   3.455  12.569  0.00  0.00    +0.000 A 
ATOM     20  C   UNL     1       6.554   2.259  11.902  0.00  0.00    +0.000 A 
ATOM     21  C   UNL     1       5.647   1.616  11.053  0.00  0.00    +0.000 A 
ATOM     22  C   UNL     1       4.382   2.156  10.853  0.00  0.00    +0.000 A 
ATOM     23  C   UNL     1       4.028   3.336  11.498  0.00  0.00    +0.000 A 
ATOM     24  C   UNL     1       4.941   3.974  12.341  0.00  0.00    +0.000 A 
ENDBRANCH  18  19
ENDBRANCH  15  16
ENDBRANCH   4  15
TORSDOF 4
ENDMDL
MODEL 4
REMARK VINA RESULT:      -7.7      4.053      7.179
REMARK  Name = 
REMARK  5 active torsions:
REMARK  status: ('A' for Active; 'I' for Inactive)
REMARK    1  A    between atoms: C_1  and  C_2
REMARK    2  A    between atoms: C_8  and  N_9
REMARK    3  A    between atoms: N_12  and  C_13
REMARK    4  A    between atoms: C_13  and  C_14
REMARK    5  A    between atoms: C_16  and  C_17
REMARK                            x       y       z     vdW  Elec       q    Type
REMARK                         _______ _______ _______ _____ _____    ______ ____
ROOT
ATOM      1  N   UNL     1       4.661   4.405  18.162  0.00  0.00    +0.000 N 
ATOM      2  C   UNL     1       4.366   4.692  16.753  0.00  0.00    +0.000 C 
ATOM      3  C   UNL     1       4.995   6.026  16.315  0.00  0.00    +0.000 C 
ATOM      4  N   UNL     1       6.443   6.159  16.579  0.00  0.00    +0.000 NA
ATOM      5  C   UNL     1       6.654   5.890  18.025  0.00  0.00    +0.000 C 
ATOM      6  C   UNL     1       6.086   4.537  18.528  0.00  0.00    +0.000 C 
ENDROOT
BRANCH   1  14
ATOM      7  C   UNL     1       3.602   1.534  18.229  0.00  0.00    +0.000 C 
ATOM      8  C   UNL     1       3.166   2.671  19.119  0.00  0.00    +0.000 A 
ATOM      9  C   UNL     1       2.179   2.353  20.073  0.00  0.00    +0.000 A 
ATOM     10  C   UNL     1       1.721   3.294  20.976  0.00  0.00    +0.000 A 
ATOM     11  F   UNL     1       0.794   2.960  21.888  0.00  0.00    +0.000 F 
ATOM     12  C   UNL     1       2.207   4.594  20.944  0.00  0.00    +0.000 A 
ATOM     13  C   UNL     1       3.181   4.919  19.996  0.00  0.00    +0.000 A 
ATOM     14  C   UNL     1       3.700   3.986  19.066  0.00  0.00    +0.000 A 
ENDBRANCH   1  14
BRANCH   4  15
ATOM     15  C   UNL     1       7.264   5.254  15.763  0.00  0.00    +0.000 C 
BRANCH  15  16
ATOM     16  C   UNL     1       6.823   5.251  14.330  0.00  0.00    +0.000 C 
ATOM     17  C   UNL     1       7.804   5.492  13.209  0.00  0.00    +0.000 C 
ATOM     18  C   UNL     1       7.257   4.106  13.430  0.00  0.00    +0.000 C 
BRANCH  18  19
ATOM     19  C   UNL     1       6.238   3.452  12.520  0.00  0.00    +0.000 A 
ATOM     20  C   UNL     1       6.547   2.231  11.892  0.00  0.00    +0.000 A 
ATOM     21  C   UNL     1       5.630   1.570  11.069  0.00  0.00    +0.000 A 
ATOM     22  C   UNL     1       4.371   2.118  10.855  0.00  0.00    +0.000 A 
ATOM     23  C   UNL     1       4.032   3.323  11.462  0.00  0.00    +0.000 A 
ATOM     24  C   UNL     1       4.957   3.979  12.280  0.00  0.00    +0.000 A 
ENDBRANCH  18  19
ENDBRANCH  15  16
ENDBRANCH   4  15
TORSDOF 4
ENDMDL
MODEL 5
REMARK VINA RESULT:      -7.7      0.781      1.543
REMARK  Name = 
REMARK  5 active torsions:
REMARK  status: ('A' for Active; 'I' for Inactive)
REMARK    1  A    between atoms: C_1  and  C_2
REMARK    2  A    between atoms: C_8  and  N_9
REMARK    3  A    between atoms: N_12  and  C_13
REMARK    4  A    between atoms: C_13  and  C_14
REMARK    5  A    between atoms: C_16  and  C_17
REMARK                            x       y       z     vdW  Elec       q    Type
REMARK                         _______ _______ _______ _____ _____    ______ ____
ROOT
ATOM      1  N   UNL     1       4.968   5.086  18.359  0.00  0.00    +0.000 N 
ATOM      2  C   UNL     1       6.290   4.561  18.719  0.00  0.00    +0.000 C 
ATOM      3  C   UNL     1       7.340   4.924  17.655  0.00  0.00    +0.000 C 
ATOM      4  N   UNL     1       7.428   6.360  17.318  0.00  0.00    +0.000 NA
ATOM      5  C   UNL     1       6.064   6.806  16.932  0.00  0.00    +0.000 C 
ATOM      6  C   UNL     1       4.959   6.515  17.982  0.00  0.00    +0.000 C 
ENDROOT
BRANCH   1  14
ATOM      7  C   UNL     1       4.780   2.493  19.976  0.00  0.00    +0.000 C 
ATOM      8  C   UNL     1       3.684   3.113  19.144  0.00  0.00    +0.000 A 
ATOM      9  C   UNL     1       2.460   2.414  19.132  0.00  0.00    +0.000 A 
ATOM     10  C   UNL     1       1.363   2.896  18.442  0.00  0.00    +0.000 A 
ATOM     11  F   UNL     1       0.203   2.221  18.464  0.00  0.00    +0.000 F 
ATOM     12  C   UNL     1       1.453   4.074  17.714  0.00  0.00    +0.000 A 
ATOM     13  C   UNL     1       2.666   4.769  17.714  0.00  0.00    +0.000 A 
ATOM     14  C   UNL     1       3.810   4.330  18.424  0.00  0.00    +0.000 A 
ENDBRANCH   1  14
BRANCH   4  15
ATOM     15  C   UNL     1       7.944   7.182  18.421  0.00  0.00    +0.000 C 
BRANCH  15  16
ATOM     16  C   UNL     1       8.513   8.476  17.924  0.00  0.00    +0.000 C 
ATOM     17  C   UNL     1       7.618   9.628  17.539  0.00  0.00    +0.000 C 
ATOM     18  C   UNL     1       8.423   9.708  18.810  0.00  0.00    +0.000 C 
BRANCH  18  19
ATOM     19  C   UNL     1       9.640  10.593  18.977  0.00  0.00    +0.000 A 
ATOM     20  C   UNL     1      10.337  11.041  17.839  0.00  0.00    +0.000 A 
ATOM     21  C   UNL     1      11.446  11.886  17.937  0.00  0.00    +0.000 A 
ATOM     22  C   UNL     1      11.887  12.308  19.185  0.00  0.00    +0.000 A 
ATOM     23  C   UNL     1      11.221  11.885  20.330  0.00  0.00    +0.000 A 
ATOM     24  C   UNL     1      10.115  11.037  20.223  0.00  0.00    +0.000 A 
ENDBRANCH  18  19
ENDBRANCH  15  16
ENDBRANCH   4  15
TORSDOF 4
ENDMDL
MODEL 6
REMARK VINA RESULT:      -7.7      6.193      9.883
REMARK  Name = 
REMARK  5 active torsions:
REMARK  status: ('A' for Active; 'I' for Inactive)
REMARK    1  A    between atoms: C_1  and  C_2
REMARK    2  A    between atoms: C_8  and  N_9
REMARK    3  A    between atoms: N_12  and  C_13
REMARK    4  A    between atoms: C_13  and  C_14
REMARK    5  A    between atoms: C_16  and  C_17
REMARK                            x       y       z     vdW  Elec       q    Type
REMARK                         _______ _______ _______ _____ _____    ______ ____
ROOT
ATOM      1  N   UNL     1      -0.404  11.257  20.319  0.00  0.00    +0.000 N 
ATOM      2  C   UNL     1      -0.616   9.939  19.710  0.00  0.00    +0.000 C 
ATOM      3  C   UNL     1      -0.070   9.897  18.273  0.00  0.00    +0.000 C 
ATOM      4  N   UNL     1       1.338  10.318  18.119  0.00  0.00    +0.000 NA
ATOM      5  C   UNL     1       1.463  11.669  18.725  0.00  0.00    +0.000 C 
ATOM      6  C   UNL     1       0.975  11.774  20.194  0.00  0.00    +0.000 C 
ENDROOT
BRANCH   1  14
ATOM      7  C   UNL     1      -1.074  10.669  23.248  0.00  0.00    +0.000 C 
ATOM      8  C   UNL     1      -1.749  11.686  22.360  0.00  0.00    +0.000 A 
ATOM      9  C   UNL     1      -2.781  12.432  22.964  0.00  0.00    +0.000 A 
ATOM     10  C   UNL     1      -3.452  13.423  22.272  0.00  0.00    +0.000 A 
ATOM     11  F   UNL     1      -4.418  14.133  22.878  0.00  0.00    +0.000 F 
ATOM     12  C   UNL     1      -3.141  13.688  20.946  0.00  0.00    +0.000 A 
ATOM     13  C   UNL     1      -2.124  12.947  20.337  0.00  0.00    +0.000 A 
ATOM     14  C   UNL     1      -1.391  11.939  21.009  0.00  0.00    +0.000 A 
ENDBRANCH   1  14
BRANCH   4  15
ATOM     15  C   UNL     1       2.291   9.387  18.739  0.00  0.00    +0.000 C 
BRANCH  15  16
ATOM     16  C   UNL     1       2.163   8.007  18.169  0.00  0.00    +0.000 C 
ATOM     17  C   UNL     1       3.318   7.344  17.460  0.00  0.00    +0.000 C 
ATOM     18  C   UNL     1       2.916   6.865  18.831  0.00  0.00    +0.000 C 
BRANCH  18  19
ATOM     19  C   UNL     1       2.201   5.554  19.084  0.00  0.00    +0.000 A 
ATOM     20  C   UNL     1       1.996   4.655  18.020  0.00  0.00    +0.000 A 
ATOM     21  C   UNL     1       1.371   3.419  18.208  0.00  0.00    +0.000 A 
ATOM     22  C   UNL     1       0.935   3.048  19.474  0.00  0.00    +0.000 A 
ATOM     23  C   UNL     1       1.124   3.912  20.548  0.00  0.00    +0.000 A 
ATOM     24  C   UNL     1       1.746   5.148  20.350  0.00  0.00    +0.000 A 
ENDBRANCH  18  19
ENDBRANCH  15  16
ENDBRANCH   4  15
TORSDOF 4
ENDMDL
MODEL 7
REMARK VINA RESULT:      -7.5      6.540     10.222
REMARK  Name = 
REMARK  5 active torsions:
REMARK  status: ('A' for Active; 'I' for Inactive)
REMARK    1  A    between atoms: C_1  and  C_2
REMARK    2  A    between atoms: C_8  and  N_9
REMARK    3  A    between atoms: N_12  and  C_13
REMARK    4  A    between atoms: C_13  and  C_14
REMARK    5  A    between atoms: C_16  and  C_17
REMARK                            x       y       z     vdW  Elec       q    Type
REMARK                         _______ _______ _______ _____ _____    ______ ____
ROOT
ATOM      1  N   UNL     1       0.402  11.930  20.828  0.00  0.00    +0.000 N 
ATOM      2  C   UNL     1       0.977  10.656  21.272  0.00  0.00    +0.000 C 
ATOM      3  C   UNL     1       0.309   9.467  20.562  0.00  0.00    +0.000 C 
ATOM      4  N   UNL     1       0.291   9.540  19.086  0.00  0.00    +0.000 NA
ATOM      5  C   UNL     1      -0.335  10.836  18.717  0.00  0.00    +0.000 C 
ATOM      6  C   UNL     1       0.321  12.086  19.361  0.00  0.00    +0.000 C 
ENDROOT
BRANCH   1  14
ATOM      7  C   UNL     1      -1.789  11.543  22.931  0.00  0.00    +0.000 C 
ATOM      8  C   UNL     1      -1.002  12.805  22.677  0.00  0.00    +0.000 A 
ATOM      9  C   UNL     1      -1.321  13.899  23.509  0.00  0.00    +0.000 A 
ATOM     10  C   UNL     1      -0.646  15.101  23.407  0.00  0.00    +0.000 A 
ATOM     11  F   UNL     1      -0.956  16.120  24.225  0.00  0.00    +0.000 F 
ATOM     12  C   UNL     1       0.349  15.270  22.454  0.00  0.00    +0.000 A 
ATOM     13  C   UNL     1       0.665  14.193  21.620  0.00  0.00    +0.000 A 
ATOM     14  C   UNL     1       0.021  12.935  21.701  0.00  0.00    +0.000 A 
ENDBRANCH   1  14
BRANCH   4  15
ATOM     15  C   UNL     1       1.628   9.426  18.487  0.00  0.00    +0.000 C 
BRANCH  15  16
ATOM     16  C   UNL     1       1.902   8.031  18.012  0.00  0.00    +0.000 C 
ATOM     17  C   UNL     1       3.302   7.580  17.675  0.00  0.00    +0.000 C 
ATOM     18  C   UNL     1       2.642   7.074  18.932  0.00  0.00    +0.000 C 
BRANCH  18  19
ATOM     19  C   UNL     1       2.129   5.659  19.097  0.00  0.00    +0.000 A 
ATOM     20  C   UNL     1       1.662   5.229  20.353  0.00  0.00    +0.000 A 
ATOM     21  C   UNL     1       1.147   3.944  20.550  0.00  0.00    +0.000 A 
ATOM     22  C   UNL     1       1.085   3.052  19.486  0.00  0.00    +0.000 A 
ATOM     23  C   UNL     1       1.537   3.445  18.231  0.00  0.00    +0.000 A 
ATOM     24  C   UNL     1       2.053   4.731  18.044  0.00  0.00    +0.000 A 
ENDBRANCH  18  19
ENDBRANCH  15  16
ENDBRANCH   4  15
TORSDOF 4
ENDMDL
MODEL 8
REMARK VINA RESULT:      -7.2      5.858      9.420
REMARK  Name = 
REMARK  5 active torsions:
REMARK  status: ('A' for Active; 'I' for Inactive)
REMARK    1  A    between atoms: C_1  and  C_2
REMARK    2  A    between atoms: C_8  and  N_9
REMARK    3  A    between atoms: N_12  and  C_13
REMARK    4  A    between atoms: C_13  and  C_14
REMARK    5  A    between atoms: C_16  and  C_17
REMARK                            x       y       z     vdW  Elec       q    Type
REMARK                         _______ _______ _______ _____ _____    ______ ____
ROOT
ATOM      1  N   UNL     1       0.093  10.796  20.199  0.00  0.00    +0.000 N 
ATOM      2  C   UNL     1      -0.039   9.468  19.589  0.00  0.00    +0.000 C 
ATOM      3  C   UNL     1       0.320   9.506  18.094  0.00  0.00    +0.000 C 
ATOM      4  N   UNL     1       1.638  10.094  17.775  0.00  0.00    +0.000 NA
ATOM      5  C   UNL     1       1.679  11.443  18.394  0.00  0.00    +0.000 C 
ATOM      6  C   UNL     1       1.374  11.475  19.915  0.00  0.00    +0.000 C 
ENDROOT
BRANCH   1  14
ATOM      7  C   UNL     1      -2.199  12.523  19.133  0.00  0.00    +0.000 C 
ATOM      8  C   UNL     1      -1.938  12.171  20.577  0.00  0.00    +0.000 A 
ATOM      9  C   UNL     1      -2.859  12.694  21.507  0.00  0.00    +0.000 A 
ATOM     10  C   UNL     1      -2.757  12.414  22.857  0.00  0.00    +0.000 A 
ATOM     11  F   UNL     1      -3.659  12.909  23.719  0.00  0.00    +0.000 F 
ATOM     12  C   UNL     1      -1.718  11.626  23.334  0.00  0.00    +0.000 A 
ATOM     13  C   UNL     1      -0.796  11.110  22.419  0.00  0.00    +0.000 A 
ATOM     14  C   UNL     1      -0.871  11.348  21.025  0.00  0.00    +0.000 A 
ENDBRANCH   1  14
BRANCH   4  15
ATOM     15  C   UNL     1       2.764   9.276  18.247  0.00  0.00    +0.000 C 
BRANCH  15  16
ATOM     16  C   UNL     1       2.627   7.848  17.816  0.00  0.00    +0.000 C 
ATOM     17  C   UNL     1       3.819   7.058  17.334  0.00  0.00    +0.000 C 
ATOM     18  C   UNL     1       3.227   6.756  18.686  0.00  0.00    +0.000 C 
BRANCH  18  19
ATOM     19  C   UNL     1       2.412   5.515  18.986  0.00  0.00    +0.000 A 
ATOM     20  C   UNL     1       1.970   5.273  20.300  0.00  0.00    +0.000 A 
ATOM     21  C   UNL     1       1.187   4.160  20.623  0.00  0.00    +0.000 A 
ATOM     22  C   UNL     1       0.823   3.258  19.630  0.00  0.00    +0.000 A 
ATOM     23  C   UNL     1       1.242   3.468  18.321  0.00  0.00    +0.000 A 
ATOM     24  C   UNL     1       2.028   4.581  18.008  0.00  0.00    +0.000 A 
ENDBRANCH  18  19
ENDBRANCH  15  16
ENDBRANCH   4  15
TORSDOF 4
ENDMDL
MODEL 9
REMARK VINA RESULT:      -7.1      6.593     10.521
REMARK  Name = 
REMARK  5 active torsions:
REMARK  status: ('A' for Active; 'I' for Inactive)
REMARK    1  A    between atoms: C_1  and  C_2
REMARK    2  A    between atoms: C_8  and  N_9
REMARK    3  A    between atoms: N_12  and  C_13
REMARK    4  A    between atoms: C_13  and  C_14
REMARK    5  A    between atoms: C_16  and  C_17
REMARK                            x       y       z     vdW  Elec       q    Type
REMARK                         _______ _______ _______ _____ _____    ______ ____
ROOT
ATOM      1  N   UNL     1       1.082  12.566  19.459  0.00  0.00    +0.000 N 
ATOM      2  C   UNL     1       1.079  12.043  20.830  0.00  0.00    +0.000 C 
ATOM      3  C   UNL     1       0.070  10.893  20.982  0.00  0.00    +0.000 C 
ATOM      4  N   UNL     1       0.215   9.791  20.008  0.00  0.00    +0.000 NA
ATOM      5  C   UNL     1       0.173  10.395  18.651  0.00  0.00    +0.000 C 
ATOM      6  C   UNL     1       1.200  11.532  18.410  0.00  0.00    +0.000 C 
ENDROOT
BRANCH   1  14
ATOM      7  C   UNL     1       3.612  14.265  19.159  0.00  0.00    +0.000 C 
ATOM      8  C   UNL     1       2.187  14.748  19.036  0.00  0.00    +0.000 A 
ATOM      9  C   UNL     1       2.032  16.119  18.747  0.00  0.00    +0.000 A 
ATOM     10  C   UNL     1       0.781  16.680  18.570  0.00  0.00    +0.000 A 
ATOM     11  F   UNL     1       0.662  17.984  18.275  0.00  0.00    +0.000 F 
ATOM     12  C   UNL     1      -0.363  15.904  18.703  0.00  0.00    +0.000 A 
ATOM     13  C   UNL     1      -0.217  14.545  18.997  0.00  0.00    +0.000 A 
ATOM     14  C   UNL     1       1.042  13.919  19.164  0.00  0.00    +0.000 A 
ENDBRANCH   1  14
BRANCH   4  15
ATOM     15  C   UNL     1       1.452   9.019  20.190  0.00  0.00    +0.000 C 
BRANCH  15  16
ATOM     16  C   UNL     1       1.529   7.870  19.231  0.00  0.00    +0.000 C 
ATOM     17  C   UNL     1       2.734   7.670  18.344  0.00  0.00    +0.000 C 
ATOM     18  C   UNL     1       2.511   6.743  19.511  0.00  0.00    +0.000 C 
BRANCH  18  19
ATOM     19  C   UNL     1       2.053   5.307  19.365  0.00  0.00    +0.000 A 
ATOM     20  C   UNL     1       1.516   4.631  20.476  0.00  0.00    +0.000 A 
ATOM     21  C   UNL     1       1.048   3.316  20.385  0.00  0.00    +0.000 A 
ATOM     22  C   UNL     1       1.104   2.643  19.171  0.00  0.00    +0.000 A 
ATOM     23  C   UNL     1       1.627   3.283  18.053  0.00  0.00    +0.000 A 
ATOM     24  C   UNL     1       2.096   4.596  18.153  0.00  0.00    +0.000 A 
ENDBRANCH  18  19
ENDBRANCH  15  16
ENDBRANCH   4  15
TORSDOF 4
ENDMDL
