MODEL 1
REMARK VINA RESULT:      -9.6      0.000      0.000
REMARK  Name = 
REMARK  5 active torsions:
REMARK  status: ('A' for Active; 'I' for Inactive)
REMARK    1  A    between atoms: C_2  and  C_17
REMARK    2  A    between atoms: N_3  and  C_4
REMARK    3  A    between atoms: N_8  and  C_9
REMARK    4  A    between atoms: C_9  and  C_10
REMARK    5  A    between atoms: C_23  and  C_24
REMARK                            x       y       z     vdW  Elec       q    Type
REMARK                         _______ _______ _______ _____ _____    ______ ____
ROOT
ATOM      1  C   UNL     1       1.839   8.279  19.343  0.00  0.00    +0.000 A 
ATOM      2  C   UNL     1       1.158   7.733  20.439  0.00  0.00    +0.000 A 
ATOM      3  C   UNL     1       1.391   6.419  20.862  0.00  0.00    +0.000 A 
ATOM      4  C   UNL     1       2.331   5.678  20.141  0.00  0.00    +0.000 A 
ATOM      5  N   UNL     1       2.759   4.385  20.267  0.00  0.00    +0.000 N 
ATOM      6  N   UNL     1       3.690   4.018  19.372  0.00  0.00    +0.000 NA
ATOM      7  C   UNL     1       3.900   5.123  18.636  0.00  0.00    +0.000 A 
ATOM      8  C   UNL     1       3.039   6.188  19.059  0.00  0.00    +0.000 A 
ATOM      9  C   UNL     1       2.774   7.510  18.639  0.00  0.00    +0.000 A 
ATOM     10  H   UNL     1       2.446   3.696  20.942  0.00  0.00    +0.000 HD
ENDROOT
BRANCH   7  11
ATOM     11  C   UNL     1       4.898   5.149  17.560  0.00  0.00    +0.000 A 
ATOM     12  C   UNL     1       6.130   5.816  17.752  0.00  0.00    +0.000 A 
ATOM     13  C   UNL     1       7.075   5.907  16.727  0.00  0.00    +0.000 A 
ATOM     14  C   UNL     1       6.785   5.284  15.536  0.00  0.00    +0.000 A 
ATOM     15  C   UNL     1       5.598   4.598  15.335  0.00  0.00    +0.000 A 
ATOM     16  C   UNL     1       4.637   4.523  16.331  0.00  0.00    +0.000 A 
ATOM     17  C   UNL     1       5.566   4.092  13.943  0.00  0.00    +0.000 C 
ATOM     18  C   UNL     1       7.045   4.267  13.593  0.00  0.00    +0.000 C 
ATOM     19  O   UNL     1       7.617   5.284  14.447  0.00  0.00    +0.000 OA
ENDBRANCH   7  11
BRANCH   1  21
ATOM     20  O   UNL     1       1.553   9.953  17.718  0.00  0.00    +0.000 OA
ATOM     21  C   UNL     1       1.498   9.661  18.911  0.00  0.00    +0.000 C 
ATOM     22  N   UNL     1       1.114  10.549  19.888  0.00  0.00    +0.000 N 
ATOM     23  H   UNL     1       1.034  10.275  20.858  0.00  0.00    +0.000 HD
BRANCH  22  24
ATOM     24  C   UNL     1       0.848  11.956  19.591  0.00  0.00    +0.000 C 
ATOM     25  C   UNL     1       0.951  12.817  20.855  0.00  0.00    +0.000 C 
ATOM     26  C   UNL     1      -0.232  12.584  21.793  0.00  0.00    +0.000 C 
ATOM     27  C   UNL     1      -1.578  12.685  21.067  0.00  0.00    +0.000 C 
ATOM     28  N   UNL     1      -1.634  11.774  19.907  0.00  0.00    +0.000 NA
ATOM     29  C   UNL     1      -0.546  12.119  18.957  0.00  0.00    +0.000 C 
BRANCH  28  30
ATOM     30  C   UNL     1      -2.932  11.906  19.197  0.00  0.00    +0.000 C 
BRANCH  30  31
ATOM     31  C   UNL     1      -3.053  11.147  17.887  0.00  0.00    +0.000 A 
ATOM     32  C   UNL     1      -2.228  10.056  17.622  0.00  0.00    +0.000 A 
ATOM     33  C   UNL     1      -2.289   9.454  16.368  0.00  0.00    +0.000 A 
ATOM     34  C   UNL     1      -3.177   9.945  15.420  0.00  0.00    +0.000 A 
ATOM     35  C   UNL     1      -3.985  11.013  15.770  0.00  0.00    +0.000 A 
ATOM     36  N   UNL     1      -3.941  11.625  16.975  0.00  0.00    +0.000 NA
ENDBRANCH  30  31
ENDBRANCH  28  30
ENDBRANCH  22  24
ENDBRANCH   1  21
TORSDOF 5
ENDMDL
MODEL 2
REMARK VINA RESULT:      -9.4      1.778      2.384
REMARK  Name = 
REMARK  5 active torsions:
REMARK  status: ('A' for Active; 'I' for Inactive)
REMARK    1  A    between atoms: C_2  and  C_17
REMARK    2  A    between atoms: N_3  and  C_4
REMARK    3  A    between atoms: N_8  and  C_9
REMARK    4  A    between atoms: C_9  and  C_10
REMARK    5  A    between atoms: C_23  and  C_24
REMARK                            x       y       z     vdW  Elec       q    Type
REMARK                         _______ _______ _______ _____ _____    ______ ____
ROOT
ATOM      1  C   UNL     1       1.538   8.815  19.247  0.00  0.00    +0.000 A 
ATOM      2  C   UNL     1       0.877   8.406  20.413  0.00  0.00    +0.000 A 
ATOM      3  C   UNL     1       1.164   7.179  21.022  0.00  0.00    +0.000 A 
ATOM      4  C   UNL     1       2.139   6.382  20.415  0.00  0.00    +0.000 A 
ATOM      5  N   UNL     1       2.622   5.141  20.728  0.00  0.00    +0.000 N 
ATOM      6  N   UNL     1       3.572   4.689  19.894  0.00  0.00    +0.000 NA
ATOM      7  C   UNL     1       3.737   5.683  19.004  0.00  0.00    +0.000 A 
ATOM      8  C   UNL     1       2.828   6.759  19.268  0.00  0.00    +0.000 A 
ATOM      9  C   UNL     1       2.508   7.993  18.661  0.00  0.00    +0.000 A 
ATOM     10  H   UNL     1       2.337   4.545  21.498  0.00  0.00    +0.000 HD
ENDROOT
BRANCH   7  11
ATOM     11  C   UNL     1       4.737   5.594  17.934  0.00  0.00    +0.000 A 
ATOM     12  C   UNL     1       6.009   6.189  18.101  0.00  0.00    +0.000 A 
ATOM     13  C   UNL     1       6.961   6.172  17.079  0.00  0.00    +0.000 A 
ATOM     14  C   UNL     1       6.633   5.515  15.916  0.00  0.00    +0.000 A 
ATOM     15  C   UNL     1       5.406   4.897  15.740  0.00  0.00    +0.000 A 
ATOM     16  C   UNL     1       4.440   4.930  16.733  0.00  0.00    +0.000 A 
ATOM     17  C   UNL     1       5.344   4.332  14.372  0.00  0.00    +0.000 C 
ATOM     18  C   UNL     1       6.833   4.394  14.023  0.00  0.00    +0.000 C 
ATOM     19  O   UNL     1       7.466   5.411  14.833  0.00  0.00    +0.000 OA
ENDBRANCH   7  11
BRANCH   1  21
ATOM     20  O   UNL     1       1.986  10.786  18.048  0.00  0.00    +0.000 OA
ATOM     21  C   UNL     1       1.139  10.103  18.618  0.00  0.00    +0.000 C 
ATOM     22  N   UNL     1      -0.188  10.456  18.695  0.00  0.00    +0.000 N 
ATOM     23  H   UNL     1      -0.877   9.857  19.132  0.00  0.00    +0.000 HD
BRANCH  22  24
ATOM     24  C   UNL     1      -0.675  11.741  18.197  0.00  0.00    +0.000 C 
ATOM     25  C   UNL     1      -0.926  12.722  19.349  0.00  0.00    +0.000 C 
ATOM     26  C   UNL     1      -2.166  12.338  20.155  0.00  0.00    +0.000 C 
ATOM     27  C   UNL     1      -3.385  12.086  19.261  0.00  0.00    +0.000 C 
ATOM     28  N   UNL     1      -3.094  11.076  18.223  0.00  0.00    +0.000 NA
ATOM     29  C   UNL     1      -1.967  11.549  17.380  0.00  0.00    +0.000 C 
BRANCH  28  30
ATOM     30  C   UNL     1      -4.275  10.867  17.347  0.00  0.00    +0.000 C 
BRANCH  30  31
ATOM     31  C   UNL     1      -5.549  11.578  17.768  0.00  0.00    +0.000 A 
ATOM     32  C   UNL     1      -5.946  12.754  17.134  0.00  0.00    +0.000 A 
ATOM     33  C   UNL     1      -7.057  13.439  17.619  0.00  0.00    +0.000 A 
ATOM     34  C   UNL     1      -7.749  12.927  18.709  0.00  0.00    +0.000 A 
ATOM     35  C   UNL     1      -7.311  11.737  19.263  0.00  0.00    +0.000 A 
ATOM     36  N   UNL     1      -6.230  11.056  18.822  0.00  0.00    +0.000 NA
ENDBRANCH  30  31
ENDBRANCH  28  30
ENDBRANCH  22  24
ENDBRANCH   1  21
TORSDOF 5
ENDMDL
MODEL 3
REMARK VINA RESULT:      -9.2      2.057      3.207
REMARK  Name = 
REMARK  5 active torsions:
REMARK  status: ('A' for Active; 'I' for Inactive)
REMARK    1  A    between atoms: C_2  and  C_17
REMARK    2  A    between atoms: N_3  and  C_4
REMARK    3  A    between atoms: N_8  and  C_9
REMARK    4  A    between atoms: C_9  and  C_10
REMARK    5  A    between atoms: C_23  and  C_24
REMARK                            x       y       z     vdW  Elec       q    Type
REMARK                         _______ _______ _______ _____ _____    ______ ____
ROOT
ATOM      1  C   UNL     1       1.689   8.753  19.297  0.00  0.00    +0.000 A 
ATOM      2  C   UNL     1       0.900   8.469  20.420  0.00  0.00    +0.000 A 
ATOM      3  C   UNL     1       1.009   7.250  21.099  0.00  0.00    +0.000 A 
ATOM      4  C   UNL     1       1.939   6.331  20.607  0.00  0.00    +0.000 A 
ATOM      5  N   UNL     1       2.264   5.064  21.007  0.00  0.00    +0.000 N 
ATOM      6  N   UNL     1       3.224   4.478  20.274  0.00  0.00    +0.000 NA
ATOM      7  C   UNL     1       3.561   5.407  19.362  0.00  0.00    +0.000 A 
ATOM      8  C   UNL     1       2.752   6.581  19.507  0.00  0.00    +0.000 A 
ATOM      9  C   UNL     1       2.611   7.809  18.826  0.00  0.00    +0.000 A 
ATOM     10  H   UNL     1       1.859   4.537  21.774  0.00  0.00    +0.000 HD
ENDROOT
BRANCH   7  11
ATOM     11  C   UNL     1       4.627   5.166  18.382  0.00  0.00    +0.000 A 
ATOM     12  C   UNL     1       5.973   5.081  18.806  0.00  0.00    +0.000 A 
ATOM     13  C   UNL     1       7.015   4.911  17.891  0.00  0.00    +0.000 A 
ATOM     14  C   UNL     1       6.682   4.784  16.563  0.00  0.00    +0.000 A 
ATOM     15  C   UNL     1       5.367   4.832  16.127  0.00  0.00    +0.000 A 
ATOM     16  C   UNL     1       4.325   5.030  17.018  0.00  0.00    +0.000 A 
ATOM     17  C   UNL     1       5.348   4.720  14.650  0.00  0.00    +0.000 C 
ATOM     18  C   UNL     1       6.775   4.212  14.432  0.00  0.00    +0.000 C 
ATOM     19  O   UNL     1       7.594   4.606  15.556  0.00  0.00    +0.000 OA
ENDBRANCH   7  11
BRANCH   1  21
ATOM     20  O   UNL     1       1.817  10.148  17.410  0.00  0.00    +0.000 OA
ATOM     21  C   UNL     1       1.477  10.043  18.587  0.00  0.00    +0.000 C 
ATOM     22  N   UNL     1       0.883  11.061  19.295  0.00  0.00    +0.000 N 
ATOM     23  H   UNL     1       0.571  10.937  20.250  0.00  0.00    +0.000 HD
BRANCH  22  24
ATOM     24  C   UNL     1       0.712  12.398  18.728  0.00  0.00    +0.000 C 
ATOM     25  C   UNL     1       1.697  13.393  19.354  0.00  0.00    +0.000 C 
ATOM     26  C   UNL     1       1.313  13.735  20.793  0.00  0.00    +0.000 C 
ATOM     27  C   UNL     1      -0.160  14.137  20.922  0.00  0.00    +0.000 C 
ATOM     28  N   UNL     1      -1.052  13.099  20.368  0.00  0.00    +0.000 NA
ATOM     29  C   UNL     1      -0.733  12.890  18.934  0.00  0.00    +0.000 C 
BRANCH  28  30
ATOM     30  C   UNL     1      -2.473  13.517  20.473  0.00  0.00    +0.000 C 
BRANCH  30  31
ATOM     31  C   UNL     1      -3.099  13.409  21.852  0.00  0.00    +0.000 A 
ATOM     32  C   UNL     1      -2.786  12.339  22.689  0.00  0.00    +0.000 A 
ATOM     33  C   UNL     1      -3.462  12.211  23.899  0.00  0.00    +0.000 A 
ATOM     34  C   UNL     1      -4.417  13.157  24.249  0.00  0.00    +0.000 A 
ATOM     35  C   UNL     1      -4.647  14.208  23.378  0.00  0.00    +0.000 A 
ATOM     36  N   UNL     1      -4.016  14.353  22.192  0.00  0.00    +0.000 NA
ENDBRANCH  30  31
ENDBRANCH  28  30
ENDBRANCH  22  24
ENDBRANCH   1  21
TORSDOF 5
ENDMDL
MODEL 4
REMARK VINA RESULT:      -9.2      2.379      3.232
REMARK  Name = 
REMARK  5 active torsions:
REMARK  status: ('A' for Active; 'I' for Inactive)
REMARK    1  A    between atoms: C_2  and  C_17
REMARK    2  A    between atoms: N_3  and  C_4
REMARK    3  A    between atoms: N_8  and  C_9
REMARK    4  A    between atoms: C_9  and  C_10
REMARK    5  A    between atoms: C_23  and  C_24
REMARK                            x       y       z     vdW  Elec       q    Type
REMARK                         _______ _______ _______ _____ _____    ______ ____
ROOT
ATOM      1  C   UNL     1       1.557   8.911  19.135  0.00  0.00    +0.000 A 
ATOM      2  C   UNL     1       0.894   8.538  20.312  0.00  0.00    +0.000 A 
ATOM      3  C   UNL     1       1.179   7.329  20.958  0.00  0.00    +0.000 A 
ATOM      4  C   UNL     1       2.152   6.513  20.376  0.00  0.00    +0.000 A 
ATOM      5  N   UNL     1       2.632   5.280  20.725  0.00  0.00    +0.000 N 
ATOM      6  N   UNL     1       3.582   4.802  19.906  0.00  0.00    +0.000 NA
ATOM      7  C   UNL     1       3.750   5.768  18.987  0.00  0.00    +0.000 A 
ATOM      8  C   UNL     1       2.843   6.854  19.219  0.00  0.00    +0.000 A 
ATOM      9  C   UNL     1       2.526   8.069  18.575  0.00  0.00    +0.000 A 
ATOM     10  H   UNL     1       2.345   4.708  21.512  0.00  0.00    +0.000 HD
ENDROOT
BRANCH   7  11
ATOM     11  C   UNL     1       4.751   5.646  17.921  0.00  0.00    +0.000 A 
ATOM     12  C   UNL     1       6.043   6.192  18.096  0.00  0.00    +0.000 A 
ATOM     13  C   UNL     1       6.998   6.142  17.078  0.00  0.00    +0.000 A 
ATOM     14  C   UNL     1       6.652   5.503  15.911  0.00  0.00    +0.000 A 
ATOM     15  C   UNL     1       5.402   4.933  15.727  0.00  0.00    +0.000 A 
ATOM     16  C   UNL     1       4.434   4.999  16.716  0.00  0.00    +0.000 A 
ATOM     17  C   UNL     1       5.326   4.375  14.357  0.00  0.00    +0.000 C 
ATOM     18  C   UNL     1       6.817   4.382  14.015  0.00  0.00    +0.000 C 
ATOM     19  O   UNL     1       7.485   5.371  14.831  0.00  0.00    +0.000 OA
ENDBRANCH   7  11
BRANCH   1  21
ATOM     20  O   UNL     1       0.267  10.167  17.624  0.00  0.00    +0.000 OA
ATOM     21  C   UNL     1       1.161  10.180  18.468  0.00  0.00    +0.000 C 
ATOM     22  N   UNL     1       1.817  11.326  18.855  0.00  0.00    +0.000 N 
ATOM     23  H   UNL     1       2.519  11.320  19.583  0.00  0.00    +0.000 HD
BRANCH  22  24
ATOM     24  C   UNL     1       1.576  12.611  18.201  0.00  0.00    +0.000 C 
ATOM     25  C   UNL     1       2.840  13.481  18.208  0.00  0.00    +0.000 C 
ATOM     26  C   UNL     1       3.142  14.021  19.605  0.00  0.00    +0.000 C 
ATOM     27  C   UNL     1       1.918  14.678  20.252  0.00  0.00    +0.000 C 
ATOM     28  N   UNL     1       0.764  13.758  20.279  0.00  0.00    +0.000 NA
ATOM     29  C   UNL     1       0.420  13.359  18.890  0.00  0.00    +0.000 C 
BRANCH  28  30
ATOM     30  C   UNL     1      -0.422  14.419  20.880  0.00  0.00    +0.000 C 
BRANCH  30  31
ATOM     31  C   UNL     1      -1.237  13.575  21.844  0.00  0.00    +0.000 A 
ATOM     32  C   UNL     1      -0.785  12.317  22.240  0.00  0.00    +0.000 A 
ATOM     33  C   UNL     1      -1.609  11.525  23.034  0.00  0.00    +0.000 A 
ATOM     34  C   UNL     1      -2.851  12.010  23.423  0.00  0.00    +0.000 A 
ATOM     35  C   UNL     1      -3.215  13.281  23.013  0.00  0.00    +0.000 A 
ATOM     36  N   UNL     1      -2.442  14.069  22.233  0.00  0.00    +0.000 NA
ENDBRANCH  30  31
ENDBRANCH  28  30
ENDBRANCH  22  24
ENDBRANCH   1  21
TORSDOF 5
ENDMDL
MODEL 5
REMARK VINA RESULT:      -9.1      1.697      3.254
REMARK  Name = 
REMARK  5 active torsions:
REMARK  status: ('A' for Active; 'I' for Inactive)
REMARK    1  A    between atoms: C_2  and  C_17
REMARK    2  A    between atoms: N_3  and  C_4
REMARK    3  A    between atoms: N_8  and  C_9
REMARK    4  A    between atoms: C_9  and  C_10
REMARK    5  A    between atoms: C_23  and  C_24
REMARK                            x       y       z     vdW  Elec       q    Type
REMARK                         _______ _______ _______ _____ _____    ______ ____
ROOT
ATOM      1  C   UNL     1       1.743   8.766  19.113  0.00  0.00    +0.000 A 
ATOM      2  C   UNL     1       1.046   8.376  20.265  0.00  0.00    +0.000 A 
ATOM      3  C   UNL     1       1.280   7.137  20.873  0.00  0.00    +0.000 A 
ATOM      4  C   UNL     1       2.236   6.309  20.280  0.00  0.00    +0.000 A 
ATOM      5  N   UNL     1       2.670   5.050  20.595  0.00  0.00    +0.000 N 
ATOM      6  N   UNL     1       3.619   4.568  19.777  0.00  0.00    +0.000 NA
ATOM      7  C   UNL     1       3.835   5.560  18.895  0.00  0.00    +0.000 A 
ATOM      8  C   UNL     1       2.960   6.666  19.148  0.00  0.00    +0.000 A 
ATOM      9  C   UNL     1       2.694   7.912  18.540  0.00  0.00    +0.000 A 
ATOM     10  H   UNL     1       2.350   4.462  21.357  0.00  0.00    +0.000 HD
ENDROOT
BRANCH   7  11
ATOM     11  C   UNL     1       4.851   5.440  17.842  0.00  0.00    +0.000 A 
ATOM     12  C   UNL     1       6.165   5.909  18.070  0.00  0.00    +0.000 A 
ATOM     13  C   UNL     1       7.138   5.863  17.068  0.00  0.00    +0.000 A 
ATOM     14  C   UNL     1       6.784   5.302  15.863  0.00  0.00    +0.000 A 
ATOM     15  C   UNL     1       5.512   4.807  15.627  0.00  0.00    +0.000 A 
ATOM     16  C   UNL     1       4.527   4.872  16.600  0.00  0.00    +0.000 A 
ATOM     17  C   UNL     1       5.436   4.324  14.229  0.00  0.00    +0.000 C 
ATOM     18  C   UNL     1       6.933   4.272  13.915  0.00  0.00    +0.000 C 
ATOM     19  O   UNL     1       7.633   5.182  14.794  0.00  0.00    +0.000 OA
ENDBRANCH   7  11
BRANCH   1  21
ATOM     20  O   UNL     1       1.997  10.427  17.469  0.00  0.00    +0.000 OA
ATOM     21  C   UNL     1       1.400  10.070  18.483  0.00  0.00    +0.000 C 
ATOM     22  N   UNL     1       0.402  10.810  19.071  0.00  0.00    +0.000 N 
ATOM     23  H   UNL     1      -0.106  10.476  19.881  0.00  0.00    +0.000 HD
BRANCH  22  24
ATOM     24  C   UNL     1       0.048  12.146  18.595  0.00  0.00    +0.000 C 
ATOM     25  C   UNL     1       0.881  13.223  19.300  0.00  0.00    +0.000 C 
ATOM     26  C   UNL     1       0.447  13.408  20.753  0.00  0.00    +0.000 C 
ATOM     27  C   UNL     1      -1.068  13.591  20.888  0.00  0.00    +0.000 C 
ATOM     28  N   UNL     1      -1.804  12.479  20.253  0.00  0.00    +0.000 NA
ATOM     29  C   UNL     1      -1.452  12.416  18.812  0.00  0.00    +0.000 C 
BRANCH  28  30
ATOM     30  C   UNL     1      -3.270  12.687  20.365  0.00  0.00    +0.000 C 
BRANCH  30  31
ATOM     31  C   UNL     1      -3.770  13.189  21.709  0.00  0.00    +0.000 A 
ATOM     32  C   UNL     1      -4.129  14.525  21.877  0.00  0.00    +0.000 A 
ATOM     33  C   UNL     1      -4.475  14.974  23.149  0.00  0.00    +0.000 A 
ATOM     34  C   UNL     1      -4.468  14.081  24.212  0.00  0.00    +0.000 A 
ATOM     35  C   UNL     1      -4.130  12.763  23.957  0.00  0.00    +0.000 A 
ATOM     36  N   UNL     1      -3.778  12.299  22.737  0.00  0.00    +0.000 NA
ENDBRANCH  30  31
ENDBRANCH  28  30
ENDBRANCH  22  24
ENDBRANCH   1  21
TORSDOF 5
ENDMDL
MODEL 6
REMARK VINA RESULT:      -9.1      1.681      2.147
REMARK  Name = 
REMARK  5 active torsions:
REMARK  status: ('A' for Active; 'I' for Inactive)
REMARK    1  A    between atoms: C_2  and  C_17
REMARK    2  A    between atoms: N_3  and  C_4
REMARK    3  A    between atoms: N_8  and  C_9
REMARK    4  A    between atoms: C_9  and  C_10
REMARK    5  A    between atoms: C_23  and  C_24
REMARK                            x       y       z     vdW  Elec       q    Type
REMARK                         _______ _______ _______ _____ _____    ______ ____
ROOT
ATOM      1  C   UNL     1       2.122   6.268  19.893  0.00  0.00    +0.000 A 
ATOM      2  C   UNL     1       1.273   5.354  20.531  0.00  0.00    +0.000 A 
ATOM      3  C   UNL     1       1.284   3.994  20.200  0.00  0.00    +0.000 A 
ATOM      4  C   UNL     1       2.179   3.591  19.205  0.00  0.00    +0.000 A 
ATOM      5  N   UNL     1       2.415   2.370  18.634  0.00  0.00    +0.000 N 
ATOM      6  N   UNL     1       3.368   2.373  17.689  0.00  0.00    +0.000 NA
ATOM      7  C   UNL     1       3.795   3.647  17.648  0.00  0.00    +0.000 A 
ATOM      8  C   UNL     1       3.049   4.464  18.561  0.00  0.00    +0.000 A 
ATOM      9  C   UNL     1       3.006   5.834  18.898  0.00  0.00    +0.000 A 
ATOM     10  H   UNL     1       1.949   1.493  18.843  0.00  0.00    +0.000 HD
ENDROOT
BRANCH   7  11
ATOM     11  C   UNL     1       4.883   4.062  16.756  0.00  0.00    +0.000 A 
ATOM     12  C   UNL     1       5.992   4.771  17.274  0.00  0.00    +0.000 A 
ATOM     13  C   UNL     1       7.016   5.230  16.441  0.00  0.00    +0.000 A 
ATOM     14  C   UNL     1       6.930   4.928  15.102  0.00  0.00    +0.000 A 
ATOM     15  C   UNL     1       5.869   4.208  14.576  0.00  0.00    +0.000 A 
ATOM     16  C   UNL     1       4.831   3.771  15.384  0.00  0.00    +0.000 A 
ATOM     17  C   UNL     1       6.043   4.099  13.109  0.00  0.00    +0.000 C 
ATOM     18  C   UNL     1       7.515   4.507  13.014  0.00  0.00    +0.000 C 
ATOM     19  O   UNL     1       7.860   5.305  14.169  0.00  0.00    +0.000 OA
ENDBRANCH   7  11
BRANCH   1  21
ATOM     20  O   UNL     1       2.270   8.562  19.406  0.00  0.00    +0.000 OA
ATOM     21  C   UNL     1       2.013   7.708  20.251  0.00  0.00    +0.000 C 
ATOM     22  N   UNL     1       1.603   8.009  21.529  0.00  0.00    +0.000 N 
ATOM     23  H   UNL     1       1.355   7.290  22.195  0.00  0.00    +0.000 HD
BRANCH  22  24
ATOM     24  C   UNL     1       1.552   9.387  22.018  0.00  0.00    +0.000 C 
ATOM     25  C   UNL     1       0.547   9.529  23.167  0.00  0.00    +0.000 C 
ATOM     26  C   UNL     1      -0.895   9.441  22.667  0.00  0.00    +0.000 C 
ATOM     27  C   UNL     1      -1.155  10.373  21.479  0.00  0.00    +0.000 C 
ATOM     28  N   UNL     1      -0.198  10.128  20.381  0.00  0.00    +0.000 NA
ATOM     29  C   UNL     1       1.184  10.351  20.875  0.00  0.00    +0.000 C 
BRANCH  28  30
ATOM     30  C   UNL     1      -0.445  11.060  19.251  0.00  0.00    +0.000 C 
BRANCH  30  31
ATOM     31  C   UNL     1      -1.742  10.853  18.490  0.00  0.00    +0.000 A 
ATOM     32  C   UNL     1      -1.837   9.867  17.509  0.00  0.00    +0.000 A 
ATOM     33  C   UNL     1      -3.003   9.779  16.754  0.00  0.00    +0.000 A 
ATOM     34  C   UNL     1      -4.045  10.663  17.004  0.00  0.00    +0.000 A 
ATOM     35  C   UNL     1      -3.885  11.593  18.016  0.00  0.00    +0.000 A 
ATOM     36  N   UNL     1      -2.761  11.711  18.759  0.00  0.00    +0.000 NA
ENDBRANCH  30  31
ENDBRANCH  28  30
ENDBRANCH  22  24
ENDBRANCH   1  21
TORSDOF 5
ENDMDL
MODEL 7
REMARK VINA RESULT:      -9.0      2.377      3.501
REMARK  Name = 
REMARK  5 active torsions:
REMARK  status: ('A' for Active; 'I' for Inactive)
REMARK    1  A    between atoms: C_2  and  C_17
REMARK    2  A    between atoms: N_3  and  C_4
REMARK    3  A    between atoms: N_8  and  C_9
REMARK    4  A    between atoms: C_9  and  C_10
REMARK    5  A    between atoms: C_23  and  C_24
REMARK                            x       y       z     vdW  Elec       q    Type
REMARK                         _______ _______ _______ _____ _____    ______ ____
ROOT
ATOM      1  C   UNL     1       1.500   8.748  19.407  0.00  0.00    +0.000 A 
ATOM      2  C   UNL     1       0.832   8.302  20.556  0.00  0.00    +0.000 A 
ATOM      3  C   UNL     1       1.117   7.057  21.128  0.00  0.00    +0.000 A 
ATOM      4  C   UNL     1       2.095   6.280  20.502  0.00  0.00    +0.000 A 
ATOM      5  N   UNL     1       2.578   5.030  20.778  0.00  0.00    +0.000 N 
ATOM      6  N   UNL     1       3.533   4.604  19.936  0.00  0.00    +0.000 NA
ATOM      7  C   UNL     1       3.702   5.626  19.078  0.00  0.00    +0.000 A 
ATOM      8  C   UNL     1       2.791   6.693  19.371  0.00  0.00    +0.000 A 
ATOM      9  C   UNL     1       2.474   7.945  18.801  0.00  0.00    +0.000 A 
ATOM     10  H   UNL     1       2.288   4.410  21.527  0.00  0.00    +0.000 HD
ENDROOT
BRANCH   7  11
ATOM     11  C   UNL     1       4.708   5.571  18.012  0.00  0.00    +0.000 A 
ATOM     12  C   UNL     1       5.964   6.197  18.189  0.00  0.00    +0.000 A 
ATOM     13  C   UNL     1       6.920   6.212  17.171  0.00  0.00    +0.000 A 
ATOM     14  C   UNL     1       6.614   5.556  16.001  0.00  0.00    +0.000 A 
ATOM     15  C   UNL     1       5.403   4.909  15.815  0.00  0.00    +0.000 A 
ATOM     16  C   UNL     1       4.433   4.910  16.804  0.00  0.00    +0.000 A 
ATOM     17  C   UNL     1       5.362   4.353  14.443  0.00  0.00    +0.000 C 
ATOM     18  C   UNL     1       6.850   4.456  14.100  0.00  0.00    +0.000 C 
ATOM     19  O   UNL     1       7.454   5.482  14.921  0.00  0.00    +0.000 OA
ENDBRANCH   7  11
BRANCH   1  21
ATOM     20  O   UNL     1       0.632  10.088  17.682  0.00  0.00    +0.000 OA
ATOM     21  C   UNL     1       1.104  10.055  18.817  0.00  0.00    +0.000 C 
ATOM     22  N   UNL     1       1.273  11.175  19.597  0.00  0.00    +0.000 N 
ATOM     23  H   UNL     1       1.623  11.119  20.545  0.00  0.00    +0.000 HD
BRANCH  22  24
ATOM     24  C   UNL     1       1.007  12.519  19.086  0.00  0.00    +0.000 C 
ATOM     25  C   UNL     1       2.311  13.251  18.748  0.00  0.00    +0.000 C 
ATOM     26  C   UNL     1       3.067  13.663  20.010  0.00  0.00    +0.000 C 
ATOM     27  C   UNL     1       2.170  14.398  21.011  0.00  0.00    +0.000 C 
ATOM     28  N   UNL     1       0.972  13.603  21.348  0.00  0.00    +0.000 NA
ATOM     29  C   UNL     1       0.197  13.334  20.111  0.00  0.00    +0.000 C 
BRANCH  28  30
ATOM     30  C   UNL     1       0.098  14.342  22.294  0.00  0.00    +0.000 C 
BRANCH  30  31
ATOM     31  C   UNL     1      -1.181  13.636  22.707  0.00  0.00    +0.000 A 
ATOM     32  C   UNL     1      -2.367  14.352  22.858  0.00  0.00    +0.000 A 
ATOM     33  C   UNL     1      -3.493  13.694  23.346  0.00  0.00    +0.000 A 
ATOM     34  C   UNL     1      -3.411  12.343  23.656  0.00  0.00    +0.000 A 
ATOM     35  C   UNL     1      -2.206  11.695  23.449  0.00  0.00    +0.000 A 
ATOM     36  N   UNL     1      -1.092  12.309  22.988  0.00  0.00    +0.000 NA
ENDBRANCH  30  31
ENDBRANCH  28  30
ENDBRANCH  22  24
ENDBRANCH   1  21
TORSDOF 5
ENDMDL
MODEL 8
REMARK VINA RESULT:      -8.9      2.337      2.992
REMARK  Name = 
REMARK  5 active torsions:
REMARK  status: ('A' for Active; 'I' for Inactive)
REMARK    1  A    between atoms: C_2  and  C_17
REMARK    2  A    between atoms: N_3  and  C_4
REMARK    3  A    between atoms: N_8  and  C_9
REMARK    4  A    between atoms: C_9  and  C_10
REMARK    5  A    between atoms: C_23  and  C_24
REMARK                            x       y       z     vdW  Elec       q    Type
REMARK                         _______ _______ _______ _____ _____    ______ ____
ROOT
ATOM      1  C   UNL     1       0.898   9.342  19.805  0.00  0.00    +0.000 A 
ATOM      2  C   UNL     1       0.374   8.937  21.040  0.00  0.00    +0.000 A 
ATOM      3  C   UNL     1       0.702   7.696  21.599  0.00  0.00    +0.000 A 
ATOM      4  C   UNL     1       1.574   6.882  20.870  0.00  0.00    +0.000 A 
ATOM      5  N   UNL     1       2.060   5.626  21.111  0.00  0.00    +0.000 N 
ATOM      6  N   UNL     1       2.889   5.160  20.163  0.00  0.00    +0.000 NA
ATOM      7  C   UNL     1       2.969   6.160  19.268  0.00  0.00    +0.000 A 
ATOM      8  C   UNL     1       2.127   7.255  19.651  0.00  0.00    +0.000 A 
ATOM      9  C   UNL     1       1.767   8.503  19.097  0.00  0.00    +0.000 A 
ATOM     10  H   UNL     1       1.856   5.029  21.905  0.00  0.00    +0.000 HD
ENDROOT
BRANCH   7  11
ATOM     11  C   UNL     1       3.827   6.059  18.082  0.00  0.00    +0.000 A 
ATOM     12  C   UNL     1       4.115   7.211  17.315  0.00  0.00    +0.000 A 
ATOM     13  C   UNL     1       4.881   7.137  16.149  0.00  0.00    +0.000 A 
ATOM     14  C   UNL     1       5.385   5.907  15.796  0.00  0.00    +0.000 A 
ATOM     15  C   UNL     1       5.143   4.769  16.548  0.00  0.00    +0.000 A 
ATOM     16  C   UNL     1       4.361   4.820  17.691  0.00  0.00    +0.000 A 
ATOM     17  C   UNL     1       5.773   3.608  15.878  0.00  0.00    +0.000 C 
ATOM     18  C   UNL     1       6.692   4.361  14.914  0.00  0.00    +0.000 C 
ATOM     19  O   UNL     1       6.156   5.684  14.685  0.00  0.00    +0.000 OA
ENDBRANCH   7  11
BRANCH   1  21
ATOM     20  O   UNL     1       1.242  11.592  19.220  0.00  0.00    +0.000 OA
ATOM     21  C   UNL     1       0.458  10.646  19.240  0.00  0.00    +0.000 C 
ATOM     22  N   UNL     1      -0.823  10.717  18.744  0.00  0.00    +0.000 N 
ATOM     23  H   UNL     1      -1.437   9.913  18.731  0.00  0.00    +0.000 HD
BRANCH  22  24
ATOM     24  C   UNL     1      -1.392  11.972  18.254  0.00  0.00    +0.000 C 
ATOM     25  C   UNL     1      -1.428  13.033  19.360  0.00  0.00    +0.000 C 
ATOM     26  C   UNL     1      -2.500  12.722  20.404  0.00  0.00    +0.000 C 
ATOM     27  C   UNL     1      -3.862  12.425  19.767  0.00  0.00    +0.000 C 
ATOM     28  N   UNL     1      -3.766  11.343  18.768  0.00  0.00    +0.000 NA
ATOM     29  C   UNL     1      -2.811  11.740  17.702  0.00  0.00    +0.000 C 
BRANCH  28  30
ATOM     30  C   UNL     1      -5.087  11.089  18.139  0.00  0.00    +0.000 C 
BRANCH  30  31
ATOM     31  C   UNL     1      -6.150  10.490  19.043  0.00  0.00    +0.000 A 
ATOM     32  C   UNL     1      -6.944  11.311  19.842  0.00  0.00    +0.000 A 
ATOM     33  C   UNL     1      -7.830  10.722  20.740  0.00  0.00    +0.000 A 
ATOM     34  C   UNL     1      -7.911   9.337  20.808  0.00  0.00    +0.000 A 
ATOM     35  C   UNL     1      -7.111   8.592  19.959  0.00  0.00    +0.000 A 
ATOM     36  N   UNL     1      -6.234   9.134  19.085  0.00  0.00    +0.000 NA
ENDBRANCH  30  31
ENDBRANCH  28  30
ENDBRANCH  22  24
ENDBRANCH   1  21
TORSDOF 5
ENDMDL
MODEL 9
REMARK VINA RESULT:      -8.7      2.212      3.634
REMARK  Name = 
REMARK  5 active torsions:
REMARK  status: ('A' for Active; 'I' for Inactive)
REMARK    1  A    between atoms: C_2  and  C_17
REMARK    2  A    between atoms: N_3  and  C_4
REMARK    3  A    between atoms: N_8  and  C_9
REMARK    4  A    between atoms: C_9  and  C_10
REMARK    5  A    between atoms: C_23  and  C_24
REMARK                            x       y       z     vdW  Elec       q    Type
REMARK                         _______ _______ _______ _____ _____    ______ ____
ROOT
ATOM      1  C   UNL     1       1.618   8.980  19.296  0.00  0.00    +0.000 A 
ATOM      2  C   UNL     1       1.030   8.877  20.564  0.00  0.00    +0.000 A 
ATOM      3  C   UNL     1       1.115   7.697  21.313  0.00  0.00    +0.000 A 
ATOM      4  C   UNL     1       1.810   6.630  20.740  0.00  0.00    +0.000 A 
ATOM      5  N   UNL     1       2.046   5.356  21.181  0.00  0.00    +0.000 N 
ATOM      6  N   UNL     1       2.766   4.600  20.337  0.00  0.00    +0.000 NA
ATOM      7  C   UNL     1       3.034   5.416  19.303  0.00  0.00    +0.000 A 
ATOM      8  C   UNL     1       2.421   6.698  19.493  0.00  0.00    +0.000 A 
ATOM      9  C   UNL     1       2.306   7.890  18.747  0.00  0.00    +0.000 A 
ATOM     10  H   UNL     1       1.733   4.939  22.051  0.00  0.00    +0.000 HD
ENDROOT
BRANCH   7  11
ATOM     11  C   UNL     1       3.853   4.971  18.169  0.00  0.00    +0.000 A 
ATOM     12  C   UNL     1       3.471   3.832  17.424  0.00  0.00    +0.000 A 
ATOM     13  C   UNL     1       4.260   3.350  16.376  0.00  0.00    +0.000 A 
ATOM     14  C   UNL     1       5.402   4.051  16.065  0.00  0.00    +0.000 A 
ATOM     15  C   UNL     1       5.780   5.188  16.761  0.00  0.00    +0.000 A 
ATOM     16  C   UNL     1       5.024   5.662  17.821  0.00  0.00    +0.000 A 
ATOM     17  C   UNL     1       7.072   5.673  16.222  0.00  0.00    +0.000 C 
ATOM     18  C   UNL     1       7.098   4.876  14.916  0.00  0.00    +0.000 C 
ATOM     19  O   UNL     1       6.267   3.702  15.061  0.00  0.00    +0.000 OA
ENDBRANCH   7  11
BRANCH   1  21
ATOM     20  O   UNL     1       1.904  10.333  17.396  0.00  0.00    +0.000 OA
ATOM     21  C   UNL     1       1.435  10.241  18.529  0.00  0.00    +0.000 C 
ATOM     22  N   UNL     1       0.721  11.248  19.134  0.00  0.00    +0.000 N 
ATOM     23  H   UNL     1       0.307  11.134  20.050  0.00  0.00    +0.000 HD
BRANCH  22  24
ATOM     24  C   UNL     1       0.561  12.562  18.513  0.00  0.00    +0.000 C 
ATOM     25  C   UNL     1       1.707  13.503  18.906  0.00  0.00    +0.000 C 
ATOM     26  C   UNL     1       1.590  13.954  20.361  0.00  0.00    +0.000 C 
ATOM     27  C   UNL     1       0.192  14.486  20.694  0.00  0.00    +0.000 C 
ATOM     28  N   UNL     1      -0.854  13.499  20.360  0.00  0.00    +0.000 NA
ATOM     29  C   UNL     1      -0.790  13.185  18.910  0.00  0.00    +0.000 C 
BRANCH  28  30
ATOM     30  C   UNL     1      -2.204  14.041  20.659  0.00  0.00    +0.000 C 
BRANCH  30  31
ATOM     31  C   UNL     1      -2.704  13.836  22.079  0.00  0.00    +0.000 A 
ATOM     32  C   UNL     1      -2.980  12.555  22.552  0.00  0.00    +0.000 A 
ATOM     33  C   UNL     1      -3.543  12.412  23.818  0.00  0.00    +0.000 A 
ATOM     34  C   UNL     1      -3.799  13.544  24.580  0.00  0.00    +0.000 A 
ATOM     35  C   UNL     1      -3.467  14.779  24.051  0.00  0.00    +0.000 A 
ATOM     36  N   UNL     1      -2.931  14.951  22.822  0.00  0.00    +0.000 NA
ENDBRANCH  30  31
ENDBRANCH  28  30
ENDBRANCH  22  24
ENDBRANCH   1  21
TORSDOF 5
ENDMDL
