MODEL 1
REMARK VINA RESULT:      -8.4      0.000      0.000
REMARK  Name = 
REMARK  8 active torsions:
REMARK  status: ('A' for Active; 'I' for Inactive)
REMARK    1  A    between atoms: C_1  and  O_2
REMARK    2  A    between atoms: O_2  and  C_3
REMARK    3  A    between atoms: C_6  and  C_7
REMARK    4  A    between atoms: C_9  and  N_10
REMARK    5  A    between atoms: N_11  and  S_12
REMARK    6  A    between atoms: S_12  and  C_15
REMARK    7  A    between atoms: C_24  and  O_25
REMARK    8  A    between atoms: O_25  and  C_26
REMARK                            x       y       z     vdW  Elec       q    Type
REMARK                         _______ _______ _______ _____ _____    ______ ____
ROOT
ATOM      1  C   UNL     1       7.913   8.190  18.022  0.00  0.00    +0.000 A 
ATOM      2  C   UNL     1       8.256   6.986  18.694  0.00  0.00    +0.000 A 
ATOM      3  C   UNL     1       7.545   5.980  18.084  0.00  0.00    +0.000 A 
ATOM      4  N   UNL     1       6.768   6.611  17.125  0.00  0.00    +0.000 N 
ATOM      5  N   UNL     1       7.007   7.955  17.060  0.00  0.00    +0.000 NA
ENDROOT
BRANCH   1   9
ATOM      6  C   UNL     1       9.501  12.128  18.681  0.00  0.00    +0.000 A 
ATOM      7  C   UNL     1       9.955  11.031  19.428  0.00  0.00    +0.000 A 
ATOM      8  C   UNL     1       9.451   9.748  19.203  0.00  0.00    +0.000 A 
ATOM      9  C   UNL     1       8.441   9.537  18.261  0.00  0.00    +0.000 A 
ATOM     10  C   UNL     1       7.938  10.648  17.573  0.00  0.00    +0.000 A 
ATOM     11  C   UNL     1       8.448  11.942  17.774  0.00  0.00    +0.000 A 
BRANCH   6  13
ATOM     12  C   UNL     1      11.100  13.712  17.948  0.00  0.00    +0.000 C 
ATOM     13  O   UNL     1      10.046  13.370  18.849  0.00  0.00    +0.000 OA
ENDBRANCH   6  13
BRANCH  11  14
ATOM     14  O   UNL     1       7.807  12.864  16.988  0.00  0.00    +0.000 OA
ATOM     15  C   UNL     1       7.124  13.944  17.601  0.00  0.00    +0.000 C 
ENDBRANCH  11  14
ENDBRANCH   1   9
BRANCH   3  16
ATOM     16  N   UNL     1       7.577   4.653  18.338  0.00  0.00    +0.000 N 
ATOM     17  H   UNL     1       8.425   4.099  18.234  0.00  0.00    +0.000 HD
ATOM     18  H   UNL     1       6.843   4.186  18.884  0.00  0.00    +0.000 HD
ENDBRANCH   3  16
BRANCH   4  19
ATOM     19  S   UNL     1       5.744   5.781  16.005  0.00  0.00    +0.000 S 
ATOM     20  O   UNL     1       5.222   6.759  15.060  0.00  0.00    +0.000 OA
ATOM     21  O   UNL     1       6.508   4.626  15.558  0.00  0.00    +0.000 OA
BRANCH  19  22
ATOM     22  C   UNL     1       4.395   5.223  17.011  0.00  0.00    +0.000 A 
ATOM     23  C   UNL     1       3.682   6.145  17.783  0.00  0.00    +0.000 A 
ATOM     24  C   UNL     1       2.627   5.698  18.583  0.00  0.00    +0.000 A 
ATOM     25  C   UNL     1       2.292   4.344  18.603  0.00  0.00    +0.000 A 
ATOM     26 CL   UNL     1       1.000   3.797  19.599  0.00  0.00    +0.000 Cl
ATOM     27  C   UNL     1       2.997   3.427  17.820  0.00  0.00    +0.000 A 
ATOM     28  C   UNL     1       4.053   3.866  17.018  0.00  0.00    +0.000 A 
ENDBRANCH  19  22
ENDBRANCH   4  19
TORSDOF 6
ENDMDL
MODEL 2
REMARK VINA RESULT:      -8.2      0.790      2.056
REMARK  Name = 
REMARK  8 active torsions:
REMARK  status: ('A' for Active; 'I' for Inactive)
REMARK    1  A    between atoms: C_1  and  O_2
REMARK    2  A    between atoms: O_2  and  C_3
REMARK    3  A    between atoms: C_6  and  C_7
REMARK    4  A    between atoms: C_9  and  N_10
REMARK    5  A    between atoms: N_11  and  S_12
REMARK    6  A    between atoms: S_12  and  C_15
REMARK    7  A    between atoms: C_24  and  O_25
REMARK    8  A    between atoms: O_25  and  C_26
REMARK                            x       y       z     vdW  Elec       q    Type
REMARK                         _______ _______ _______ _____ _____    ______ ____
ROOT
ATOM      1  C   UNL     1       7.988   8.364  18.065  0.00  0.00    +0.000 A 
ATOM      2  C   UNL     1       8.333   7.188  18.785  0.00  0.00    +0.000 A 
ATOM      3  C   UNL     1       7.628   6.156  18.214  0.00  0.00    +0.000 A 
ATOM      4  N   UNL     1       6.851   6.747  17.229  0.00  0.00    +0.000 N 
ATOM      5  N   UNL     1       7.085   8.087  17.111  0.00  0.00    +0.000 NA
ENDROOT
BRANCH   1   9
ATOM      6  C   UNL     1       9.479  12.350  18.649  0.00  0.00    +0.000 A 
ATOM      7  C   UNL     1       8.491  12.082  17.690  0.00  0.00    +0.000 A 
ATOM      8  C   UNL     1       7.995  10.789  17.512  0.00  0.00    +0.000 A 
ATOM      9  C   UNL     1       8.511   9.721  18.250  0.00  0.00    +0.000 A 
ATOM     10  C   UNL     1       9.550   9.984  19.151  0.00  0.00    +0.000 A 
ATOM     11  C   UNL     1      10.047  11.282  19.357  0.00  0.00    +0.000 A 
BRANCH   6  13
ATOM     12  C   UNL     1      10.314  14.361  17.718  0.00  0.00    +0.000 C 
ATOM     13  O   UNL     1       9.913  13.628  18.876  0.00  0.00    +0.000 OA
ENDBRANCH   6  13
BRANCH  11  14
ATOM     14  O   UNL     1      11.054  11.295  20.286  0.00  0.00    +0.000 OA
ATOM     15  C   UNL     1      12.333  11.783  19.918  0.00  0.00    +0.000 C 
ENDBRANCH  11  14
ENDBRANCH   1   9
BRANCH   3  16
ATOM     16  N   UNL     1       7.664   4.841  18.521  0.00  0.00    +0.000 N 
ATOM     17  H   UNL     1       8.522   4.370  18.800  0.00  0.00    +0.000 HD
ATOM     18  H   UNL     1       6.812   4.310  18.738  0.00  0.00    +0.000 HD
ENDBRANCH   3  16
BRANCH   4  19
ATOM     19  S   UNL     1       5.832   5.868  16.140  0.00  0.00    +0.000 S 
ATOM     20  O   UNL     1       5.296   6.810  15.166  0.00  0.00    +0.000 OA
ATOM     21  O   UNL     1       6.607   4.708  15.728  0.00  0.00    +0.000 OA
BRANCH  19  22
ATOM     22  C   UNL     1       4.493   5.329  17.170  0.00  0.00    +0.000 A 
ATOM     23  C   UNL     1       4.235   3.962  17.308  0.00  0.00    +0.000 A 
ATOM     24  C   UNL     1       3.172   3.543  18.110  0.00  0.00    +0.000 A 
ATOM     25  C   UNL     1       2.381   4.486  18.769  0.00  0.00    +0.000 A 
ATOM     26 CL   UNL     1       1.066   3.965  19.747  0.00  0.00    +0.000 Cl
ATOM     27  C   UNL     1       2.650   5.850  18.642  0.00  0.00    +0.000 A 
ATOM     28  C   UNL     1       3.711   6.277  17.840  0.00  0.00    +0.000 A 
ENDBRANCH  19  22
ENDBRANCH   4  19
TORSDOF 6
ENDMDL
MODEL 3
REMARK VINA RESULT:      -8.2      0.911      1.885
REMARK  Name = 
REMARK  8 active torsions:
REMARK  status: ('A' for Active; 'I' for Inactive)
REMARK    1  A    between atoms: C_1  and  O_2
REMARK    2  A    between atoms: O_2  and  C_3
REMARK    3  A    between atoms: C_6  and  C_7
REMARK    4  A    between atoms: C_9  and  N_10
REMARK    5  A    between atoms: N_11  and  S_12
REMARK    6  A    between atoms: S_12  and  C_15
REMARK    7  A    between atoms: C_24  and  O_25
REMARK    8  A    between atoms: O_25  and  C_26
REMARK                            x       y       z     vdW  Elec       q    Type
REMARK                         _______ _______ _______ _____ _____    ______ ____
ROOT
ATOM      1  C   UNL     1       7.984   8.411  18.059  0.00  0.00    +0.000 A 
ATOM      2  C   UNL     1       8.345   7.255  18.804  0.00  0.00    +0.000 A 
ATOM      3  C   UNL     1       7.663   6.200  18.247  0.00  0.00    +0.000 A 
ATOM      4  N   UNL     1       6.885   6.757  17.243  0.00  0.00    +0.000 N 
ATOM      5  N   UNL     1       7.096   8.099  17.102  0.00  0.00    +0.000 NA
ENDROOT
BRANCH   1   9
ATOM      6  C   UNL     1       9.396  12.435  18.582  0.00  0.00    +0.000 A 
ATOM      7  C   UNL     1       8.418  12.131  17.623  0.00  0.00    +0.000 A 
ATOM      8  C   UNL     1       7.948  10.825  17.464  0.00  0.00    +0.000 A 
ATOM      9  C   UNL     1       8.480   9.781  18.224  0.00  0.00    +0.000 A 
ATOM     10  C   UNL     1       9.510  10.078  19.124  0.00  0.00    +0.000 A 
ATOM     11  C   UNL     1       9.981  11.389  19.310  0.00  0.00    +0.000 A 
BRANCH   6  13
ATOM     12  C   UNL     1       8.904  14.547  19.532  0.00  0.00    +0.000 C 
ATOM     13  O   UNL     1       9.804  13.723  18.789  0.00  0.00    +0.000 OA
ENDBRANCH   6  13
BRANCH  11  14
ATOM     14  O   UNL     1      10.982  11.437  20.244  0.00  0.00    +0.000 OA
ATOM     15  C   UNL     1      12.302  11.752  19.832  0.00  0.00    +0.000 C 
ENDBRANCH  11  14
ENDBRANCH   1   9
BRANCH   3  16
ATOM     16  N   UNL     1       7.721   4.892  18.579  0.00  0.00    +0.000 N 
ATOM     17  H   UNL     1       7.103   4.478  19.273  0.00  0.00    +0.000 HD
ATOM     18  H   UNL     1       8.198   4.201  17.986  0.00  0.00    +0.000 HD
ENDBRANCH   3  16
BRANCH   4  19
ATOM     19  S   UNL     1       5.894   5.840  16.162  0.00  0.00    +0.000 S 
ATOM     20  O   UNL     1       5.385   6.744  15.139  0.00  0.00    +0.000 OA
ATOM     21  O   UNL     1       6.676   4.663  15.815  0.00  0.00    +0.000 OA
BRANCH  19  22
ATOM     22  C   UNL     1       4.527   5.342  17.176  0.00  0.00    +0.000 A 
ATOM     23  C   UNL     1       3.817   6.304  17.900  0.00  0.00    +0.000 A 
ATOM     24  C   UNL     1       2.748   5.904  18.706  0.00  0.00    +0.000 A 
ATOM     25  C   UNL     1       2.395   4.556  18.779  0.00  0.00    +0.000 A 
ATOM     26 CL   UNL     1       1.085   4.068  19.782  0.00  0.00    +0.000 Cl
ATOM     27  C   UNL     1       3.096   3.599  18.043  0.00  0.00    +0.000 A 
ATOM     28  C   UNL     1       4.166   3.990  17.235  0.00  0.00    +0.000 A 
ENDBRANCH  19  22
ENDBRANCH   4  19
TORSDOF 6
ENDMDL
MODEL 4
REMARK VINA RESULT:      -7.8      5.485      6.837
REMARK  Name = 
REMARK  8 active torsions:
REMARK  status: ('A' for Active; 'I' for Inactive)
REMARK    1  A    between atoms: C_1  and  O_2
REMARK    2  A    between atoms: O_2  and  C_3
REMARK    3  A    between atoms: C_6  and  C_7
REMARK    4  A    between atoms: C_9  and  N_10
REMARK    5  A    between atoms: N_11  and  S_12
REMARK    6  A    between atoms: S_12  and  C_15
REMARK    7  A    between atoms: C_24  and  O_25
REMARK    8  A    between atoms: O_25  and  C_26
REMARK                            x       y       z     vdW  Elec       q    Type
REMARK                         _______ _______ _______ _____ _____    ______ ____
ROOT
ATOM      1  C   UNL     1       2.527   6.668  19.475  0.00  0.00    +0.000 A 
ATOM      2  C   UNL     1       1.920   5.500  20.012  0.00  0.00    +0.000 A 
ATOM      3  C   UNL     1       2.884   4.520  20.008  0.00  0.00    +0.000 A 
ATOM      4  N   UNL     1       3.997   5.105  19.424  0.00  0.00    +0.000 N 
ATOM      5  N   UNL     1       3.799   6.422  19.122  0.00  0.00    +0.000 NA
ENDROOT
BRANCH   1   9
ATOM      6  C   UNL     1       0.743  10.546  18.988  0.00  0.00    +0.000 A 
ATOM      7  C   UNL     1       1.481   9.955  17.952  0.00  0.00    +0.000 A 
ATOM      8  C   UNL     1       2.048   8.687  18.105  0.00  0.00    +0.000 A 
ATOM      9  C   UNL     1       1.935   8.000  19.316  0.00  0.00    +0.000 A 
ATOM     10  C   UNL     1       1.263   8.629  20.371  0.00  0.00    +0.000 A 
ATOM     11  C   UNL     1       0.670   9.895  20.227  0.00  0.00    +0.000 A 
BRANCH   6  13
ATOM     12  C   UNL     1      -1.226  11.700  18.355  0.00  0.00    +0.000 C 
ATOM     13  O   UNL     1       0.126  11.754  18.814  0.00  0.00    +0.000 OA
ENDBRANCH   6  13
BRANCH  11  14
ATOM     14  O   UNL     1       0.065  10.302  21.387  0.00  0.00    +0.000 OA
ATOM     15  C   UNL     1       0.244   9.541  22.569  0.00  0.00    +0.000 C 
ENDBRANCH  11  14
ENDBRANCH   1   9
BRANCH   3  16
ATOM     16  N   UNL     1       2.797   3.254  20.470  0.00  0.00    +0.000 N 
ATOM     17  H   UNL     1       3.268   2.950  21.320  0.00  0.00    +0.000 HD
ATOM     18  H   UNL     1       2.065   2.607  20.150  0.00  0.00    +0.000 HD
ENDBRANCH   3  16
BRANCH   4  19
ATOM     19  S   UNL     1       5.530   4.320  19.258  0.00  0.00    +0.000 S 
ATOM     20  O   UNL     1       6.541   5.171  19.873  0.00  0.00    +0.000 OA
ATOM     21  O   UNL     1       5.319   2.950  19.701  0.00  0.00    +0.000 OA
BRANCH  19  22
ATOM     22  C   UNL     1       5.809   4.322  17.507  0.00  0.00    +0.000 A 
ATOM     23  C   UNL     1       4.762   3.997  16.640  0.00  0.00    +0.000 A 
ATOM     24  C   UNL     1       4.991   3.989  15.262  0.00  0.00    +0.000 A 
ATOM     25  C   UNL     1       6.255   4.307  14.763  0.00  0.00    +0.000 A 
ATOM     26 CL   UNL     1       6.534   4.284  13.066  0.00  0.00    +0.000 Cl
ATOM     27  C   UNL     1       7.295   4.645  15.630  0.00  0.00    +0.000 A 
ATOM     28  C   UNL     1       7.075   4.656  17.009  0.00  0.00    +0.000 A 
ENDBRANCH  19  22
ENDBRANCH   4  19
TORSDOF 6
ENDMDL
MODEL 5
REMARK VINA RESULT:      -7.8      5.187      6.566
REMARK  Name = 
REMARK  8 active torsions:
REMARK  status: ('A' for Active; 'I' for Inactive)
REMARK    1  A    between atoms: C_1  and  O_2
REMARK    2  A    between atoms: O_2  and  C_3
REMARK    3  A    between atoms: C_6  and  C_7
REMARK    4  A    between atoms: C_9  and  N_10
REMARK    5  A    between atoms: N_11  and  S_12
REMARK    6  A    between atoms: S_12  and  C_15
REMARK    7  A    between atoms: C_24  and  O_25
REMARK    8  A    between atoms: O_25  and  C_26
REMARK                            x       y       z     vdW  Elec       q    Type
REMARK                         _______ _______ _______ _____ _____    ______ ____
ROOT
ATOM      1  C   UNL     1       3.803   6.586  18.455  0.00  0.00    +0.000 A 
ATOM      2  C   UNL     1       3.949   5.305  19.054  0.00  0.00    +0.000 A 
ATOM      3  C   UNL     1       5.108   4.765  18.548  0.00  0.00    +0.000 A 
ATOM      4  N   UNL     1       5.576   5.696  17.634  0.00  0.00    +0.000 N 
ATOM      5  N   UNL     1       4.803   6.822  17.591  0.00  0.00    +0.000 NA
ENDROOT
BRANCH   1   9
ATOM      6  C   UNL     1       0.697   9.470  19.156  0.00  0.00    +0.000 A 
ATOM      7  C   UNL     1       1.431   9.476  17.960  0.00  0.00    +0.000 A 
ATOM      8  C   UNL     1       2.430   8.527  17.726  0.00  0.00    +0.000 A 
ATOM      9  C   UNL     1       2.756   7.582  18.702  0.00  0.00    +0.000 A 
ATOM     10  C   UNL     1       2.073   7.632  19.923  0.00  0.00    +0.000 A 
ATOM     11  C   UNL     1       1.052   8.566  20.167  0.00  0.00    +0.000 A 
BRANCH   6  13
ATOM     12  C   UNL     1      -0.029  11.724  19.100  0.00  0.00    +0.000 C 
ATOM     13  O   UNL     1      -0.330  10.351  19.356  0.00  0.00    +0.000 OA
ENDBRANCH   6  13
BRANCH  11  14
ATOM     14  O   UNL     1       0.525   8.420  21.423  0.00  0.00    +0.000 OA
ATOM     15  C   UNL     1       0.903   9.327  22.445  0.00  0.00    +0.000 C 
ENDBRANCH  11  14
ENDBRANCH   1   9
BRANCH   3  16
ATOM     16  N   UNL     1       5.692   3.587  18.858  0.00  0.00    +0.000 N 
ATOM     17  H   UNL     1       5.877   3.306  19.818  0.00  0.00    +0.000 HD
ATOM     18  H   UNL     1       5.746   2.813  18.184  0.00  0.00    +0.000 HD
ENDBRANCH   3  16
BRANCH   4  19
ATOM     19  S   UNL     1       7.069   5.545  16.773  0.00  0.00    +0.000 S 
ATOM     20  O   UNL     1       7.556   6.885  16.476  0.00  0.00    +0.000 OA
ATOM     21  O   UNL     1       7.867   4.598  17.536  0.00  0.00    +0.000 OA
BRANCH  19  22
ATOM     22  C   UNL     1       6.589   4.789  15.242  0.00  0.00    +0.000 A 
ATOM     23  C   UNL     1       7.411   4.922  14.119  0.00  0.00    +0.000 A 
ATOM     24  C   UNL     1       7.022   4.334  12.912  0.00  0.00    +0.000 A 
ATOM     25  C   UNL     1       5.826   3.619  12.838  0.00  0.00    +0.000 A 
ATOM     26 CL   UNL     1       5.347   2.907  11.347  0.00  0.00    +0.000 Cl
ATOM     27  C   UNL     1       5.015   3.475  13.965  0.00  0.00    +0.000 A 
ATOM     28  C   UNL     1       5.396   4.060  15.175  0.00  0.00    +0.000 A 
ENDBRANCH  19  22
ENDBRANCH   4  19
TORSDOF 6
ENDMDL
MODEL 6
REMARK VINA RESULT:      -7.8      6.244      9.212
REMARK  Name = 
REMARK  8 active torsions:
REMARK  status: ('A' for Active; 'I' for Inactive)
REMARK    1  A    between atoms: C_1  and  O_2
REMARK    2  A    between atoms: O_2  and  C_3
REMARK    3  A    between atoms: C_6  and  C_7
REMARK    4  A    between atoms: C_9  and  N_10
REMARK    5  A    between atoms: N_11  and  S_12
REMARK    6  A    between atoms: S_12  and  C_15
REMARK    7  A    between atoms: C_24  and  O_25
REMARK    8  A    between atoms: O_25  and  C_26
REMARK                            x       y       z     vdW  Elec       q    Type
REMARK                         _______ _______ _______ _____ _____    ______ ____
ROOT
ATOM      1  C   UNL     1       2.202   7.741  18.900  0.00  0.00    +0.000 A 
ATOM      2  C   UNL     1       2.540   8.680  17.888  0.00  0.00    +0.000 A 
ATOM      3  C   UNL     1       1.955   9.871  18.246  0.00  0.00    +0.000 A 
ATOM      4  N   UNL     1       1.248   9.596  19.407  0.00  0.00    +0.000 N 
ATOM      5  N   UNL     1       1.416   8.308  19.829  0.00  0.00    +0.000 NA
ENDROOT
BRANCH   1   9
ATOM      6  C   UNL     1       3.492   3.657  19.241  0.00  0.00    +0.000 A 
ATOM      7  C   UNL     1       3.707   4.386  18.062  0.00  0.00    +0.000 A 
ATOM      8  C   UNL     1       3.302   5.719  17.957  0.00  0.00    +0.000 A 
ATOM      9  C   UNL     1       2.625   6.341  19.009  0.00  0.00    +0.000 A 
ATOM     10  C   UNL     1       2.346   5.584  20.153  0.00  0.00    +0.000 A 
ATOM     11  C   UNL     1       2.764   4.248  20.282  0.00  0.00    +0.000 A 
BRANCH   6  13
ATOM     12  C   UNL     1       3.554   1.466  18.346  0.00  0.00    +0.000 C 
ATOM     13  O   UNL     1       3.954   2.376  19.371  0.00  0.00    +0.000 OA
ENDBRANCH   6  13
BRANCH  11  14
ATOM     14  O   UNL     1       2.384   3.716  21.486  0.00  0.00    +0.000 OA
ATOM     15  C   UNL     1       1.341   2.757  21.524  0.00  0.00    +0.000 C 
ENDBRANCH  11  14
ENDBRANCH   1   9
BRANCH   3  16
ATOM     16  N   UNL     1       2.036  11.068  17.625  0.00  0.00    +0.000 N 
ATOM     17  H   UNL     1       1.649  11.918  18.028  0.00  0.00    +0.000 HD
ATOM     18  H   UNL     1       2.698  11.239  16.858  0.00  0.00    +0.000 HD
ENDBRANCH   3  16
BRANCH   4  19
ATOM     19  S   UNL     1       0.395  10.786  20.328  0.00  0.00    +0.000 S 
ATOM     20  O   UNL     1       0.089  10.213  21.632  0.00  0.00    +0.000 OA
ATOM     21  O   UNL     1       1.171  12.011  20.200  0.00  0.00    +0.000 OA
BRANCH  19  22
ATOM     22  C   UNL     1      -1.131  10.978  19.446  0.00  0.00    +0.000 A 
ATOM     23  C   UNL     1      -2.022  11.989  19.818  0.00  0.00    +0.000 A 
ATOM     24  C   UNL     1      -3.228  12.128  19.128  0.00  0.00    +0.000 A 
ATOM     25  C   UNL     1      -3.532  11.265  18.074  0.00  0.00    +0.000 A 
ATOM     26 CL   UNL     1      -5.024  11.433  17.234  0.00  0.00    +0.000 Cl
ATOM     27  C   UNL     1      -2.634  10.265  17.694  0.00  0.00    +0.000 A 
ATOM     28  C   UNL     1      -1.426  10.119  18.380  0.00  0.00    +0.000 A 
ENDBRANCH  19  22
ENDBRANCH   4  19
TORSDOF 6
ENDMDL
MODEL 7
REMARK VINA RESULT:      -7.7      5.442      6.706
REMARK  Name = 
REMARK  8 active torsions:
REMARK  status: ('A' for Active; 'I' for Inactive)
REMARK    1  A    between atoms: C_1  and  O_2
REMARK    2  A    between atoms: O_2  and  C_3
REMARK    3  A    between atoms: C_6  and  C_7
REMARK    4  A    between atoms: C_9  and  N_10
REMARK    5  A    between atoms: N_11  and  S_12
REMARK    6  A    between atoms: S_12  and  C_15
REMARK    7  A    between atoms: C_24  and  O_25
REMARK    8  A    between atoms: O_25  and  C_26
REMARK                            x       y       z     vdW  Elec       q    Type
REMARK                         _______ _______ _______ _____ _____    ______ ____
ROOT
ATOM      1  C   UNL     1       2.219   6.190  19.882  0.00  0.00    +0.000 A 
ATOM      2  C   UNL     1       1.730   5.431  20.980  0.00  0.00    +0.000 A 
ATOM      3  C   UNL     1       2.334   4.199  20.906  0.00  0.00    +0.000 A 
ATOM      4  N   UNL     1       3.103   4.238  19.753  0.00  0.00    +0.000 N 
ATOM      5  N   UNL     1       3.063   5.457  19.139  0.00  0.00    +0.000 NA
ENDROOT
BRANCH   1   9
ATOM      6  C   UNL     1       1.293  10.263  18.876  0.00  0.00    +0.000 A 
ATOM      7  C   UNL     1       1.962   9.429  17.968  0.00  0.00    +0.000 A 
ATOM      8  C   UNL     1       2.248   8.100  18.289  0.00  0.00    +0.000 A 
ATOM      9  C   UNL     1       1.921   7.586  19.546  0.00  0.00    +0.000 A 
ATOM     10  C   UNL     1       1.323   8.446  20.475  0.00  0.00    +0.000 A 
ATOM     11  C   UNL     1       1.009   9.779  20.161  0.00  0.00    +0.000 A 
BRANCH   6  13
ATOM     12  C   UNL     1       2.012  12.492  18.531  0.00  0.00    +0.000 C 
ATOM     13  O   UNL     1       0.946  11.541  18.535  0.00  0.00    +0.000 OA
ENDBRANCH   6  13
BRANCH  11  14
ATOM     14  O   UNL     1       0.426  10.423  21.220  0.00  0.00    +0.000 OA
ATOM     15  C   UNL     1       0.231   9.722  22.437  0.00  0.00    +0.000 C 
ENDBRANCH  11  14
ENDBRANCH   1   9
BRANCH   3  16
ATOM     16  N   UNL     1       2.224   3.156  21.757  0.00  0.00    +0.000 N 
ATOM     17  H   UNL     1       1.326   2.834  22.112  0.00  0.00    +0.000 HD
ATOM     18  H   UNL     1       2.987   2.481  21.892  0.00  0.00    +0.000 HD
ENDBRANCH   3  16
BRANCH   4  19
ATOM     19  S   UNL     1       4.147   2.958  19.240  0.00  0.00    +0.000 S 
ATOM     20  O   UNL     1       5.104   2.700  20.309  0.00  0.00    +0.000 OA
ATOM     21  O   UNL     1       3.268   1.912  18.739  0.00  0.00    +0.000 OA
BRANCH  19  22
ATOM     22  C   UNL     1       5.033   3.666  17.877  0.00  0.00    +0.000 A 
ATOM     23  C   UNL     1       4.487   3.604  16.592  0.00  0.00    +0.000 A 
ATOM     24  C   UNL     1       5.194   4.153  15.519  0.00  0.00    +0.000 A 
ATOM     25  C   UNL     1       6.432   4.760  15.738  0.00  0.00    +0.000 A 
ATOM     26 CL   UNL     1       7.304   5.425  14.412  0.00  0.00    +0.000 Cl
ATOM     27  C   UNL     1       6.968   4.834  17.025  0.00  0.00    +0.000 A 
ATOM     28  C   UNL     1       6.267   4.286  18.102  0.00  0.00    +0.000 A 
ENDBRANCH  19  22
ENDBRANCH   4  19
TORSDOF 6
ENDMDL
MODEL 8
REMARK VINA RESULT:      -7.7      5.534      6.911
REMARK  Name = 
REMARK  8 active torsions:
REMARK  status: ('A' for Active; 'I' for Inactive)
REMARK    1  A    between atoms: C_1  and  O_2
REMARK    2  A    between atoms: O_2  and  C_3
REMARK    3  A    between atoms: C_6  and  C_7
REMARK    4  A    between atoms: C_9  and  N_10
REMARK    5  A    between atoms: N_11  and  S_12
REMARK    6  A    between atoms: S_12  and  C_15
REMARK    7  A    between atoms: C_24  and  O_25
REMARK    8  A    between atoms: O_25  and  C_26
REMARK                            x       y       z     vdW  Elec       q    Type
REMARK                         _______ _______ _______ _____ _____    ______ ____
ROOT
ATOM      1  C   UNL     1       2.472   6.664  19.585  0.00  0.00    +0.000 A 
ATOM      2  C   UNL     1       1.828   5.423  19.842  0.00  0.00    +0.000 A 
ATOM      3  C   UNL     1       2.799   4.453  19.760  0.00  0.00    +0.000 A 
ATOM      4  N   UNL     1       3.958   5.125  19.403  0.00  0.00    +0.000 N 
ATOM      5  N   UNL     1       3.775   6.476  19.322  0.00  0.00    +0.000 NA
ENDROOT
BRANCH   1   9
ATOM      6  C   UNL     1       0.694  10.575  19.640  0.00  0.00    +0.000 A 
ATOM      7  C   UNL     1       1.153  10.007  18.442  0.00  0.00    +0.000 A 
ATOM      8  C   UNL     1       1.716   8.728  18.422  0.00  0.00    +0.000 A 
ATOM      9  C   UNL     1       1.883   8.006  19.607  0.00  0.00    +0.000 A 
ATOM     10  C   UNL     1       1.494   8.611  20.808  0.00  0.00    +0.000 A 
ATOM     11  C   UNL     1       0.908   9.888  20.843  0.00  0.00    +0.000 A 
BRANCH   6  13
ATOM     12  C   UNL     1      -1.352  11.766  19.600  0.00  0.00    +0.000 C 
ATOM     13  O   UNL     1       0.076  11.795  19.650  0.00  0.00    +0.000 OA
ENDBRANCH   6  13
BRANCH  11  14
ATOM     14  O   UNL     1       0.605  10.268  22.124  0.00  0.00    +0.000 OA
ATOM     15  C   UNL     1      -0.407   9.573  22.835  0.00  0.00    +0.000 C 
ENDBRANCH  11  14
ENDBRANCH   1   9
BRANCH   3  16
ATOM     16  N   UNL     1       2.681   3.125  19.979  0.00  0.00    +0.000 N 
ATOM     17  H   UNL     1       1.789   2.640  19.917  0.00  0.00    +0.000 HD
ATOM     18  H   UNL     1       3.494   2.498  19.964  0.00  0.00    +0.000 HD
ENDBRANCH   3  16
BRANCH   4  19
ATOM     19  S   UNL     1       5.508   4.373  19.254  0.00  0.00    +0.000 S 
ATOM     20  O   UNL     1       6.498   5.256  19.857  0.00  0.00    +0.000 OA
ATOM     21  O   UNL     1       5.327   3.006  19.718  0.00  0.00    +0.000 OA
BRANCH  19  22
ATOM     22  C   UNL     1       5.793   4.353  17.504  0.00  0.00    +0.000 A 
ATOM     23  C   UNL     1       7.068   4.637  17.008  0.00  0.00    +0.000 A 
ATOM     24  C   UNL     1       7.284   4.632  15.628  0.00  0.00    +0.000 A 
ATOM     25  C   UNL     1       6.232   4.339  14.759  0.00  0.00    +0.000 A 
ATOM     26 CL   UNL     1       6.500   4.345  13.060  0.00  0.00    +0.000 Cl
ATOM     27  C   UNL     1       4.962   4.040  15.257  0.00  0.00    +0.000 A 
ATOM     28  C   UNL     1       4.738   4.044  16.636  0.00  0.00    +0.000 A 
ENDBRANCH  19  22
ENDBRANCH   4  19
TORSDOF 6
ENDMDL
MODEL 9
REMARK VINA RESULT:      -7.6      1.003      1.969
REMARK  Name = 
REMARK  8 active torsions:
REMARK  status: ('A' for Active; 'I' for Inactive)
REMARK    1  A    between atoms: C_1  and  O_2
REMARK    2  A    between atoms: O_2  and  C_3
REMARK    3  A    between atoms: C_6  and  C_7
REMARK    4  A    between atoms: C_9  and  N_10
REMARK    5  A    between atoms: N_11  and  S_12
REMARK    6  A    between atoms: S_12  and  C_15
REMARK    7  A    between atoms: C_24  and  O_25
REMARK    8  A    between atoms: O_25  and  C_26
REMARK                            x       y       z     vdW  Elec       q    Type
REMARK                         _______ _______ _______ _____ _____    ______ ____
ROOT
ATOM      1  C   UNL     1       7.992   8.248  18.197  0.00  0.00    +0.000 A 
ATOM      2  C   UNL     1       8.243   7.024  18.874  0.00  0.00    +0.000 A 
ATOM      3  C   UNL     1       7.501   6.061  18.232  0.00  0.00    +0.000 A 
ATOM      4  N   UNL     1       6.796   6.738  17.249  0.00  0.00    +0.000 N 
ATOM      5  N   UNL     1       7.111   8.066  17.201  0.00  0.00    +0.000 NA
ENDROOT
BRANCH   1   9
ATOM      6  C   UNL     1       9.673  12.123  18.982  0.00  0.00    +0.000 A 
ATOM      7  C   UNL     1       9.371  11.719  17.673  0.00  0.00    +0.000 A 
ATOM      8  C   UNL     1       8.809  10.465  17.420  0.00  0.00    +0.000 A 
ATOM      9  C   UNL     1       8.584   9.563  18.463  0.00  0.00    +0.000 A 
ATOM     10  C   UNL     1       8.959   9.944  19.757  0.00  0.00    +0.000 A 
ATOM     11  C   UNL     1       9.507  11.208  20.031  0.00  0.00    +0.000 A 
BRANCH   6  13
ATOM     12  C   UNL     1      11.563  13.547  19.074  0.00  0.00    +0.000 C 
ATOM     13  O   UNL     1      10.154  13.377  19.239  0.00  0.00    +0.000 OA
ENDBRANCH   6  13
BRANCH  11  14
ATOM     14  O   UNL     1       9.788  11.357  21.364  0.00  0.00    +0.000 OA
ATOM     15  C   UNL     1       8.798  11.886  22.229  0.00  0.00    +0.000 C 
ENDBRANCH  11  14
ENDBRANCH   1   9
BRANCH   3  16
ATOM     16  N   UNL     1       7.451   4.734  18.480  0.00  0.00    +0.000 N 
ATOM     17  H   UNL     1       7.850   4.321  19.320  0.00  0.00    +0.000 HD
ATOM     18  H   UNL     1       6.802   4.112  17.982  0.00  0.00    +0.000 HD
ENDBRANCH   3  16
BRANCH   4  19
ATOM     19  S   UNL     1       5.771   5.969  16.087  0.00  0.00    +0.000 S 
ATOM     20  O   UNL     1       5.210   7.003  15.226  0.00  0.00    +0.000 OA
ATOM     21  O   UNL     1       6.552   4.869  15.542  0.00  0.00    +0.000 OA
BRANCH  19  22
ATOM     22  C   UNL     1       4.453   5.307  17.071  0.00  0.00    +0.000 A 
ATOM     23  C   UNL     1       4.211   3.930  17.065  0.00  0.00    +0.000 A 
ATOM     24  C   UNL     1       3.164   3.415  17.832  0.00  0.00    +0.000 A 
ATOM     25  C   UNL     1       2.374   4.273  18.599  0.00  0.00    +0.000 A 
ATOM     26 CL   UNL     1       1.079   3.634  19.534  0.00  0.00    +0.000 Cl
ATOM     27  C   UNL     1       2.627   5.646  18.616  0.00  0.00    +0.000 A 
ATOM     28  C   UNL     1       3.672   6.169  17.850  0.00  0.00    +0.000 A 
ENDBRANCH  19  22
ENDBRANCH   4  19
TORSDOF 6
ENDMDL
