MODEL 1
REMARK VINA RESULT:      -8.7      0.000      0.000
REMARK  Name = 
REMARK  9 active torsions:
REMARK  status: ('A' for Active; 'I' for Inactive)
REMARK    1  A    between atoms: C_1  and  C_2
REMARK    2  A    between atoms: C_4  and  C_5
REMARK    3  A    between atoms: C_8  and  C_9
REMARK    4  A    between atoms: C_9  and  C_11
REMARK    5  A    between atoms: C_16  and  C_17
REMARK    6  A    between atoms: N_19  and  C_20
REMARK    7  A    between atoms: N_23  and  C_24
REMARK    8  A    between atoms: C_25  and  C_26
REMARK    9  A    between atoms: C_26  and  O_28
REMARK                            x       y       z     vdW  Elec       q    Type
REMARK                         _______ _______ _______ _____ _____    ______ ____
ROOT
ATOM      1  C   UNL     1       2.573   4.257  20.535  0.00  0.00    +0.000 C 
ATOM      2  C   UNL     1       1.259   3.632  20.056  0.00  0.00    +0.000 C 
ATOM      3  C   UNL     1       0.998   3.738  18.550  0.00  0.00    +0.000 C 
ATOM      4  C   UNL     1       1.348   5.071  17.897  0.00  0.00    +0.000 C 
ATOM      5  C   UNL     1       2.615   5.731  18.434  0.00  0.00    +0.000 C 
ATOM      6  C   UNL     1       2.713   5.701  19.974  0.00  0.00    +0.000 C 
ENDROOT
BRANCH   6   7
ATOM      7  C   UNL     1       1.653   6.655  20.555  0.00  0.00    +0.000 C 
ATOM      8  O   UNL     1       0.546   6.255  20.915  0.00  0.00    +0.000 OA
ATOM      9  N   UNL     1       2.021   7.981  20.628  0.00  0.00    +0.000 N 
ATOM     10  H   UNL     1       2.830   8.318  20.111  0.00  0.00    +0.000 HD
BRANCH   9  11
ATOM     11  C   UNL     1       1.229   8.934  21.261  0.00  0.00    +0.000 A 
ATOM     12  C   UNL     1       1.018   9.172  22.635  0.00  0.00    +0.000 A 
ATOM     13  N   UNL     1       0.201  10.203  22.849  0.00  0.00    +0.000 NA
ATOM     14  N   UNL     1      -0.097  10.642  21.614  0.00  0.00    +0.000 N 
ATOM     15  C   UNL     1      -0.867  11.862  21.524  0.00  0.00    +0.000 C 
ATOM     16  C   UNL     1       0.450   9.877  20.606  0.00  0.00    +0.000 A 
BRANCH  16  17
ATOM     17  C   UNL     1       0.323  10.017  19.181  0.00  0.00    +0.000 C 
ATOM     18  O   UNL     1      -0.745  10.064  18.588  0.00  0.00    +0.000 OA
BRANCH  17  19
ATOM     19  O   UNL     1       1.500  10.185  18.538  0.00  0.00    +0.000 OA
ATOM     20  H   UNL     1       1.447  10.757  17.753  0.00  0.00    +0.000 HD
ENDBRANCH  17  19
ENDBRANCH  16  17
ENDBRANCH   9  11
ENDBRANCH   6   7
BRANCH   1  21
ATOM     21  C   UNL     1       3.797   3.377  20.211  0.00  0.00    +0.000 C 
ATOM     22  O   UNL     1       4.114   2.432  20.934  0.00  0.00    +0.000 OA
BRANCH  21  26
ATOM     23  C   UNL     1       5.964   4.132  16.521  0.00  0.00    +0.000 A 
ATOM     24  C   UNL     1       6.412   4.696  17.725  0.00  0.00    +0.000 A 
ATOM     25  C   UNL     1       5.758   4.433  18.950  0.00  0.00    +0.000 A 
ATOM     26  C   UNL     1       4.639   3.597  18.986  0.00  0.00    +0.000 A 
ATOM     27  C   UNL     1       4.215   3.002  17.789  0.00  0.00    +0.000 A 
ATOM     28  C   UNL     1       4.865   3.263  16.575  0.00  0.00    +0.000 A 
BRANCH  23  32
ATOM     29  C   UNL     1       7.401   4.718  11.648  0.00  0.00    +0.000 C 
ATOM     30  C   UNL     1       7.239   4.765  13.123  0.00  0.00    +0.000 A 
ATOM     31  C   UNL     1       6.315   4.065  13.936  0.00  0.00    +0.000 A 
ATOM     32  C   UNL     1       6.567   4.480  15.237  0.00  0.00    +0.000 A 
ATOM     33  N   UNL     1       7.616   5.355  15.113  0.00  0.00    +0.000 N 
ATOM     34  N   UNL     1       8.037   5.556  13.853  0.00  0.00    +0.000 NA
ATOM     35  H   UNL     1       8.106   5.842  15.858  0.00  0.00    +0.000 HD
ENDBRANCH  23  32
ENDBRANCH  21  26
ENDBRANCH   1  21
TORSDOF 7
ENDMDL
MODEL 2
REMARK VINA RESULT:      -8.3      0.794      1.345
REMARK  Name = 
REMARK  9 active torsions:
REMARK  status: ('A' for Active; 'I' for Inactive)
REMARK    1  A    between atoms: C_1  and  C_2
REMARK    2  A    between atoms: C_4  and  C_5
REMARK    3  A    between atoms: C_8  and  C_9
REMARK    4  A    between atoms: C_9  and  C_11
REMARK    5  A    between atoms: C_16  and  C_17
REMARK    6  A    between atoms: N_19  and  C_20
REMARK    7  A    between atoms: N_23  and  C_24
REMARK    8  A    between atoms: C_25  and  C_26
REMARK    9  A    between atoms: C_26  and  O_28
REMARK                            x       y       z     vdW  Elec       q    Type
REMARK                         _______ _______ _______ _____ _____    ______ ____
ROOT
ATOM      1  C   UNL     1       3.420   4.404  20.451  0.00  0.00    +0.000 C 
ATOM      2  C   UNL     1       2.532   3.556  21.366  0.00  0.00    +0.000 C 
ATOM      3  C   UNL     1       1.406   2.795  20.660  0.00  0.00    +0.000 C 
ATOM      4  C   UNL     1       0.658   3.555  19.570  0.00  0.00    +0.000 C 
ATOM      5  C   UNL     1       1.535   4.462  18.709  0.00  0.00    +0.000 C 
ATOM      6  C   UNL     1       2.539   5.298  19.531  0.00  0.00    +0.000 C 
ENDROOT
BRANCH   6   7
ATOM      7  C   UNL     1       1.761   6.362  20.328  0.00  0.00    +0.000 C 
ATOM      8  O   UNL     1       1.051   6.064  21.288  0.00  0.00    +0.000 OA
ATOM      9  N   UNL     1       1.902   7.659  19.883  0.00  0.00    +0.000 N 
ATOM     10  H   UNL     1       2.290   7.846  18.962  0.00  0.00    +0.000 HD
BRANCH   9  11
ATOM     11  C   UNL     1       1.379   8.741  20.586  0.00  0.00    +0.000 A 
ATOM     12  C   UNL     1       1.371   9.005  21.971  0.00  0.00    +0.000 A 
ATOM     13  N   UNL     1       0.793  10.171  22.258  0.00  0.00    +0.000 NA
ATOM     14  N   UNL     1       0.448  10.667  21.057  0.00  0.00    +0.000 N 
ATOM     15  C   UNL     1      -0.082  12.012  21.034  0.00  0.00    +0.000 C 
ATOM     16  C   UNL     1       0.726   9.819  20.006  0.00  0.00    +0.000 A 
BRANCH  16  17
ATOM     17  C   UNL     1       0.470   9.989  18.602  0.00  0.00    +0.000 C 
ATOM     18  O   UNL     1      -0.646  10.107  18.117  0.00  0.00    +0.000 OA
BRANCH  17  19
ATOM     19  O   UNL     1       1.587  10.100  17.849  0.00  0.00    +0.000 OA
ATOM     20  H   UNL     1       2.411  10.142  18.365  0.00  0.00    +0.000 HD
ENDBRANCH  17  19
ENDBRANCH  16  17
ENDBRANCH   9  11
ENDBRANCH   6   7
BRANCH   1  21
ATOM     21  C   UNL     1       4.429   3.552  19.655  0.00  0.00    +0.000 C 
ATOM     22  O   UNL     1       4.864   2.492  20.104  0.00  0.00    +0.000 OA
BRANCH  21  26
ATOM     23  C   UNL     1       6.087   4.554  15.765  0.00  0.00    +0.000 A 
ATOM     24  C   UNL     1       4.908   3.798  15.851  0.00  0.00    +0.000 A 
ATOM     25  C   UNL     1       4.316   3.494  17.098  0.00  0.00    +0.000 A 
ATOM     26  C   UNL     1       4.902   3.945  18.284  0.00  0.00    +0.000 A 
ATOM     27  C   UNL     1       6.059   4.734  18.196  0.00  0.00    +0.000 A 
ATOM     28  C   UNL     1       6.644   5.035  16.959  0.00  0.00    +0.000 A 
BRANCH  23  32
ATOM     29  C   UNL     1       7.717   4.790  10.924  0.00  0.00    +0.000 C 
ATOM     30  C   UNL     1       7.520   4.911  12.390  0.00  0.00    +0.000 A 
ATOM     31  C   UNL     1       6.501   4.350  13.197  0.00  0.00    +0.000 A 
ATOM     32  C   UNL     1       6.762   4.783  14.491  0.00  0.00    +0.000 A 
ATOM     33  N   UNL     1       7.905   5.531  14.370  0.00  0.00    +0.000 N 
ATOM     34  N   UNL     1       8.381   5.636  13.118  0.00  0.00    +0.000 NA
ATOM     35  H   UNL     1       8.425   5.990  15.112  0.00  0.00    +0.000 HD
ENDBRANCH  23  32
ENDBRANCH  21  26
ENDBRANCH   1  21
TORSDOF 7
ENDMDL
MODEL 3
REMARK VINA RESULT:      -8.1      4.186      6.740
REMARK  Name = 
REMARK  9 active torsions:
REMARK  status: ('A' for Active; 'I' for Inactive)
REMARK    1  A    between atoms: C_1  and  C_2
REMARK    2  A    between atoms: C_4  and  C_5
REMARK    3  A    between atoms: C_8  and  C_9
REMARK    4  A    between atoms: C_9  and  C_11
REMARK    5  A    between atoms: C_16  and  C_17
REMARK    6  A    between atoms: N_19  and  C_20
REMARK    7  A    between atoms: N_23  and  C_24
REMARK    8  A    between atoms: C_25  and  C_26
REMARK    9  A    between atoms: C_26  and  O_28
REMARK                            x       y       z     vdW  Elec       q    Type
REMARK                         _______ _______ _______ _____ _____    ______ ____
ROOT
ATOM      1  C   UNL     1       0.907  11.402  20.417  0.00  0.00    +0.000 C 
ATOM      2  C   UNL     1       0.045  12.087  21.483  0.00  0.00    +0.000 C 
ATOM      3  C   UNL     1      -1.375  12.447  21.039  0.00  0.00    +0.000 C 
ATOM      4  C   UNL     1      -1.519  13.023  19.634  0.00  0.00    +0.000 C 
ATOM      5  C   UNL     1      -0.601  12.391  18.591  0.00  0.00    +0.000 C 
ATOM      6  C   UNL     1       0.849  12.204  19.086  0.00  0.00    +0.000 C 
ENDROOT
BRANCH   6   7
ATOM      7  C   UNL     1       1.510  13.589  19.215  0.00  0.00    +0.000 C 
ATOM      8  O   UNL     1       0.970  14.610  18.788  0.00  0.00    +0.000 OA
ATOM      9  N   UNL     1       2.747  13.603  19.821  0.00  0.00    +0.000 N 
ATOM     10  H   UNL     1       3.269  12.738  19.943  0.00  0.00    +0.000 HD
BRANCH   9  11
ATOM     11  C   UNL     1       3.402  14.790  20.137  0.00  0.00    +0.000 A 
ATOM     12  C   UNL     1       3.338  15.579  21.305  0.00  0.00    +0.000 A 
ATOM     13  N   UNL     1       4.139  16.641  21.241  0.00  0.00    +0.000 NA
ATOM     14  N   UNL     1       4.735  16.526  20.042  0.00  0.00    +0.000 N 
ATOM     15  C   UNL     1       5.785  17.473  19.741  0.00  0.00    +0.000 C 
ATOM     16  C   UNL     1       4.286  15.454  19.300  0.00  0.00    +0.000 A 
BRANCH  16  17
ATOM     17  C   UNL     1       4.660  15.038  17.975  0.00  0.00    +0.000 C 
ATOM     18  O   UNL     1       5.757  14.583  17.683  0.00  0.00    +0.000 OA
BRANCH  17  19
ATOM     19  O   UNL     1       3.656  15.107  17.073  0.00  0.00    +0.000 OA
ATOM     20  H   UNL     1       3.269  15.994  16.977  0.00  0.00    +0.000 HD
ENDBRANCH  17  19
ENDBRANCH  16  17
ENDBRANCH   9  11
ENDBRANCH   6   7
BRANCH   1  21
ATOM     21  C   UNL     1       0.536   9.917  20.228  0.00  0.00    +0.000 C 
ATOM     22  O   UNL     1      -0.543   9.472  20.618  0.00  0.00    +0.000 OA
BRANCH  21  26
ATOM     23  C   UNL     1       2.947   6.883  18.260  0.00  0.00    +0.000 A 
ATOM     24  C   UNL     1       2.614   8.066  17.579  0.00  0.00    +0.000 A 
ATOM     25  C   UNL     1       1.872   9.092  18.205  0.00  0.00    +0.000 A 
ATOM     26  C   UNL     1       1.449   8.948  19.530  0.00  0.00    +0.000 A 
ATOM     27  C   UNL     1       1.814   7.784  20.221  0.00  0.00    +0.000 A 
ATOM     28  C   UNL     1       2.551   6.767  19.599  0.00  0.00    +0.000 A 
BRANCH  23  32
ATOM     29  C   UNL     1       5.918   3.714  15.561  0.00  0.00    +0.000 C 
ATOM     30  C   UNL     1       4.886   4.349  16.420  0.00  0.00    +0.000 A 
ATOM     31  C   UNL     1       4.715   5.718  16.736  0.00  0.00    +0.000 A 
ATOM     32  C   UNL     1       3.622   5.775  17.590  0.00  0.00    +0.000 A 
ATOM     33  N   UNL     1       3.212   4.471  17.697  0.00  0.00    +0.000 N 
ATOM     34  N   UNL     1       3.957   3.587  17.014  0.00  0.00    +0.000 NA
ATOM     35  H   UNL     1       2.413   4.114  18.214  0.00  0.00    +0.000 HD
ENDBRANCH  23  32
ENDBRANCH  21  26
ENDBRANCH   1  21
TORSDOF 7
ENDMDL
MODEL 4
REMARK VINA RESULT:      -8.1      3.999      6.664
REMARK  Name = 
REMARK  9 active torsions:
REMARK  status: ('A' for Active; 'I' for Inactive)
REMARK    1  A    between atoms: C_1  and  C_2
REMARK    2  A    between atoms: C_4  and  C_5
REMARK    3  A    between atoms: C_8  and  C_9
REMARK    4  A    between atoms: C_9  and  C_11
REMARK    5  A    between atoms: C_16  and  C_17
REMARK    6  A    between atoms: N_19  and  C_20
REMARK    7  A    between atoms: N_23  and  C_24
REMARK    8  A    between atoms: C_25  and  C_26
REMARK    9  A    between atoms: C_26  and  O_28
REMARK                            x       y       z     vdW  Elec       q    Type
REMARK                         _______ _______ _______ _____ _____    ______ ____
ROOT
ATOM      1  C   UNL     1       0.656  11.354  20.318  0.00  0.00    +0.000 C 
ATOM      2  C   UNL     1      -0.050  12.014  21.506  0.00  0.00    +0.000 C 
ATOM      3  C   UNL     1      -1.567  12.167  21.360  0.00  0.00    +0.000 C 
ATOM      4  C   UNL     1      -2.072  12.608  19.990  0.00  0.00    +0.000 C 
ATOM      5  C   UNL     1      -1.314  12.009  18.808  0.00  0.00    +0.000 C 
ATOM      6  C   UNL     1       0.218  12.036  18.990  0.00  0.00    +0.000 C 
ENDROOT
BRANCH   6   7
ATOM      7  C   UNL     1       0.702  13.495  18.901  0.00  0.00    +0.000 C 
ATOM      8  O   UNL     1      -0.068  14.421  18.646  0.00  0.00    +0.000 OA
ATOM      9  N   UNL     1       2.050  13.689  19.109  0.00  0.00    +0.000 N 
ATOM     10  H   UNL     1       2.692  12.900  19.077  0.00  0.00    +0.000 HD
BRANCH   9  11
ATOM     11  C   UNL     1       2.609  14.960  19.203  0.00  0.00    +0.000 A 
ATOM     12  C   UNL     1       2.943  15.882  18.190  0.00  0.00    +0.000 A 
ATOM     13  N   UNL     1       3.438  17.016  18.683  0.00  0.00    +0.000 NA
ATOM     14  N   UNL     1       3.404  16.833  20.015  0.00  0.00    +0.000 N 
ATOM     15  C   UNL     1       3.753  17.968  20.839  0.00  0.00    +0.000 C 
ATOM     16  C   UNL     1       2.964  15.582  20.391  0.00  0.00    +0.000 A 
BRANCH  16  17
ATOM     17  C   UNL     1       2.829  15.018  21.707  0.00  0.00    +0.000 C 
ATOM     18  O   UNL     1       2.081  15.458  22.568  0.00  0.00    +0.000 OA
BRANCH  17  19
ATOM     19  O   UNL     1       3.542  13.886  21.895  0.00  0.00    +0.000 OA
ATOM     20  H   UNL     1       3.177  13.106  21.443  0.00  0.00    +0.000 HD
ENDBRANCH  17  19
ENDBRANCH  16  17
ENDBRANCH   9  11
ENDBRANCH   6   7
BRANCH   1  21
ATOM     21  C   UNL     1       0.455   9.825  20.290  0.00  0.00    +0.000 C 
ATOM     22  O   UNL     1      -0.519   9.298  20.829  0.00  0.00    +0.000 OA
BRANCH  21  26
ATOM     23  C   UNL     1       2.985   6.931  18.263  0.00  0.00    +0.000 A 
ATOM     24  C   UNL     1       2.657   8.140  17.631  0.00  0.00    +0.000 A 
ATOM     25  C   UNL     1       1.876   9.123  18.279  0.00  0.00    +0.000 A 
ATOM     26  C   UNL     1       1.408   8.906  19.579  0.00  0.00    +0.000 A 
ATOM     27  C   UNL     1       1.768   7.714  20.225  0.00  0.00    +0.000 A 
ATOM     28  C   UNL     1       2.544   6.741  19.581  0.00  0.00    +0.000 A 
BRANCH  23  32
ATOM     29  C   UNL     1       6.032   3.958  15.430  0.00  0.00    +0.000 C 
ATOM     30  C   UNL     1       5.003   4.524  16.338  0.00  0.00    +0.000 A 
ATOM     31  C   UNL     1       4.752   5.881  16.657  0.00  0.00    +0.000 A 
ATOM     32  C   UNL     1       3.702   5.867  17.565  0.00  0.00    +0.000 A 
ATOM     33  N   UNL     1       3.391   4.538  17.698  0.00  0.00    +0.000 N 
ATOM     34  N   UNL     1       4.162   3.704  16.982  0.00  0.00    +0.000 NA
ATOM     35  H   UNL     1       2.647   4.130  18.257  0.00  0.00    +0.000 HD
ENDBRANCH  23  32
ENDBRANCH  21  26
ENDBRANCH   1  21
TORSDOF 7
ENDMDL
MODEL 5
REMARK VINA RESULT:      -8.1      3.932      7.162
REMARK  Name = 
REMARK  9 active torsions:
REMARK  status: ('A' for Active; 'I' for Inactive)
REMARK    1  A    between atoms: C_1  and  C_2
REMARK    2  A    between atoms: C_4  and  C_5
REMARK    3  A    between atoms: C_8  and  C_9
REMARK    4  A    between atoms: C_9  and  C_11
REMARK    5  A    between atoms: C_16  and  C_17
REMARK    6  A    between atoms: N_19  and  C_20
REMARK    7  A    between atoms: N_23  and  C_24
REMARK    8  A    between atoms: C_25  and  C_26
REMARK    9  A    between atoms: C_26  and  O_28
REMARK                            x       y       z     vdW  Elec       q    Type
REMARK                         _______ _______ _______ _____ _____    ______ ____
ROOT
ATOM      1  C   UNL     1      -0.650  11.400  20.737  0.00  0.00    +0.000 C 
ATOM      2  C   UNL     1      -1.477  10.777  19.608  0.00  0.00    +0.000 C 
ATOM      3  C   UNL     1      -1.260  11.395  18.224  0.00  0.00    +0.000 C 
ATOM      4  C   UNL     1      -1.152  12.916  18.173  0.00  0.00    +0.000 C 
ATOM      5  C   UNL     1      -0.395  13.540  19.343  0.00  0.00    +0.000 C 
ATOM      6  C   UNL     1      -0.793  12.949  20.712  0.00  0.00    +0.000 C 
ENDROOT
BRANCH   6   7
ATOM      7  C   UNL     1      -2.224  13.404  21.051  0.00  0.00    +0.000 C 
ATOM      8  O   UNL     1      -2.654  14.506  20.709  0.00  0.00    +0.000 OA
ATOM      9  N   UNL     1      -2.979  12.506  21.775  0.00  0.00    +0.000 N 
ATOM     10  H   UNL     1      -2.532  11.723  22.244  0.00  0.00    +0.000 HD
BRANCH   9  11
ATOM     11  C   UNL     1      -4.331  12.715  22.031  0.00  0.00    +0.000 A 
ATOM     12  C   UNL     1      -5.439  12.659  21.160  0.00  0.00    +0.000 A 
ATOM     13  N   UNL     1      -6.588  12.895  21.791  0.00  0.00    +0.000 NA
ATOM     14  N   UNL     1      -6.224  13.082  23.071  0.00  0.00    +0.000 N 
ATOM     15  C   UNL     1      -7.288  13.220  24.039  0.00  0.00    +0.000 C 
ATOM     16  C   UNL     1      -4.860  13.042  23.271  0.00  0.00    +0.000 A 
BRANCH  16  17
ATOM     17  C   UNL     1      -4.108  13.231  24.481  0.00  0.00    +0.000 C 
ATOM     18  O   UNL     1      -3.250  14.091  24.629  0.00  0.00    +0.000 OA
BRANCH  17  19
ATOM     19  O   UNL     1      -4.489  12.426  25.497  0.00  0.00    +0.000 OA
ATOM     20  H   UNL     1      -4.057  12.625  26.346  0.00  0.00    +0.000 HD
ENDBRANCH  17  19
ENDBRANCH  16  17
ENDBRANCH   9  11
ENDBRANCH   6   7
BRANCH   1  21
ATOM     21  C   UNL     1       0.822  10.942  20.709  0.00  0.00    +0.000 C 
ATOM     22  O   UNL     1       1.707  11.601  21.255  0.00  0.00    +0.000 OA
BRANCH  21  26
ATOM     23  C   UNL     1       2.345   7.372  18.754  0.00  0.00    +0.000 A 
ATOM     24  C   UNL     1       1.845   7.295  20.063  0.00  0.00    +0.000 A 
ATOM     25  C   UNL     1       1.300   8.426  20.711  0.00  0.00    +0.000 A 
ATOM     26  C   UNL     1       1.248   9.659  20.053  0.00  0.00    +0.000 A 
ATOM     27  C   UNL     1       1.712   9.726  18.731  0.00  0.00    +0.000 A 
ATOM     28  C   UNL     1       2.252   8.603  18.090  0.00  0.00    +0.000 A 
BRANCH  23  32
ATOM     29  C   UNL     1       5.323   4.078  16.217  0.00  0.00    +0.000 C 
ATOM     30  C   UNL     1       4.270   4.757  17.013  0.00  0.00    +0.000 A 
ATOM     31  C   UNL     1       4.150   6.130  17.337  0.00  0.00    +0.000 A 
ATOM     32  C   UNL     1       3.005   6.237  18.115  0.00  0.00    +0.000 A 
ATOM     33  N   UNL     1       2.520   4.955  18.176  0.00  0.00    +0.000 N 
ATOM     34  N   UNL     1       3.263   4.040  17.532  0.00  0.00    +0.000 NA
ATOM     35  H   UNL     1       1.670   4.637  18.632  0.00  0.00    +0.000 HD
ENDBRANCH  23  32
ENDBRANCH  21  26
ENDBRANCH   1  21
TORSDOF 7
ENDMDL
MODEL 6
REMARK VINA RESULT:      -8.0      3.952      7.405
REMARK  Name = 
REMARK  9 active torsions:
REMARK  status: ('A' for Active; 'I' for Inactive)
REMARK    1  A    between atoms: C_1  and  C_2
REMARK    2  A    between atoms: C_4  and  C_5
REMARK    3  A    between atoms: C_8  and  C_9
REMARK    4  A    between atoms: C_9  and  C_11
REMARK    5  A    between atoms: C_16  and  C_17
REMARK    6  A    between atoms: N_19  and  C_20
REMARK    7  A    between atoms: N_23  and  C_24
REMARK    8  A    between atoms: C_25  and  C_26
REMARK    9  A    between atoms: C_26  and  O_28
REMARK                            x       y       z     vdW  Elec       q    Type
REMARK                         _______ _______ _______ _____ _____    ______ ____
ROOT
ATOM      1  C   UNL     1      -0.841  11.321  20.678  0.00  0.00    +0.000 C 
ATOM      2  C   UNL     1      -1.453  10.883  19.344  0.00  0.00    +0.000 C 
ATOM      3  C   UNL     1      -0.952  11.647  18.115  0.00  0.00    +0.000 C 
ATOM      4  C   UNL     1      -0.788  13.154  18.278  0.00  0.00    +0.000 C 
ATOM      5  C   UNL     1      -0.252  13.593  19.638  0.00  0.00    +0.000 C 
ATOM      6  C   UNL     1      -0.926  12.868  20.822  0.00  0.00    +0.000 C 
ENDROOT
BRANCH   6   7
ATOM      7  C   UNL     1      -2.380  13.360  20.940  0.00  0.00    +0.000 C 
ATOM      8  O   UNL     1      -2.712  14.497  20.607  0.00  0.00    +0.000 OA
ATOM      9  N   UNL     1      -3.276  12.449  21.459  0.00  0.00    +0.000 N 
ATOM     10  H   UNL     1      -2.941  11.620  21.943  0.00  0.00    +0.000 HD
BRANCH   9  11
ATOM     11  C   UNL     1      -4.645  12.696  21.492  0.00  0.00    +0.000 A 
ATOM     12  C   UNL     1      -5.580  12.771  20.438  0.00  0.00    +0.000 A 
ATOM     13  N   UNL     1      -6.816  13.002  20.876  0.00  0.00    +0.000 NA
ATOM     14  N   UNL     1      -6.683  13.056  22.213  0.00  0.00    +0.000 N 
ATOM     15  C   UNL     1      -7.899  13.156  22.987  0.00  0.00    +0.000 C 
ATOM     16  C   UNL     1      -5.379  12.935  22.645  0.00  0.00    +0.000 A 
BRANCH  16  17
ATOM     17  C   UNL     1      -4.851  12.979  23.981  0.00  0.00    +0.000 C 
ATOM     18  O   UNL     1      -4.374  12.015  24.563  0.00  0.00    +0.000 OA
BRANCH  17  19
ATOM     19  O   UNL     1      -4.840  14.215  24.527  0.00  0.00    +0.000 OA
ATOM     20  H   UNL     1      -4.205  14.826  24.116  0.00  0.00    +0.000 HD
ENDBRANCH  17  19
ENDBRANCH  16  17
ENDBRANCH   9  11
ENDBRANCH   6   7
BRANCH   1  21
ATOM     21  C   UNL     1       0.594  10.789  20.870  0.00  0.00    +0.000 C 
ATOM     22  O   UNL     1       1.458  11.467  21.425  0.00  0.00    +0.000 OA
BRANCH  21  26
ATOM     23  C   UNL     1       2.076   6.923  19.550  0.00  0.00    +0.000 A 
ATOM     24  C   UNL     1       1.440   7.042  20.796  0.00  0.00    +0.000 A 
ATOM     25  C   UNL     1       0.905   8.274  21.235  0.00  0.00    +0.000 A 
ATOM     26  C   UNL     1       1.001   9.411  20.428  0.00  0.00    +0.000 A 
ATOM     27  C   UNL     1       1.602   9.283  19.167  0.00  0.00    +0.000 A 
ATOM     28  C   UNL     1       2.130   8.060  18.732  0.00  0.00    +0.000 A 
BRANCH  23  32
ATOM     29  C   UNL     1       3.407   2.265  17.911  0.00  0.00    +0.000 C 
ATOM     30  C   UNL     1       3.356   3.654  18.431  0.00  0.00    +0.000 A 
ATOM     31  C   UNL     1       2.225   4.471  18.669  0.00  0.00    +0.000 A 
ATOM     32  C   UNL     1       2.723   5.682  19.133  0.00  0.00    +0.000 A 
ATOM     33  N   UNL     1       4.081   5.496  19.164  0.00  0.00    +0.000 N 
ATOM     34  N   UNL     1       4.495   4.291  18.738  0.00  0.00    +0.000 NA
ATOM     35  H   UNL     1       4.788   6.152  19.482  0.00  0.00    +0.000 HD
ENDBRANCH  23  32
ENDBRANCH  21  26
ENDBRANCH   1  21
TORSDOF 7
ENDMDL
MODEL 7
REMARK VINA RESULT:      -8.0      4.006      7.203
REMARK  Name = 
REMARK  9 active torsions:
REMARK  status: ('A' for Active; 'I' for Inactive)
REMARK    1  A    between atoms: C_1  and  C_2
REMARK    2  A    between atoms: C_4  and  C_5
REMARK    3  A    between atoms: C_8  and  C_9
REMARK    4  A    between atoms: C_9  and  C_11
REMARK    5  A    between atoms: C_16  and  C_17
REMARK    6  A    between atoms: N_19  and  C_20
REMARK    7  A    between atoms: N_23  and  C_24
REMARK    8  A    between atoms: C_25  and  C_26
REMARK    9  A    between atoms: C_26  and  O_28
REMARK                            x       y       z     vdW  Elec       q    Type
REMARK                         _______ _______ _______ _____ _____    ______ ____
ROOT
ATOM      1  C   UNL     1       0.761  11.710  19.154  0.00  0.00    +0.000 C 
ATOM      2  C   UNL     1       0.943  11.680  20.674  0.00  0.00    +0.000 C 
ATOM      3  C   UNL     1      -0.353  11.572  21.483  0.00  0.00    +0.000 C 
ATOM      4  C   UNL     1      -1.525  12.417  20.996  0.00  0.00    +0.000 C 
ATOM      5  C   UNL     1      -1.656  12.510  19.478  0.00  0.00    +0.000 C 
ATOM      6  C   UNL     1      -0.312  12.767  18.765  0.00  0.00    +0.000 C 
ENDROOT
BRANCH   6   7
ATOM      7  C   UNL     1       0.148  14.203  19.078  0.00  0.00    +0.000 C 
ATOM      8  O   UNL     1      -0.653  15.101  19.335  0.00  0.00    +0.000 OA
ATOM      9  N   UNL     1       1.509  14.414  19.033  0.00  0.00    +0.000 N 
ATOM     10  H   UNL     1       2.120  13.732  18.590  0.00  0.00    +0.000 HD
BRANCH   9  11
ATOM     11  C   UNL     1       2.083  15.618  19.433  0.00  0.00    +0.000 A 
ATOM     12  C   UNL     1       2.382  16.774  18.682  0.00  0.00    +0.000 A 
ATOM     13  N   UNL     1       2.909  17.740  19.433  0.00  0.00    +0.000 NA
ATOM     14  N   UNL     1       2.932  17.214  20.670  0.00  0.00    +0.000 N 
ATOM     15  C   UNL     1       3.327  18.094  21.746  0.00  0.00    +0.000 C 
ATOM     16  C   UNL     1       2.497  15.907  20.725  0.00  0.00    +0.000 A 
BRANCH  16  17
ATOM     17  C   UNL     1       2.414  15.018  21.851  0.00  0.00    +0.000 C 
ATOM     18  O   UNL     1       1.365  14.673  22.378  0.00  0.00    +0.000 OA
BRANCH  17  19
ATOM     19  O   UNL     1       3.604  14.509  22.239  0.00  0.00    +0.000 OA
ATOM     20  H   UNL     1       3.905  13.752  21.708  0.00  0.00    +0.000 HD
ENDBRANCH  17  19
ENDBRANCH  16  17
ENDBRANCH   9  11
ENDBRANCH   6   7
BRANCH   1  21
ATOM     21  C   UNL     1       0.456  10.316  18.570  0.00  0.00    +0.000 C 
ATOM     22  O   UNL     1      -0.566  10.107  17.916  0.00  0.00    +0.000 OA
BRANCH  21  26
ATOM     23  C   UNL     1       2.918   6.775  19.102  0.00  0.00    +0.000 A 
ATOM     24  C   UNL     1       3.001   7.514  17.912  0.00  0.00    +0.000 A 
ATOM     25  C   UNL     1       2.250   8.696  17.725  0.00  0.00    +0.000 A 
ATOM     26  C   UNL     1       1.398   9.156  18.733  0.00  0.00    +0.000 A 
ATOM     27  C   UNL     1       1.344   8.438  19.937  0.00  0.00    +0.000 A 
ATOM     28  C   UNL     1       2.091   7.267  20.121  0.00  0.00    +0.000 A 
BRANCH  23  32
ATOM     29  C   UNL     1       4.436   1.962  19.930  0.00  0.00    +0.000 C 
ATOM     30  C   UNL     1       4.325   3.409  19.620  0.00  0.00    +0.000 A 
ATOM     31  C   UNL     1       3.179   4.241  19.665  0.00  0.00    +0.000 A 
ATOM     32  C   UNL     1       3.609   5.498  19.264  0.00  0.00    +0.000 A 
ATOM     33  N   UNL     1       4.952   5.338  19.039  0.00  0.00    +0.000 N 
ATOM     34  N   UNL     1       5.412   4.091  19.235  0.00  0.00    +0.000 NA
ATOM     35  H   UNL     1       5.622   6.050  18.763  0.00  0.00    +0.000 HD
ENDBRANCH  23  32
ENDBRANCH  21  26
ENDBRANCH   1  21
TORSDOF 7
ENDMDL
MODEL 8
REMARK VINA RESULT:      -7.9      4.082      6.629
REMARK  Name = 
REMARK  9 active torsions:
REMARK  status: ('A' for Active; 'I' for Inactive)
REMARK    1  A    between atoms: C_1  and  C_2
REMARK    2  A    between atoms: C_4  and  C_5
REMARK    3  A    between atoms: C_8  and  C_9
REMARK    4  A    between atoms: C_9  and  C_11
REMARK    5  A    between atoms: C_16  and  C_17
REMARK    6  A    between atoms: N_19  and  C_20
REMARK    7  A    between atoms: N_23  and  C_24
REMARK    8  A    between atoms: C_25  and  C_26
REMARK    9  A    between atoms: C_26  and  O_28
REMARK                            x       y       z     vdW  Elec       q    Type
REMARK                         _______ _______ _______ _____ _____    ______ ____
ROOT
ATOM      1  C   UNL     1       0.543  11.309  19.761  0.00  0.00    +0.000 C 
ATOM      2  C   UNL     1      -0.807  10.601  19.920  0.00  0.00    +0.000 C 
ATOM      3  C   UNL     1      -1.738  10.692  18.707  0.00  0.00    +0.000 C 
ATOM      4  C   UNL     1      -1.804  12.046  18.008  0.00  0.00    +0.000 C 
ATOM      5  C   UNL     1      -0.471  12.785  17.922  0.00  0.00    +0.000 C 
ATOM      6  C   UNL     1       0.327  12.760  19.242  0.00  0.00    +0.000 C 
ENDROOT
BRANCH   6   7
ATOM      7  C   UNL     1      -0.398  13.642  20.275  0.00  0.00    +0.000 C 
ATOM      8  O   UNL     1      -1.335  14.375  19.961  0.00  0.00    +0.000 OA
ATOM      9  N   UNL     1       0.086  13.569  21.563  0.00  0.00    +0.000 N 
ATOM     10  H   UNL     1       0.996  13.153  21.747  0.00  0.00    +0.000 HD
BRANCH   9  11
ATOM     11  C   UNL     1      -0.554  14.195  22.629  0.00  0.00    +0.000 A 
ATOM     12  C   UNL     1      -0.391  15.497  23.148  0.00  0.00    +0.000 A 
ATOM     13  N   UNL     1      -1.212  15.739  24.169  0.00  0.00    +0.000 NA
ATOM     14  N   UNL     1      -1.917  14.602  24.295  0.00  0.00    +0.000 N 
ATOM     15  C   UNL     1      -3.005  14.610  25.247  0.00  0.00    +0.000 C 
ATOM     16  C   UNL     1      -1.524  13.606  23.427  0.00  0.00    +0.000 A 
BRANCH  16  17
ATOM     17  C   UNL     1      -2.016  12.261  23.294  0.00  0.00    +0.000 C 
ATOM     18  O   UNL     1      -3.184  11.976  23.075  0.00  0.00    +0.000 OA
BRANCH  17  19
ATOM     19  O   UNL     1      -1.051  11.316  23.344  0.00  0.00    +0.000 OA
ATOM     20  H   UNL     1      -1.275  10.495  22.873  0.00  0.00    +0.000 HD
ENDBRANCH  17  19
ENDBRANCH  16  17
ENDBRANCH   9  11
ENDBRANCH   6   7
BRANCH   1  21
ATOM     21  C   UNL     1       1.526  10.508  18.883  0.00  0.00    +0.000 C 
ATOM     22  O   UNL     1       2.246  11.068  18.056  0.00  0.00    +0.000 OA
BRANCH  21  26
ATOM     23  C   UNL     1       2.294   6.239  19.145  0.00  0.00    +0.000 A 
ATOM     24  C   UNL     1       1.901   6.952  20.288  0.00  0.00    +0.000 A 
ATOM     25  C   UNL     1       1.598   8.331  20.229  0.00  0.00    +0.000 A 
ATOM     26  C   UNL     1       1.687   9.020  19.016  0.00  0.00    +0.000 A 
ATOM     27  C   UNL     1       2.041   8.299  17.866  0.00  0.00    +0.000 A 
ATOM     28  C   UNL     1       2.340   6.931  17.926  0.00  0.00    +0.000 A 
BRANCH  23  32
ATOM     29  C   UNL     1       3.716   1.384  18.395  0.00  0.00    +0.000 C 
ATOM     30  C   UNL     1       3.326   2.708  18.941  0.00  0.00    +0.000 A 
ATOM     31  C   UNL     1       2.956   3.882  18.242  0.00  0.00    +0.000 A 
ATOM     32  C   UNL     1       2.709   4.840  19.216  0.00  0.00    +0.000 A 
ATOM     33  N   UNL     1       2.918   4.178  20.398  0.00  0.00    +0.000 N 
ATOM     34  N   UNL     1       3.300   2.897  20.268  0.00  0.00    +0.000 NA
ATOM     35  H   UNL     1       2.801   4.542  21.340  0.00  0.00    +0.000 HD
ENDBRANCH  23  32
ENDBRANCH  21  26
ENDBRANCH   1  21
TORSDOF 7
ENDMDL
MODEL 9
REMARK VINA RESULT:      -7.8      4.075      6.871
REMARK  Name = 
REMARK  9 active torsions:
REMARK  status: ('A' for Active; 'I' for Inactive)
REMARK    1  A    between atoms: C_1  and  C_2
REMARK    2  A    between atoms: C_4  and  C_5
REMARK    3  A    between atoms: C_8  and  C_9
REMARK    4  A    between atoms: C_9  and  C_11
REMARK    5  A    between atoms: C_16  and  C_17
REMARK    6  A    between atoms: N_19  and  C_20
REMARK    7  A    between atoms: N_23  and  C_24
REMARK    8  A    between atoms: C_25  and  C_26
REMARK    9  A    between atoms: C_26  and  O_28
REMARK                            x       y       z     vdW  Elec       q    Type
REMARK                         _______ _______ _______ _____ _____    ______ ____
ROOT
ATOM      1  C   UNL     1      -0.220  10.876  19.751  0.00  0.00    +0.000 C 
ATOM      2  C   UNL     1      -1.305   9.901  19.281  0.00  0.00    +0.000 C 
ATOM      3  C   UNL     1      -1.916  10.217  17.913  0.00  0.00    +0.000 C 
ATOM      4  C   UNL     1      -2.208  11.686  17.626  0.00  0.00    +0.000 C 
ATOM      5  C   UNL     1      -1.164  12.660  18.166  0.00  0.00    +0.000 C 
ATOM      6  C   UNL     1      -0.721  12.342  19.609  0.00  0.00    +0.000 C 
ENDROOT
BRANCH   6   7
ATOM      7  C   UNL     1      -1.889  12.650  20.565  0.00  0.00    +0.000 C 
ATOM      8  O   UNL     1      -2.057  12.022  21.610  0.00  0.00    +0.000 OA
ATOM      9  N   UNL     1      -2.737  13.659  20.162  0.00  0.00    +0.000 N 
ATOM     10  H   UNL     1      -2.719  13.990  19.201  0.00  0.00    +0.000 HD
BRANCH   9  11
ATOM     11  C   UNL     1      -3.748  14.147  20.985  0.00  0.00    +0.000 A 
ATOM     12  C   UNL     1      -3.721  15.187  21.937  0.00  0.00    +0.000 A 
ATOM     13  N   UNL     1      -4.908  15.377  22.510  0.00  0.00    +0.000 NA
ATOM     14  N   UNL     1      -5.705  14.474  21.913  0.00  0.00    +0.000 N 
ATOM     15  C   UNL     1      -7.114  14.535  22.231  0.00  0.00    +0.000 C 
ATOM     16  C   UNL     1      -5.046  13.658  21.018  0.00  0.00    +0.000 A 
BRANCH  16  17
ATOM     17  C   UNL     1      -5.553  12.570  20.227  0.00  0.00    +0.000 C 
ATOM     18  O   UNL     1      -6.159  11.612  20.686  0.00  0.00    +0.000 OA
BRANCH  17  19
ATOM     19  O   UNL     1      -5.383  12.732  18.896  0.00  0.00    +0.000 OA
ATOM     20  H   UNL     1      -6.027  12.247  18.351  0.00  0.00    +0.000 HD
ENDBRANCH  17  19
ENDBRANCH  16  17
ENDBRANCH   9  11
ENDBRANCH   6   7
BRANCH   1  21
ATOM     21  C   UNL     1       1.128  10.641  19.041  0.00  0.00    +0.000 C 
ATOM     22  O   UNL     1       1.747  11.570  18.520  0.00  0.00    +0.000 OA
BRANCH  21  26
ATOM     23  C   UNL     1       2.705   6.593  18.940  0.00  0.00    +0.000 A 
ATOM     24  C   UNL     1       2.828   7.422  17.813  0.00  0.00    +0.000 A 
ATOM     25  C   UNL     1       2.369   8.758  17.828  0.00  0.00    +0.000 A 
ATOM     26  C   UNL     1       1.774   9.286  18.978  0.00  0.00    +0.000 A 
ATOM     27  C   UNL     1       1.686   8.469  20.116  0.00  0.00    +0.000 A 
ATOM     28  C   UNL     1       2.144   7.145  20.099  0.00  0.00    +0.000 A 
BRANCH  23  32
ATOM     29  C   UNL     1       3.187   1.547  18.259  0.00  0.00    +0.000 C 
ATOM     30  C   UNL     1       3.333   2.975  18.638  0.00  0.00    +0.000 A 
ATOM     31  C   UNL     1       2.483   4.065  18.330  0.00  0.00    +0.000 A 
ATOM     32  C   UNL     1       3.081   5.182  18.900  0.00  0.00    +0.000 A 
ATOM     33  N   UNL     1       4.201   4.686  19.515  0.00  0.00    +0.000 N 
ATOM     34  N   UNL     1       4.388   3.364  19.367  0.00  0.00    +0.000 NA
ATOM     35  H   UNL     1       4.881   5.199  20.070  0.00  0.00    +0.000 HD
ENDBRANCH  23  32
ENDBRANCH  21  26
ENDBRANCH   1  21
TORSDOF 7
ENDMDL
