MODEL 1
REMARK VINA RESULT:      -7.9      0.000      0.000
REMARK  Name = 
REMARK  5 active torsions:
REMARK  status: ('A' for Active; 'I' for Inactive)
REMARK    1  A    between atoms: C_1  and  C_2
REMARK    2  A    between atoms: C_5  and  S_6
REMARK    3  A    between atoms: S_6  and  N_9
REMARK    4  A    between atoms: N_12  and  S_13
REMARK    5  A    between atoms: S_13  and  N_16
REMARK                            x       y       z     vdW  Elec       q    Type
REMARK                         _______ _______ _______ _____ _____    ______ ____
ROOT
ATOM      1  N   UNL     1       5.729   5.222  17.397  0.00  0.00    +0.000 NA
ATOM      2  C   UNL     1       5.463   3.929  18.068  0.00  0.00    +0.000 C 
ATOM      3  C   UNL     1       4.483   4.175  19.205  0.00  0.00    +0.000 C 
ATOM      4  N   UNL     1       3.203   4.780  18.727  0.00  0.00    +0.000 NA
ATOM      5  C   UNL     1       3.442   6.008  17.901  0.00  0.00    +0.000 C 
ATOM      6  C   UNL     1       4.497   5.790  16.791  0.00  0.00    +0.000 C 
ENDROOT
BRANCH   1   7
ATOM      7  S   UNL     1       7.211   5.385  16.624  0.00  0.00    +0.000 S 
ATOM      8  O   UNL     1       8.128   4.453  17.244  0.00  0.00    +0.000 OA
ATOM      9  O   UNL     1       7.530   6.796  16.545  0.00  0.00    +0.000 OA
BRANCH   7  14
ATOM     10  C   UNL     1       6.306   3.136  11.065  0.00  0.00    +0.000 C 
ATOM     11  C   UNL     1       6.495   3.739  12.426  0.00  0.00    +0.000 A 
ATOM     12  C   UNL     1       7.438   4.754  12.637  0.00  0.00    +0.000 A 
ATOM     13  C   UNL     1       7.644   5.281  13.912  0.00  0.00    +0.000 A 
ATOM     14  C   UNL     1       6.896   4.791  14.980  0.00  0.00    +0.000 A 
ATOM     15  C   UNL     1       5.954   3.774  14.789  0.00  0.00    +0.000 A 
ATOM     16  C   UNL     1       5.748   3.257  13.510  0.00  0.00    +0.000 A 
ENDBRANCH   7  14
ENDBRANCH   1   7
BRANCH   4  17
ATOM     17  S   UNL     1       2.017   3.733  18.170  0.00  0.00    +0.000 S 
ATOM     18  O   UNL     1       1.240   4.424  17.170  0.00  0.00    +0.000 OA
ATOM     19  O   UNL     1       2.633   2.460  17.877  0.00  0.00    +0.000 OA
BRANCH  17  20
ATOM     20  N   UNL     1       1.073   3.556  19.551  0.00  0.00    +0.000 NA
ATOM     21  C   UNL     1       1.078   4.729  20.482  0.00  0.00    +0.000 C 
ATOM     22  C   UNL     1       2.203   4.639  21.527  0.00  0.00    +0.000 C 
ATOM     23  O   UNL     1       2.209   3.382  22.217  0.00  0.00    +0.000 OA
ATOM     24  C   UNL     1       2.363   2.304  21.288  0.00  0.00    +0.000 C 
ATOM     25  C   UNL     1       1.187   2.283  20.324  0.00  0.00    +0.000 C 
ENDBRANCH  17  20
ENDBRANCH   4  17
TORSDOF 4
ENDMDL
MODEL 2
REMARK VINA RESULT:      -7.5      4.401      8.118
REMARK  Name = 
REMARK  5 active torsions:
REMARK  status: ('A' for Active; 'I' for Inactive)
REMARK    1  A    between atoms: C_1  and  C_2
REMARK    2  A    between atoms: C_5  and  S_6
REMARK    3  A    between atoms: S_6  and  N_9
REMARK    4  A    between atoms: N_12  and  S_13
REMARK    5  A    between atoms: S_13  and  N_16
REMARK                            x       y       z     vdW  Elec       q    Type
REMARK                         _______ _______ _______ _____ _____    ______ ____
ROOT
ATOM      1  N   UNL     1       1.407   7.421  20.167  0.00  0.00    +0.000 NA
ATOM      2  C   UNL     1       1.867   6.111  20.681  0.00  0.00    +0.000 C 
ATOM      3  C   UNL     1       1.798   5.102  19.544  0.00  0.00    +0.000 C 
ATOM      4  N   UNL     1       2.626   5.515  18.371  0.00  0.00    +0.000 NA
ATOM      5  C   UNL     1       2.300   6.908  17.922  0.00  0.00    +0.000 C 
ATOM      6  C   UNL     1       2.291   7.927  19.084  0.00  0.00    +0.000 C 
ENDROOT
BRANCH   1   7
ATOM      7  S   UNL     1       0.736   8.481  21.283  0.00  0.00    +0.000 S 
ATOM      8  O   UNL     1       1.760   8.787  22.259  0.00  0.00    +0.000 OA
ATOM      9  O   UNL     1      -0.548   7.953  21.698  0.00  0.00    +0.000 OA
BRANCH   7  14
ATOM     10  C   UNL     1      -0.398  13.625  18.278  0.00  0.00    +0.000 C 
ATOM     11  C   UNL     1      -0.084  12.335  18.977  0.00  0.00    +0.000 A 
ATOM     12  C   UNL     1      -0.784  11.161  18.665  0.00  0.00    +0.000 A 
ATOM     13  C   UNL     1      -0.521   9.973  19.347  0.00  0.00    +0.000 A 
ATOM     14  C   UNL     1       0.454   9.961  20.343  0.00  0.00    +0.000 A 
ATOM     15  C   UNL     1       1.159  11.125  20.671  0.00  0.00    +0.000 A 
ATOM     16  C   UNL     1       0.896  12.307  19.979  0.00  0.00    +0.000 A 
ENDBRANCH   7  14
ENDBRANCH   1   7
BRANCH   4  17
ATOM     17  S   UNL     1       4.253   5.107  18.395  0.00  0.00    +0.000 S 
ATOM     18  O   UNL     1       4.854   5.723  19.552  0.00  0.00    +0.000 OA
ATOM     19  O   UNL     1       4.370   3.685  18.170  0.00  0.00    +0.000 OA
BRANCH  17  20
ATOM     20  N   UNL     1       4.802   5.903  17.019  0.00  0.00    +0.000 NA
ATOM     21  C   UNL     1       5.196   5.013  15.881  0.00  0.00    +0.000 C 
ATOM     22  C   UNL     1       6.678   4.606  15.947  0.00  0.00    +0.000 C 
ATOM     23  O   UNL     1       7.550   5.734  16.097  0.00  0.00    +0.000 OA
ATOM     24  C   UNL     1       7.224   6.460  17.287  0.00  0.00    +0.000 C 
ATOM     25  C   UNL     1       5.805   6.997  17.190  0.00  0.00    +0.000 C 
ENDBRANCH  17  20
ENDBRANCH   4  17
TORSDOF 4
ENDMDL
MODEL 3
REMARK VINA RESULT:      -7.2      4.381      8.047
REMARK  Name = 
REMARK  5 active torsions:
REMARK  status: ('A' for Active; 'I' for Inactive)
REMARK    1  A    between atoms: C_1  and  C_2
REMARK    2  A    between atoms: C_5  and  S_6
REMARK    3  A    between atoms: S_6  and  N_9
REMARK    4  A    between atoms: N_12  and  S_13
REMARK    5  A    between atoms: S_13  and  N_16
REMARK                            x       y       z     vdW  Elec       q    Type
REMARK                         _______ _______ _______ _____ _____    ______ ____
ROOT
ATOM      1  N   UNL     1       1.385   7.470  20.278  0.00  0.00    +0.000 NA
ATOM      2  C   UNL     1       1.645   6.076  20.703  0.00  0.00    +0.000 C 
ATOM      3  C   UNL     1       1.606   5.186  19.469  0.00  0.00    +0.000 C 
ATOM      4  N   UNL     1       2.604   5.606  18.438  0.00  0.00    +0.000 NA
ATOM      5  C   UNL     1       2.476   7.062  18.101  0.00  0.00    +0.000 C 
ATOM      6  C   UNL     1       2.436   7.968  19.353  0.00  0.00    +0.000 C 
ENDROOT
BRANCH   1   7
ATOM      7  S   UNL     1       0.700   8.495  21.419  0.00  0.00    +0.000 S 
ATOM      8  O   UNL     1       1.733   8.833  22.373  0.00  0.00    +0.000 OA
ATOM      9  O   UNL     1      -0.553   7.915  21.858  0.00  0.00    +0.000 OA
BRANCH   7  14
ATOM     10  C   UNL     1      -0.353  13.444  18.074  0.00  0.00    +0.000 C 
ATOM     11  C   UNL     1      -0.129  12.240  18.943  0.00  0.00    +0.000 A 
ATOM     12  C   UNL     1       0.772  12.286  20.015  0.00  0.00    +0.000 A 
ATOM     13  C   UNL     1       1.011  11.153  20.793  0.00  0.00    +0.000 A 
ATOM     14  C   UNL     1       0.338   9.970  20.497  0.00  0.00    +0.000 A 
ATOM     15  C   UNL     1      -0.561   9.904  19.427  0.00  0.00    +0.000 A 
ATOM     16  C   UNL     1      -0.801  11.043  18.659  0.00  0.00    +0.000 A 
ENDBRANCH   7  14
ENDBRANCH   1   7
BRANCH   4  17
ATOM     17  S   UNL     1       4.166   5.017  18.594  0.00  0.00    +0.000 S 
ATOM     18  O   UNL     1       4.725   5.540  19.816  0.00  0.00    +0.000 OA
ATOM     19  O   UNL     1       4.145   3.595  18.340  0.00  0.00    +0.000 OA
BRANCH  17  20
ATOM     20  N   UNL     1       4.922   5.771  17.295  0.00  0.00    +0.000 NA
ATOM     21  C   UNL     1       4.984   4.963  16.035  0.00  0.00    +0.000 C 
ATOM     22  C   UNL     1       6.253   4.095  15.963  0.00  0.00    +0.000 C 
ATOM     23  O   UNL     1       7.448   4.851  16.196  0.00  0.00    +0.000 OA
ATOM     24  C   UNL     1       7.398   5.476  17.483  0.00  0.00    +0.000 C 
ATOM     25  C   UNL     1       6.231   6.450  17.537  0.00  0.00    +0.000 C 
ENDBRANCH  17  20
ENDBRANCH   4  17
TORSDOF 4
ENDMDL
MODEL 4
REMARK VINA RESULT:      -7.1      1.379      1.818
REMARK  Name = 
REMARK  5 active torsions:
REMARK  status: ('A' for Active; 'I' for Inactive)
REMARK    1  A    between atoms: C_1  and  C_2
REMARK    2  A    between atoms: C_5  and  S_6
REMARK    3  A    between atoms: S_6  and  N_9
REMARK    4  A    between atoms: N_12  and  S_13
REMARK    5  A    between atoms: S_13  and  N_16
REMARK                            x       y       z     vdW  Elec       q    Type
REMARK                         _______ _______ _______ _____ _____    ______ ____
ROOT
ATOM      1  N   UNL     1       5.969   5.814  17.373  0.00  0.00    +0.000 NA
ATOM      2  C   UNL     1       5.654   4.878  18.477  0.00  0.00    +0.000 C 
ATOM      3  C   UNL     1       4.902   5.647  19.553  0.00  0.00    +0.000 C 
ATOM      4  N   UNL     1       3.647   6.269  19.030  0.00  0.00    +0.000 NA
ATOM      5  C   UNL     1       3.905   7.098  17.807  0.00  0.00    +0.000 C 
ATOM      6  C   UNL     1       4.737   6.351  16.740  0.00  0.00    +0.000 C 
ENDROOT
BRANCH   1   7
ATOM      7  S   UNL     1       7.321   5.459  16.441  0.00  0.00    +0.000 S 
ATOM      8  O   UNL     1       8.042   4.398  17.110  0.00  0.00    +0.000 OA
ATOM      9  O   UNL     1       7.981   6.704  16.104  0.00  0.00    +0.000 OA
BRANCH   7  14
ATOM     10  C   UNL     1       5.101   2.853  11.435  0.00  0.00    +0.000 C 
ATOM     11  C   UNL     1       5.627   3.550  12.655  0.00  0.00    +0.000 A 
ATOM     12  C   UNL     1       6.820   4.284  12.605  0.00  0.00    +0.000 A 
ATOM     13  C   UNL     1       7.331   4.892  13.752  0.00  0.00    +0.000 A 
ATOM     14  C   UNL     1       6.638   4.769  14.954  0.00  0.00    +0.000 A 
ATOM     15  C   UNL     1       5.448   4.036  15.024  0.00  0.00    +0.000 A 
ATOM     16  C   UNL     1       4.939   3.437  13.872  0.00  0.00    +0.000 A 
ENDBRANCH   7  14
ENDBRANCH   1   7
BRANCH   4  17
ATOM     17  S   UNL     1       2.269   5.315  19.001  0.00  0.00    +0.000 S 
ATOM     18  O   UNL     1       1.462   5.654  20.148  0.00  0.00    +0.000 OA
ATOM     19  O   UNL     1       1.714   5.356  17.669  0.00  0.00    +0.000 OA
BRANCH  17  20
ATOM     20  N   UNL     1       2.932   3.789  19.248  0.00  0.00    +0.000 NA
ATOM     21  C   UNL     1       2.593   2.769  18.204  0.00  0.00    +0.000 C 
ATOM     22  C   UNL     1       1.302   2.002  18.539  0.00  0.00    +0.000 C 
ATOM     23  O   UNL     1       1.319   1.455  19.865  0.00  0.00    +0.000 OA
ATOM     24  C   UNL     1       1.491   2.498  20.831  0.00  0.00    +0.000 C 
ATOM     25  C   UNL     1       2.829   3.187  20.610  0.00  0.00    +0.000 C 
ENDBRANCH  17  20
ENDBRANCH   4  17
TORSDOF 4
ENDMDL
MODEL 5
REMARK VINA RESULT:      -6.8      1.530      2.172
REMARK  Name = 
REMARK  5 active torsions:
REMARK  status: ('A' for Active; 'I' for Inactive)
REMARK    1  A    between atoms: C_1  and  C_2
REMARK    2  A    between atoms: C_5  and  S_6
REMARK    3  A    between atoms: S_6  and  N_9
REMARK    4  A    between atoms: N_12  and  S_13
REMARK    5  A    between atoms: S_13  and  N_16
REMARK                            x       y       z     vdW  Elec       q    Type
REMARK                         _______ _______ _______ _____ _____    ______ ____
ROOT
ATOM      1  N   UNL     1       5.320   5.412  17.110  0.00  0.00    +0.000 NA
ATOM      2  C   UNL     1       6.161   4.661  18.069  0.00  0.00    +0.000 C 
ATOM      3  C   UNL     1       5.435   4.614  19.405  0.00  0.00    +0.000 C 
ATOM      4  N   UNL     1       4.086   3.980  19.294  0.00  0.00    +0.000 NA
ATOM      5  C   UNL     1       3.261   4.612  18.214  0.00  0.00    +0.000 C 
ATOM      6  C   UNL     1       4.019   4.735  16.872  0.00  0.00    +0.000 C 
ENDROOT
BRANCH   1   7
ATOM      7  S   UNL     1       6.115   6.193  15.853  0.00  0.00    +0.000 S 
ATOM      8  O   UNL     1       7.487   6.393  16.267  0.00  0.00    +0.000 OA
ATOM      9  O   UNL     1       5.300   7.311  15.424  0.00  0.00    +0.000 OA
BRANCH   7  14
ATOM     10  C   UNL     1       6.126   2.273  11.225  0.00  0.00    +0.000 C 
ATOM     11  C   UNL     1       6.134   3.198  12.407  0.00  0.00    +0.000 A 
ATOM     12  C   UNL     1       4.995   3.344  13.212  0.00  0.00    +0.000 A 
ATOM     13  C   UNL     1       4.991   4.237  14.283  0.00  0.00    +0.000 A 
ATOM     14  C   UNL     1       6.135   4.984  14.552  0.00  0.00    +0.000 A 
ATOM     15  C   UNL     1       7.279   4.855  13.755  0.00  0.00    +0.000 A 
ATOM     16  C   UNL     1       7.279   3.955  12.691  0.00  0.00    +0.000 A 
ENDBRANCH   7  14
ENDBRANCH   1   7
BRANCH   4  17
ATOM     17  S   UNL     1       4.012   2.307  19.400  0.00  0.00    +0.000 S 
ATOM     18  O   UNL     1       3.753   1.785  18.080  0.00  0.00    +0.000 OA
ATOM     19  O   UNL     1       5.145   1.848  20.167  0.00  0.00    +0.000 OA
BRANCH  17  20
ATOM     20  N   UNL     1       2.628   2.108  20.334  0.00  0.00    +0.000 NA
ATOM     21  C   UNL     1       1.349   1.987  19.564  0.00  0.00    +0.000 C 
ATOM     22  C   UNL     1       0.692   3.355  19.308  0.00  0.00    +0.000 C 
ATOM     23  O   UNL     1       0.546   4.125  20.509  0.00  0.00    +0.000 OA
ATOM     24  C   UNL     1       1.823   4.341  21.120  0.00  0.00    +0.000 C 
ATOM     25  C   UNL     1       2.438   3.006  21.513  0.00  0.00    +0.000 C 
ENDBRANCH  17  20
ENDBRANCH   4  17
TORSDOF 4
ENDMDL
MODEL 6
REMARK VINA RESULT:      -6.8      5.115      6.507
REMARK  Name = 
REMARK  5 active torsions:
REMARK  status: ('A' for Active; 'I' for Inactive)
REMARK    1  A    between atoms: C_1  and  C_2
REMARK    2  A    between atoms: C_5  and  S_6
REMARK    3  A    between atoms: S_6  and  N_9
REMARK    4  A    between atoms: N_12  and  S_13
REMARK    5  A    between atoms: S_13  and  N_16
REMARK                            x       y       z     vdW  Elec       q    Type
REMARK                         _______ _______ _______ _____ _____    ______ ____
ROOT
ATOM      1  N   UNL     1       2.365   6.994  19.022  0.00  0.00    +0.000 NA
ATOM      2  C   UNL     1       1.528   7.427  20.164  0.00  0.00    +0.000 C 
ATOM      3  C   UNL     1       1.787   8.905  20.413  0.00  0.00    +0.000 C 
ATOM      4  N   UNL     1       1.491   9.741  19.210  0.00  0.00    +0.000 NA
ATOM      5  C   UNL     1       2.198   9.231  17.990  0.00  0.00    +0.000 C 
ATOM      6  C   UNL     1       2.004   7.713  17.773  0.00  0.00    +0.000 C 
ENDROOT
BRANCH   1   7
ATOM      7  S   UNL     1       2.804   5.374  18.975  0.00  0.00    +0.000 S 
ATOM      8  O   UNL     1       1.644   4.622  18.550  0.00  0.00    +0.000 OA
ATOM      9  O   UNL     1       3.483   5.050  20.214  0.00  0.00    +0.000 OA
BRANCH   7  14
ATOM     10  C   UNL     1       7.014   4.956  14.629  0.00  0.00    +0.000 C 
ATOM     11  C   UNL     1       5.940   5.093  15.668  0.00  0.00    +0.000 A 
ATOM     12  C   UNL     1       5.868   6.233  16.480  0.00  0.00    +0.000 A 
ATOM     13  C   UNL     1       4.896   6.338  17.476  0.00  0.00    +0.000 A 
ATOM     14  C   UNL     1       3.988   5.297  17.654  0.00  0.00    +0.000 A 
ATOM     15  C   UNL     1       4.049   4.149  16.855  0.00  0.00    +0.000 A 
ATOM     16  C   UNL     1       5.018   4.054  15.858  0.00  0.00    +0.000 A 
ENDBRANCH   7  14
ENDBRANCH   1   7
BRANCH   4  17
ATOM     17  S   UNL     1      -0.095  10.241  18.992  0.00  0.00    +0.000 S 
ATOM     18  O   UNL     1      -0.532   9.795  17.692  0.00  0.00    +0.000 OA
ATOM     19  O   UNL     1      -0.846   9.907  20.179  0.00  0.00    +0.000 OA
BRANCH  17  20
ATOM     20  N   UNL     1       0.101  11.911  18.947  0.00  0.00    +0.000 NA
ATOM     21  C   UNL     1       0.948  12.484  20.041  0.00  0.00    +0.000 C 
ATOM     22  C   UNL     1       0.121  12.853  21.284  0.00  0.00    +0.000 C 
ATOM     23  O   UNL     1      -1.008  13.678  20.966  0.00  0.00    +0.000 OA
ATOM     24  C   UNL     1      -1.864  13.012  20.032  0.00  0.00    +0.000 C 
ATOM     25  C   UNL     1      -1.111  12.758  18.735  0.00  0.00    +0.000 C 
ENDBRANCH  17  20
ENDBRANCH   4  17
TORSDOF 4
ENDMDL
MODEL 7
REMARK VINA RESULT:      -6.8      5.012      6.715
REMARK  Name = 
REMARK  5 active torsions:
REMARK  status: ('A' for Active; 'I' for Inactive)
REMARK    1  A    between atoms: C_1  and  C_2
REMARK    2  A    between atoms: C_5  and  S_6
REMARK    3  A    between atoms: S_6  and  N_9
REMARK    4  A    between atoms: N_12  and  S_13
REMARK    5  A    between atoms: S_13  and  N_16
REMARK                            x       y       z     vdW  Elec       q    Type
REMARK                         _______ _______ _______ _____ _____    ______ ____
ROOT
ATOM      1  N   UNL     1       2.205   6.696  19.456  0.00  0.00    +0.000 NA
ATOM      2  C   UNL     1       1.309   7.271  20.485  0.00  0.00    +0.000 C 
ATOM      3  C   UNL     1       1.685   8.731  20.683  0.00  0.00    +0.000 C 
ATOM      4  N   UNL     1       1.586   9.517  19.416  0.00  0.00    +0.000 NA
ATOM      5  C   UNL     1       2.353   8.873  18.300  0.00  0.00    +0.000 C 
ATOM      6  C   UNL     1       2.035   7.368  18.142  0.00  0.00    +0.000 C 
ENDROOT
BRANCH   1   7
ATOM      7  S   UNL     1       2.489   5.043  19.535  0.00  0.00    +0.000 S 
ATOM      8  O   UNL     1       1.364   4.379  18.912  0.00  0.00    +0.000 OA
ATOM      9  O   UNL     1       2.885   4.713  20.890  0.00  0.00    +0.000 OA
BRANCH   7  14
ATOM     10  C   UNL     1       7.239   4.492  15.805  0.00  0.00    +0.000 C 
ATOM     11  C   UNL     1       6.072   4.572  16.745  0.00  0.00    +0.000 A 
ATOM     12  C   UNL     1       4.815   4.077  16.372  0.00  0.00    +0.000 A 
ATOM     13  C   UNL     1       3.721   4.193  17.230  0.00  0.00    +0.000 A 
ATOM     14  C   UNL     1       3.890   4.804  18.470  0.00  0.00    +0.000 A 
ATOM     15  C   UNL     1       5.137   5.309  18.857  0.00  0.00    +0.000 A 
ATOM     16  C   UNL     1       6.228   5.182  17.998  0.00  0.00    +0.000 A 
ENDBRANCH   7  14
ENDBRANCH   1   7
BRANCH   4  17
ATOM     17  S   UNL     1       0.084  10.146  19.015  0.00  0.00    +0.000 S 
ATOM     18  O   UNL     1      -0.286   9.634  17.718  0.00  0.00    +0.000 OA
ATOM     19  O   UNL     1      -0.795   9.986  20.150  0.00  0.00    +0.000 OA
BRANCH  17  20
ATOM     20  N   UNL     1       0.452  11.779  18.861  0.00  0.00    +0.000 NA
ATOM     21  C   UNL     1       1.311  12.346  19.950  0.00  0.00    +0.000 C 
ATOM     22  C   UNL     1       0.478  12.888  21.125  0.00  0.00    +0.000 C 
ATOM     23  O   UNL     1      -0.546  13.795  20.697  0.00  0.00    +0.000 OA
ATOM     24  C   UNL     1      -1.430  13.149  19.774  0.00  0.00    +0.000 C 
ATOM     25  C   UNL     1      -0.657  12.725  18.534  0.00  0.00    +0.000 C 
ENDBRANCH  17  20
ENDBRANCH   4  17
TORSDOF 4
ENDMDL
MODEL 8
REMARK VINA RESULT:      -6.7      5.156      7.884
REMARK  Name = 
REMARK  5 active torsions:
REMARK  status: ('A' for Active; 'I' for Inactive)
REMARK    1  A    between atoms: C_1  and  C_2
REMARK    2  A    between atoms: C_5  and  S_6
REMARK    3  A    between atoms: S_6  and  N_9
REMARK    4  A    between atoms: N_12  and  S_13
REMARK    5  A    between atoms: S_13  and  N_16
REMARK                            x       y       z     vdW  Elec       q    Type
REMARK                         _______ _______ _______ _____ _____    ______ ____
ROOT
ATOM      1  N   UNL     1       1.441   9.052  19.146  0.00  0.00    +0.000 NA
ATOM      2  C   UNL     1       1.866   8.127  20.221  0.00  0.00    +0.000 C 
ATOM      3  C   UNL     1       1.598   6.702  19.758  0.00  0.00    +0.000 C 
ATOM      4  N   UNL     1       2.312   6.378  18.485  0.00  0.00    +0.000 NA
ATOM      5  C   UNL     1       2.032   7.392  17.416  0.00  0.00    +0.000 C 
ATOM      6  C   UNL     1       2.226   8.847  17.902  0.00  0.00    +0.000 C 
ENDROOT
BRANCH   1   7
ATOM      7  S   UNL     1       0.977  10.596  19.615  0.00  0.00    +0.000 S 
ATOM      8  O   UNL     1       1.808  11.536  18.895  0.00  0.00    +0.000 OA
ATOM      9  O   UNL     1       0.903  10.631  21.062  0.00  0.00    +0.000 OA
BRANCH   7  14
ATOM     10  C   UNL     1      -4.546  11.316  17.213  0.00  0.00    +0.000 C 
ATOM     11  C   UNL     1      -3.203  11.103  17.849  0.00  0.00    +0.000 A 
ATOM     12  C   UNL     1      -2.813  11.849  18.970  0.00  0.00    +0.000 A 
ATOM     13  C   UNL     1      -1.548  11.681  19.532  0.00  0.00    +0.000 A 
ATOM     14  C   UNL     1      -0.670  10.756  18.969  0.00  0.00    +0.000 A 
ATOM     15  C   UNL     1      -1.041  10.007  17.847  0.00  0.00    +0.000 A 
ATOM     16  C   UNL     1      -2.310  10.174  17.295  0.00  0.00    +0.000 A 
ENDBRANCH   7  14
ENDBRANCH   1   7
BRANCH   4  17
ATOM     17  S   UNL     1       3.899   5.849  18.606  0.00  0.00    +0.000 S 
ATOM     18  O   UNL     1       4.729   6.736  17.829  0.00  0.00    +0.000 OA
ATOM     19  O   UNL     1       4.190   5.594  19.997  0.00  0.00    +0.000 OA
BRANCH  17  20
ATOM     20  N   UNL     1       3.803   4.371  17.809  0.00  0.00    +0.000 NA
ATOM     21  C   UNL     1       2.415   3.853  17.590  0.00  0.00    +0.000 C 
ATOM     22  C   UNL     1       1.927   2.983  18.762  0.00  0.00    +0.000 C 
ATOM     23  O   UNL     1       2.859   1.948  19.101  0.00  0.00    +0.000 OA
ATOM     24  C   UNL     1       4.126   2.514  19.452  0.00  0.00    +0.000 C 
ATOM     25  C   UNL     1       4.701   3.266  18.262  0.00  0.00    +0.000 C 
ENDBRANCH  17  20
ENDBRANCH   4  17
TORSDOF 4
ENDMDL
MODEL 9
REMARK VINA RESULT:      -6.7      4.870      6.833
REMARK  Name = 
REMARK  5 active torsions:
REMARK  status: ('A' for Active; 'I' for Inactive)
REMARK    1  A    between atoms: C_1  and  C_2
REMARK    2  A    between atoms: C_5  and  S_6
REMARK    3  A    between atoms: S_6  and  N_9
REMARK    4  A    between atoms: N_12  and  S_13
REMARK    5  A    between atoms: S_13  and  N_16
REMARK                            x       y       z     vdW  Elec       q    Type
REMARK                         _______ _______ _______ _____ _____    ______ ____
ROOT
ATOM      1  N   UNL     1       2.074   6.592  19.802  0.00  0.00    +0.000 NA
ATOM      2  C   UNL     1       1.206   7.124  20.877  0.00  0.00    +0.000 C 
ATOM      3  C   UNL     1       1.594   8.574  21.129  0.00  0.00    +0.000 C 
ATOM      4  N   UNL     1       1.467   9.414  19.900  0.00  0.00    +0.000 NA
ATOM      5  C   UNL     1       2.204   8.817  18.739  0.00  0.00    +0.000 C 
ATOM      6  C   UNL     1       1.875   7.321  18.523  0.00  0.00    +0.000 C 
ENDROOT
BRANCH   1   7
ATOM      7  S   UNL     1       2.352   4.936  19.803  0.00  0.00    +0.000 S 
ATOM      8  O   UNL     1       1.237   4.309  19.128  0.00  0.00    +0.000 OA
ATOM      9  O   UNL     1       2.724   4.537  21.146  0.00  0.00    +0.000 OA
BRANCH   7  14
ATOM     10  C   UNL     1       7.164   4.557  16.131  0.00  0.00    +0.000 C 
ATOM     11  C   UNL     1       5.982   4.594  17.054  0.00  0.00    +0.000 A 
ATOM     12  C   UNL     1       4.732   4.111  16.640  0.00  0.00    +0.000 A 
ATOM     13  C   UNL     1       3.625   4.187  17.484  0.00  0.00    +0.000 A 
ATOM     14  C   UNL     1       3.771   4.746  18.752  0.00  0.00    +0.000 A 
ATOM     15  C   UNL     1       5.010   5.239  19.179  0.00  0.00    +0.000 A 
ATOM     16  C   UNL     1       6.115   5.152  18.333  0.00  0.00    +0.000 A 
ENDBRANCH   7  14
ENDBRANCH   1   7
BRANCH   4  17
ATOM     17  S   UNL     1      -0.042  10.065  19.564  0.00  0.00    +0.000 S 
ATOM     18  O   UNL     1      -0.209  10.098  18.132  0.00  0.00    +0.000 OA
ATOM     19  O   UNL     1      -1.017   9.413  20.407  0.00  0.00    +0.000 OA
BRANCH  17  20
ATOM     20  N   UNL     1       0.160  11.641  20.115  0.00  0.00    +0.000 NA
ATOM     21  C   UNL     1      -0.861  12.623  19.628  0.00  0.00    +0.000 C 
ATOM     22  C   UNL     1      -0.445  13.285  18.303  0.00  0.00    +0.000 C 
ATOM     23  O   UNL     1       0.877  13.839  18.359  0.00  0.00    +0.000 OA
ATOM     24  C   UNL     1       1.831  12.820  18.677  0.00  0.00    +0.000 C 
ATOM     25  C   UNL     1       1.526  12.241  20.050  0.00  0.00    +0.000 C 
ENDBRANCH  17  20
ENDBRANCH   4  17
TORSDOF 4
ENDMDL
