MODEL 1
REMARK VINA RESULT:      -7.9      0.000      0.000
REMARK  Name = 
REMARK  5 active torsions:
REMARK  status: ('A' for Active; 'I' for Inactive)
REMARK    1  A    between atoms: C_1  and  N_2
REMARK    2  A    between atoms: C_6  and  C_7
REMARK    3  A    between atoms: C_11  and  N_12
REMARK    4  A    between atoms: C_13  and  C_15
REMARK    5  A    between atoms: C_15  and  C_16
REMARK                            x       y       z     vdW  Elec       q    Type
REMARK                         _______ _______ _______ _____ _____    ______ ____
ROOT
ATOM      1  N   UNL     1       2.966   6.169  17.630  0.00  0.00    +0.000 N 
ATOM      2  C   UNL     1       2.572   6.866  18.774  0.00  0.00    +0.000 C 
ATOM      3  O   UNL     1       2.240   6.352  19.841  0.00  0.00    +0.000 OA
ATOM      4  H   UNL     1       3.757   6.599  17.172  0.00  0.00    +0.000 HD
ENDROOT
BRANCH   1   9
ATOM      5  C   UNL     1       4.089   3.895  17.677  0.00  0.00    +0.000 A 
ATOM      6  N   UNL     1       3.697   2.560  17.748  0.00  0.00    +0.000 NA
ATOM      7  C   UNL     1       2.391   2.499  17.904  0.00  0.00    +0.000 A 
ATOM      8  S   UNL     1       1.570   4.000  18.046  0.00  0.00    +0.000 S 
ATOM      9  C   UNL     1       3.044   4.795  17.742  0.00  0.00    +0.000 A 
BRANCH   5  15
ATOM     10  C   UNL     1       5.974   4.086  15.158  0.00  0.00    +0.000 C 
ATOM     11  N   UNL     1       6.340   4.289  16.535  0.00  0.00    +0.000 N 
ATOM     12  N   UNL     1       7.614   4.600  16.858  0.00  0.00    +0.000 NA
ATOM     13  C   UNL     1       7.511   4.786  18.174  0.00  0.00    +0.000 A 
ATOM     14  N   UNL     1       6.266   4.596  18.698  0.00  0.00    +0.000 NA
ATOM     15  C   UNL     1       5.535   4.275  17.645  0.00  0.00    +0.000 A 
ENDBRANCH   5  15
ENDBRANCH   1   9
BRANCH   2  16
ATOM     16  C   UNL     1       2.636   8.377  18.599  0.00  0.00    +0.000 C 
BRANCH  16  17
ATOM     17  C   UNL     1       1.344   9.093  18.952  0.00  0.00    +0.000 A 
ATOM     18  C   UNL     1       0.485   9.451  17.896  0.00  0.00    +0.000 A 
ATOM     19  C   UNL     1      -0.720  10.109  18.131  0.00  0.00    +0.000 A 
ATOM     20  C   UNL     1      -1.096  10.404  19.440  0.00  0.00    +0.000 A 
ATOM     21  C   UNL     1      -0.271  10.050  20.518  0.00  0.00    +0.000 A 
ATOM     22  C   UNL     1      -0.652  10.321  21.836  0.00  0.00    +0.000 A 
ATOM     23  N   UNL     1       0.073  10.006  22.930  0.00  0.00    +0.000 NA
ATOM     24  C   UNL     1       1.250   9.394  22.703  0.00  0.00    +0.000 A 
ATOM     25  C   UNL     1       1.732   9.081  21.438  0.00  0.00    +0.000 A 
ATOM     26  C   UNL     1       0.965   9.397  20.296  0.00  0.00    +0.000 A 
ENDBRANCH  16  17
ENDBRANCH   2  16
TORSDOF 4
ENDMDL
MODEL 2
REMARK VINA RESULT:      -7.9      1.663      2.388
REMARK  Name = 
REMARK  5 active torsions:
REMARK  status: ('A' for Active; 'I' for Inactive)
REMARK    1  A    between atoms: C_1  and  N_2
REMARK    2  A    between atoms: C_6  and  C_7
REMARK    3  A    between atoms: C_11  and  N_12
REMARK    4  A    between atoms: C_13  and  C_15
REMARK    5  A    between atoms: C_15  and  C_16
REMARK                            x       y       z     vdW  Elec       q    Type
REMARK                         _______ _______ _______ _____ _____    ______ ____
ROOT
ATOM      1  N   UNL     1       3.360   6.383  19.609  0.00  0.00    +0.000 N 
ATOM      2  C   UNL     1       2.449   6.780  18.629  0.00  0.00    +0.000 C 
ATOM      3  O   UNL     1       1.849   6.024  17.867  0.00  0.00    +0.000 OA
ATOM      4  H   UNL     1       3.240   6.892  20.473  0.00  0.00    +0.000 HD
ENDROOT
BRANCH   1   9
ATOM      5  C   UNL     1       4.507   4.138  19.319  0.00  0.00    +0.000 A 
ATOM      6  N   UNL     1       4.247   2.807  19.634  0.00  0.00    +0.000 NA
ATOM      7  C   UNL     1       3.134   2.736  20.333  0.00  0.00    +0.000 A 
ATOM      8  S   UNL     1       2.378   4.229  20.714  0.00  0.00    +0.000 S 
ATOM      9  C   UNL     1       3.545   5.023  19.764  0.00  0.00    +0.000 A 
BRANCH   5  15
ATOM     10  C   UNL     1       5.200   4.005  16.247  0.00  0.00    +0.000 C 
ATOM     11  N   UNL     1       6.072   4.411  17.318  0.00  0.00    +0.000 N 
ATOM     12  N   UNL     1       7.340   4.792  17.050  0.00  0.00    +0.000 NA
ATOM     13  C   UNL     1       7.761   5.163  18.260  0.00  0.00    +0.000 A 
ATOM     14  N   UNL     1       6.850   5.024  19.266  0.00  0.00    +0.000 NA
ATOM     15  C   UNL     1       5.785   4.540  18.652  0.00  0.00    +0.000 A 
ENDBRANCH   5  15
ENDBRANCH   1   9
BRANCH   2  16
ATOM     16  C   UNL     1       2.212   8.284  18.613  0.00  0.00    +0.000 C 
BRANCH  16  17
ATOM     17  C   UNL     1       1.328   8.780  19.744  0.00  0.00    +0.000 A 
ATOM     18  C   UNL     1       1.408   8.108  20.979  0.00  0.00    +0.000 A 
ATOM     19  C   UNL     1       0.633   8.498  22.068  0.00  0.00    +0.000 A 
ATOM     20  C   UNL     1      -0.228   9.588  21.944  0.00  0.00    +0.000 A 
ATOM     21  C   UNL     1      -0.323  10.288  20.732  0.00  0.00    +0.000 A 
ATOM     22  C   UNL     1      -1.165  11.397  20.605  0.00  0.00    +0.000 A 
ATOM     23  N   UNL     1      -1.309  12.133  19.484  0.00  0.00    +0.000 NA
ATOM     24  C   UNL     1      -0.581  11.742  18.422  0.00  0.00    +0.000 A 
ATOM     25  C   UNL     1       0.284  10.654  18.431  0.00  0.00    +0.000 A 
ATOM     26  C   UNL     1       0.444   9.895  19.610  0.00  0.00    +0.000 A 
ENDBRANCH  16  17
ENDBRANCH   2  16
TORSDOF 4
ENDMDL
MODEL 3
REMARK VINA RESULT:      -7.8      1.668      2.696
REMARK  Name = 
REMARK  5 active torsions:
REMARK  status: ('A' for Active; 'I' for Inactive)
REMARK    1  A    between atoms: C_1  and  N_2
REMARK    2  A    between atoms: C_6  and  C_7
REMARK    3  A    between atoms: C_11  and  N_12
REMARK    4  A    between atoms: C_13  and  C_15
REMARK    5  A    between atoms: C_15  and  C_16
REMARK                            x       y       z     vdW  Elec       q    Type
REMARK                         _______ _______ _______ _____ _____    ______ ____
ROOT
ATOM      1  N   UNL     1       3.961   6.512  18.775  0.00  0.00    +0.000 N 
ATOM      2  C   UNL     1       2.582   6.329  18.890  0.00  0.00    +0.000 C 
ATOM      3  O   UNL     1       1.889   5.655  18.131  0.00  0.00    +0.000 OA
ATOM      4  H   UNL     1       4.431   6.465  19.669  0.00  0.00    +0.000 HD
ENDROOT
BRANCH   1   9
ATOM      5  C   UNL     1       4.984   4.509  17.601  0.00  0.00    +0.000 A 
ATOM      6  N   UNL     1       5.692   4.261  16.428  0.00  0.00    +0.000 NA
ATOM      7  C   UNL     1       5.774   5.373  15.727  0.00  0.00    +0.000 A 
ATOM      8  S   UNL     1       4.966   6.742  16.374  0.00  0.00    +0.000 S 
ATOM      9  C   UNL     1       4.592   5.824  17.758  0.00  0.00    +0.000 A 
BRANCH   5  15
ATOM     10  C   UNL     1       2.641   2.429  17.260  0.00  0.00    +0.000 C 
ATOM     11  N   UNL     1       3.543   2.547  18.376  0.00  0.00    +0.000 N 
ATOM     12  N   UNL     1       3.433   1.707  19.427  0.00  0.00    +0.000 NA
ATOM     13  C   UNL     1       4.474   2.081  20.170  0.00  0.00    +0.000 A 
ATOM     14  N   UNL     1       5.216   3.108  19.665  0.00  0.00    +0.000 NA
ATOM     15  C   UNL     1       4.609   3.396  18.528  0.00  0.00    +0.000 A 
ENDBRANCH   5  15
ENDBRANCH   1   9
BRANCH   2  16
ATOM     16  C   UNL     1       1.992   7.022  20.111  0.00  0.00    +0.000 C 
BRANCH  16  17
ATOM     17  C   UNL     1       1.551   8.452  19.854  0.00  0.00    +0.000 A 
ATOM     18  C   UNL     1       1.742   8.972  18.560  0.00  0.00    +0.000 A 
ATOM     19  C   UNL     1       1.366  10.274  18.239  0.00  0.00    +0.000 A 
ATOM     20  C   UNL     1       0.771  11.077  19.211  0.00  0.00    +0.000 A 
ATOM     21  C   UNL     1       0.554  10.586  20.507  0.00  0.00    +0.000 A 
ATOM     22  C   UNL     1      -0.065  11.376  21.481  0.00  0.00    +0.000 A 
ATOM     23  N   UNL     1      -0.322  10.982  22.746  0.00  0.00    +0.000 NA
ATOM     24  C   UNL     1       0.065   9.733  23.067  0.00  0.00    +0.000 A 
ATOM     25  C   UNL     1       0.692   8.863  22.182  0.00  0.00    +0.000 A 
ATOM     26  C   UNL     1       0.945   9.272  20.856  0.00  0.00    +0.000 A 
ENDBRANCH  16  17
ENDBRANCH   2  16
TORSDOF 4
ENDMDL
MODEL 4
REMARK VINA RESULT:      -7.7      1.556      1.738
REMARK  Name = 
REMARK  5 active torsions:
REMARK  status: ('A' for Active; 'I' for Inactive)
REMARK    1  A    between atoms: C_1  and  N_2
REMARK    2  A    between atoms: C_6  and  C_7
REMARK    3  A    between atoms: C_11  and  N_12
REMARK    4  A    between atoms: C_13  and  C_15
REMARK    5  A    between atoms: C_15  and  C_16
REMARK                            x       y       z     vdW  Elec       q    Type
REMARK                         _______ _______ _______ _____ _____    ______ ____
ROOT
ATOM      1  N   UNL     1       3.057   5.289  20.259  0.00  0.00    +0.000 N 
ATOM      2  C   UNL     1       2.323   6.362  19.752  0.00  0.00    +0.000 C 
ATOM      3  O   UNL     1       2.049   6.539  18.566  0.00  0.00    +0.000 OA
ATOM      4  H   UNL     1       2.663   4.926  21.116  0.00  0.00    +0.000 HD
ENDROOT
BRANCH   1   9
ATOM      5  C   UNL     1       4.527   4.196  18.503  0.00  0.00    +0.000 A 
ATOM      6  N   UNL     1       4.471   3.082  17.670  0.00  0.00    +0.000 NA
ATOM      7  C   UNL     1       3.383   2.391  17.941  0.00  0.00    +0.000 A 
ATOM      8  S   UNL     1       2.414   2.974  19.231  0.00  0.00    +0.000 S 
ATOM      9  C   UNL     1       3.444   4.323  19.351  0.00  0.00    +0.000 A 
BRANCH   5  15
ATOM     10  C   UNL     1       5.160   6.609  16.576  0.00  0.00    +0.000 C 
ATOM     11  N   UNL     1       5.997   6.093  17.627  0.00  0.00    +0.000 N 
ATOM     12  N   UNL     1       7.200   6.657  17.872  0.00  0.00    +0.000 NA
ATOM     13  C   UNL     1       7.598   5.967  18.941  0.00  0.00    +0.000 A 
ATOM     14  N   UNL     1       6.736   5.000  19.370  0.00  0.00    +0.000 NA
ATOM     15  C   UNL     1       5.727   5.089  18.521  0.00  0.00    +0.000 A 
ENDBRANCH   5  15
ENDBRANCH   1   9
BRANCH   2  16
ATOM     16  C   UNL     1       1.830   7.309  20.837  0.00  0.00    +0.000 C 
BRANCH  16  17
ATOM     17  C   UNL     1       1.281   8.622  20.306  0.00  0.00    +0.000 A 
ATOM     18  C   UNL     1       1.590   8.970  18.977  0.00  0.00    +0.000 A 
ATOM     19  C   UNL     1       1.127  10.155  18.410  0.00  0.00    +0.000 A 
ATOM     20  C   UNL     1       0.325  11.009  19.166  0.00  0.00    +0.000 A 
ATOM     21  C   UNL     1      -0.014  10.687  20.488  0.00  0.00    +0.000 A 
ATOM     22  C   UNL     1      -0.838  11.526  21.244  0.00  0.00    +0.000 A 
ATOM     23  N   UNL     1      -1.222  11.289  22.516  0.00  0.00    +0.000 NA
ATOM     24  C   UNL     1      -0.754  10.158  23.075  0.00  0.00    +0.000 A 
ATOM     25  C   UNL     1       0.075   9.254  22.421  0.00  0.00    +0.000 A 
ATOM     26  C   UNL     1       0.462   9.496  21.086  0.00  0.00    +0.000 A 
ENDBRANCH  16  17
ENDBRANCH   2  16
TORSDOF 4
ENDMDL
MODEL 5
REMARK VINA RESULT:      -7.7      1.075      2.132
REMARK  Name = 
REMARK  5 active torsions:
REMARK  status: ('A' for Active; 'I' for Inactive)
REMARK    1  A    between atoms: C_1  and  N_2
REMARK    2  A    between atoms: C_6  and  C_7
REMARK    3  A    between atoms: C_11  and  N_12
REMARK    4  A    between atoms: C_13  and  C_15
REMARK    5  A    between atoms: C_15  and  C_16
REMARK                            x       y       z     vdW  Elec       q    Type
REMARK                         _______ _______ _______ _____ _____    ______ ____
ROOT
ATOM      1  N   UNL     1       2.693   5.917  17.871  0.00  0.00    +0.000 N 
ATOM      2  C   UNL     1       2.360   6.580  19.052  0.00  0.00    +0.000 C 
ATOM      3  O   UNL     1       2.203   6.045  20.149  0.00  0.00    +0.000 OA
ATOM      4  H   UNL     1       3.380   6.421  17.328  0.00  0.00    +0.000 HD
ENDROOT
BRANCH   1   9
ATOM      5  C   UNL     1       4.063   3.781  17.895  0.00  0.00    +0.000 A 
ATOM      6  N   UNL     1       3.823   2.411  17.955  0.00  0.00    +0.000 NA
ATOM      7  C   UNL     1       2.532   2.203  18.113  0.00  0.00    +0.000 A 
ATOM      8  S   UNL     1       1.550   3.601  18.269  0.00  0.00    +0.000 S 
ATOM      9  C   UNL     1       2.925   4.559  17.970  0.00  0.00    +0.000 A 
BRANCH   5  15
ATOM     10  C   UNL     1       5.978   4.025  15.404  0.00  0.00    +0.000 C 
ATOM     11  N   UNL     1       6.284   4.356  16.771  0.00  0.00    +0.000 N 
ATOM     12  N   UNL     1       7.506   4.830  17.095  0.00  0.00    +0.000 NA
ATOM     13  C   UNL     1       7.350   5.087  18.394  0.00  0.00    +0.000 A 
ATOM     14  N   UNL     1       6.121   4.790  18.907  0.00  0.00    +0.000 NA
ATOM     15  C   UNL     1       5.458   4.321  17.865  0.00  0.00    +0.000 A 
ENDBRANCH   5  15
ENDBRANCH   1   9
BRANCH   2  16
ATOM     16  C   UNL     1       2.248   8.088  18.875  0.00  0.00    +0.000 C 
BRANCH  16  17
ATOM     17  C   UNL     1       1.386   8.769  19.923  0.00  0.00    +0.000 A 
ATOM     18  C   UNL     1       1.623   8.448  21.273  0.00  0.00    +0.000 A 
ATOM     19  C   UNL     1       0.878   9.027  22.298  0.00  0.00    +0.000 A 
ATOM     20  C   UNL     1      -0.111   9.959  21.986  0.00  0.00    +0.000 A 
ATOM     21  C   UNL     1      -0.365  10.311  20.653  0.00  0.00    +0.000 A 
ATOM     22  C   UNL     1      -1.338  11.263  20.333  0.00  0.00    +0.000 A 
ATOM     23  N   UNL     1      -1.640  11.669  19.082  0.00  0.00    +0.000 NA
ATOM     24  C   UNL     1      -0.940  11.091  18.088  0.00  0.00    +0.000 A 
ATOM     25  C   UNL     1       0.045  10.132  18.288  0.00  0.00    +0.000 A 
ATOM     26  C   UNL     1       0.370   9.721  19.598  0.00  0.00    +0.000 A 
ENDBRANCH  16  17
ENDBRANCH   2  16
TORSDOF 4
ENDMDL
MODEL 6
REMARK VINA RESULT:      -7.7      1.810      2.446
REMARK  Name = 
REMARK  5 active torsions:
REMARK  status: ('A' for Active; 'I' for Inactive)
REMARK    1  A    between atoms: C_1  and  N_2
REMARK    2  A    between atoms: C_6  and  C_7
REMARK    3  A    between atoms: C_11  and  N_12
REMARK    4  A    between atoms: C_13  and  C_15
REMARK    5  A    between atoms: C_15  and  C_16
REMARK                            x       y       z     vdW  Elec       q    Type
REMARK                         _______ _______ _______ _____ _____    ______ ____
ROOT
ATOM      1  N   UNL     1       4.044   5.794  19.191  0.00  0.00    +0.000 N 
ATOM      2  C   UNL     1       2.709   6.126  18.956  0.00  0.00    +0.000 C 
ATOM      3  O   UNL     1       2.083   5.872  17.928  0.00  0.00    +0.000 OA
ATOM      4  H   UNL     1       4.195   5.452  20.130  0.00  0.00    +0.000 HD
ENDROOT
BRANCH   1   9
ATOM      5  C   UNL     1       5.798   5.296  17.426  0.00  0.00    +0.000 A 
ATOM      6  N   UNL     1       6.035   4.316  16.466  0.00  0.00    +0.000 NA
ATOM      7  C   UNL     1       5.125   3.370  16.577  0.00  0.00    +0.000 A 
ATOM      8  S   UNL     1       3.994   3.549  17.855  0.00  0.00    +0.000 S 
ATOM      9  C   UNL     1       4.681   5.066  18.205  0.00  0.00    +0.000 A 
BRANCH   5  15
ATOM     10  C   UNL     1       8.073   5.512  19.596  0.00  0.00    +0.000 C 
ATOM     11  N   UNL     1       7.698   6.509  18.629  0.00  0.00    +0.000 N 
ATOM     12  N   UNL     1       8.350   7.691  18.587  0.00  0.00    +0.000 NA
ATOM     13  C   UNL     1       7.776   8.268  17.531  0.00  0.00    +0.000 A 
ATOM     14  N   UNL     1       6.800   7.536  16.921  0.00  0.00    +0.000 NA
ATOM     15  C   UNL     1       6.758   6.424  17.634  0.00  0.00    +0.000 A 
ENDBRANCH   5  15
ENDBRANCH   1   9
BRANCH   2  16
ATOM     16  C   UNL     1       2.051   6.815  20.143  0.00  0.00    +0.000 C 
BRANCH  16  17
ATOM     17  C   UNL     1       1.646   8.253  19.874  0.00  0.00    +0.000 A 
ATOM     18  C   UNL     1       1.867   8.764  18.581  0.00  0.00    +0.000 A 
ATOM     19  C   UNL     1       1.525  10.072  18.248  0.00  0.00    +0.000 A 
ATOM     20  C   UNL     1       0.933  10.891  19.208  0.00  0.00    +0.000 A 
ATOM     21  C   UNL     1       0.686  10.412  20.502  0.00  0.00    +0.000 A 
ATOM     22  C   UNL     1       0.070  11.219  21.464  0.00  0.00    +0.000 A 
ATOM     23  N   UNL     1      -0.215  10.836  22.726  0.00  0.00    +0.000 NA
ATOM     24  C   UNL     1       0.139   9.581  23.058  0.00  0.00    +0.000 A 
ATOM     25  C   UNL     1       0.760   8.693  22.187  0.00  0.00    +0.000 A 
ATOM     26  C   UNL     1       1.043   9.091  20.863  0.00  0.00    +0.000 A 
ENDBRANCH  16  17
ENDBRANCH   2  16
TORSDOF 4
ENDMDL
MODEL 7
REMARK VINA RESULT:      -7.7      1.629      2.024
REMARK  Name = 
REMARK  5 active torsions:
REMARK  status: ('A' for Active; 'I' for Inactive)
REMARK    1  A    between atoms: C_1  and  N_2
REMARK    2  A    between atoms: C_6  and  C_7
REMARK    3  A    between atoms: C_11  and  N_12
REMARK    4  A    between atoms: C_13  and  C_15
REMARK    5  A    between atoms: C_15  and  C_16
REMARK                            x       y       z     vdW  Elec       q    Type
REMARK                         _______ _______ _______ _____ _____    ______ ____
ROOT
ATOM      1  N   UNL     1       3.428   5.268  20.042  0.00  0.00    +0.000 N 
ATOM      2  C   UNL     1       2.102   5.701  20.104  0.00  0.00    +0.000 C 
ATOM      3  O   UNL     1       1.159   5.192  19.502  0.00  0.00    +0.000 OA
ATOM      4  H   UNL     1       3.877   5.274  20.947  0.00  0.00    +0.000 HD
ENDROOT
BRANCH   1   9
ATOM      5  C   UNL     1       4.076   3.934  17.983  0.00  0.00    +0.000 A 
ATOM      6  N   UNL     1       4.104   2.596  17.596  0.00  0.00    +0.000 NA
ATOM      7  C   UNL     1       3.765   1.841  18.621  0.00  0.00    +0.000 A 
ATOM      8  S   UNL     1       3.467   2.656  20.101  0.00  0.00    +0.000 S 
ATOM      9  C   UNL     1       3.672   4.137  19.288  0.00  0.00    +0.000 A 
BRANCH   5  15
ATOM     10  C   UNL     1       6.029   3.647  15.527  0.00  0.00    +0.000 C 
ATOM     11  N   UNL     1       5.455   4.861  16.043  0.00  0.00    +0.000 N 
ATOM     12  N   UNL     1       5.739   6.045  15.459  0.00  0.00    +0.000 NA
ATOM     13  C   UNL     1       4.963   6.874  16.159  0.00  0.00    +0.000 A 
ATOM     14  N   UNL     1       4.227   6.292  17.150  0.00  0.00    +0.000 NA
ATOM     15  C   UNL     1       4.555   5.015  17.066  0.00  0.00    +0.000 A 
ENDBRANCH   5  15
ENDBRANCH   1   9
BRANCH   2  16
ATOM     16  C   UNL     1       1.905   6.873  21.055  0.00  0.00    +0.000 C 
BRANCH  16  17
ATOM     17  C   UNL     1       1.494   8.162  20.366  0.00  0.00    +0.000 A 
ATOM     18  C   UNL     1       1.877   8.337  19.022  0.00  0.00    +0.000 A 
ATOM     19  C   UNL     1       1.541   9.488  18.315  0.00  0.00    +0.000 A 
ATOM     20  C   UNL     1       0.793  10.484  18.942  0.00  0.00    +0.000 A 
ATOM     21  C   UNL     1       0.384  10.338  20.275  0.00  0.00    +0.000 A 
ATOM     22  C   UNL     1      -0.388  11.321  20.903  0.00  0.00    +0.000 A 
ATOM     23  N   UNL     1      -0.834  11.258  22.175  0.00  0.00    +0.000 NA
ATOM     24  C   UNL     1      -0.488  10.157  22.869  0.00  0.00    +0.000 A 
ATOM     25  C   UNL     1       0.279   9.121  22.349  0.00  0.00    +0.000 A 
ATOM     26  C   UNL     1       0.730   9.182  21.014  0.00  0.00    +0.000 A 
ENDBRANCH  16  17
ENDBRANCH   2  16
TORSDOF 4
ENDMDL
MODEL 8
REMARK VINA RESULT:      -7.6      1.862      3.198
REMARK  Name = 
REMARK  5 active torsions:
REMARK  status: ('A' for Active; 'I' for Inactive)
REMARK    1  A    between atoms: C_1  and  N_2
REMARK    2  A    between atoms: C_6  and  C_7
REMARK    3  A    between atoms: C_11  and  N_12
REMARK    4  A    between atoms: C_13  and  C_15
REMARK    5  A    between atoms: C_15  and  C_16
REMARK                            x       y       z     vdW  Elec       q    Type
REMARK                         _______ _______ _______ _____ _____    ______ ____
ROOT
ATOM      1  N   UNL     1       3.580   6.451  19.109  0.00  0.00    +0.000 N 
ATOM      2  C   UNL     1       2.365   7.124  18.974  0.00  0.00    +0.000 C 
ATOM      3  O   UNL     1       1.691   7.175  17.946  0.00  0.00    +0.000 OA
ATOM      4  H   UNL     1       3.648   5.954  19.987  0.00  0.00    +0.000 HD
ENDROOT
BRANCH   1   9
ATOM      5  C   UNL     1       3.783   4.453  17.559  0.00  0.00    +0.000 A 
ATOM      6  N   UNL     1       4.519   4.104  16.429  0.00  0.00    +0.000 NA
ATOM      7  C   UNL     1       5.243   5.136  16.047  0.00  0.00    +0.000 A 
ATOM      8  S   UNL     1       5.041   6.582  16.947  0.00  0.00    +0.000 S 
ATOM      9  C   UNL     1       4.015   5.737  18.010  0.00  0.00    +0.000 A 
BRANCH   5  15
ATOM     10  C   UNL     1       4.166   2.371  19.893  0.00  0.00    +0.000 C 
ATOM     11  N   UNL     1       2.979   2.589  19.109  0.00  0.00    +0.000 N 
ATOM     12  N   UNL     1       1.869   1.857  19.345  0.00  0.00    +0.000 NA
ATOM     13  C   UNL     1       1.004   2.414  18.496  0.00  0.00    +0.000 A 
ATOM     14  N   UNL     1       1.503   3.431  17.735  0.00  0.00    +0.000 NA
ATOM     15  C   UNL     1       2.759   3.525  18.132  0.00  0.00    +0.000 A 
ENDBRANCH   5  15
ENDBRANCH   1   9
BRANCH   2  16
ATOM     16  C   UNL     1       1.901   7.777  20.268  0.00  0.00    +0.000 C 
BRANCH  16  17
ATOM     17  C   UNL     1       1.180   9.098  20.067  0.00  0.00    +0.000 A 
ATOM     18  C   UNL     1       1.283   9.714  18.806  0.00  0.00    +0.000 A 
ATOM     19  C   UNL     1       0.653  10.927  18.536  0.00  0.00    +0.000 A 
ATOM     20  C   UNL     1      -0.111  11.538  19.528  0.00  0.00    +0.000 A 
ATOM     21  C   UNL     1      -0.246  10.947  20.793  0.00  0.00    +0.000 A 
ATOM     22  C   UNL     1      -1.032  11.540  21.785  0.00  0.00    +0.000 A 
ATOM     23  N   UNL     1      -1.225  11.036  23.022  0.00  0.00    +0.000 NA
ATOM     24  C   UNL     1      -0.596   9.878  23.294  0.00  0.00    +0.000 A 
ATOM     25  C   UNL     1       0.212   9.202  22.387  0.00  0.00    +0.000 A 
ATOM     26  C   UNL     1       0.400   9.723  21.090  0.00  0.00    +0.000 A 
ENDBRANCH  16  17
ENDBRANCH   2  16
TORSDOF 4
ENDMDL
MODEL 9
REMARK VINA RESULT:      -7.6      1.515      2.487
REMARK  Name = 
REMARK  5 active torsions:
REMARK  status: ('A' for Active; 'I' for Inactive)
REMARK    1  A    between atoms: C_1  and  N_2
REMARK    2  A    between atoms: C_6  and  C_7
REMARK    3  A    between atoms: C_11  and  N_12
REMARK    4  A    between atoms: C_13  and  C_15
REMARK    5  A    between atoms: C_15  and  C_16
REMARK                            x       y       z     vdW  Elec       q    Type
REMARK                         _______ _______ _______ _____ _____    ______ ____
ROOT
ATOM      1  N   UNL     1       3.850   6.031  18.665  0.00  0.00    +0.000 N 
ATOM      2  C   UNL     1       2.663   6.591  18.190  0.00  0.00    +0.000 C 
ATOM      3  O   UNL     1       1.742   5.967  17.666  0.00  0.00    +0.000 OA
ATOM      4  H   UNL     1       4.134   6.427  19.550  0.00  0.00    +0.000 HD
ENDROOT
BRANCH   1   9
ATOM      5  C   UNL     1       4.559   3.798  17.691  0.00  0.00    +0.000 A 
ATOM      6  N   UNL     1       4.333   2.448  17.952  0.00  0.00    +0.000 NA
ATOM      7  C   UNL     1       3.612   2.334  19.048  0.00  0.00    +0.000 A 
ATOM      8  S   UNL     1       3.226   3.794  19.862  0.00  0.00    +0.000 S 
ATOM      9  C   UNL     1       3.957   4.656  18.590  0.00  0.00    +0.000 A 
BRANCH   5  15
ATOM     10  C   UNL     1       7.585   4.646  17.919  0.00  0.00    +0.000 C 
ATOM     11  N   UNL     1       6.769   4.650  16.734  0.00  0.00    +0.000 N 
ATOM     12  N   UNL     1       7.291   5.047  15.554  0.00  0.00    +0.000 NA
ATOM     13  C   UNL     1       6.269   4.821  14.727  0.00  0.00    +0.000 A 
ATOM     14  N   UNL     1       5.140   4.327  15.312  0.00  0.00    +0.000 NA
ATOM     15  C   UNL     1       5.472   4.229  16.587  0.00  0.00    +0.000 A 
ENDBRANCH   5  15
ENDBRANCH   1   9
BRANCH   2  16
ATOM     16  C   UNL     1       2.580   8.093  18.427  0.00  0.00    +0.000 C 
BRANCH  16  17
ATOM     17  C   UNL     1       1.629   8.487  19.544  0.00  0.00    +0.000 A 
ATOM     18  C   UNL     1       1.539   7.631  20.659  0.00  0.00    +0.000 A 
ATOM     19  C   UNL     1       0.693   7.918  21.727  0.00  0.00    +0.000 A 
ATOM     20  C   UNL     1      -0.069   9.086  21.705  0.00  0.00    +0.000 A 
ATOM     21  C   UNL     1       0.006   9.967  20.617  0.00  0.00    +0.000 A 
ATOM     22  C   UNL     1      -0.735  11.152  20.599  0.00  0.00    +0.000 A 
ATOM     23  N   UNL     1      -0.715  12.061  19.601  0.00  0.00    +0.000 NA
ATOM     24  C   UNL     1       0.082  11.773  18.555  0.00  0.00    +0.000 A 
ATOM     25  C   UNL     1       0.858  10.624  18.464  0.00  0.00    +0.000 A 
ATOM     26  C   UNL     1       0.848   9.684  19.515  0.00  0.00    +0.000 A 
ENDBRANCH  16  17
ENDBRANCH   2  16
TORSDOF 4
ENDMDL
