MODEL 1
REMARK VINA RESULT:      -7.4      0.000      0.000
REMARK  Name = 
REMARK  4 active torsions:
REMARK  status: ('A' for Active; 'I' for Inactive)
REMARK    1  A    between atoms: C_2  and  C_3
REMARK    2  A    between atoms: C_6  and  O_7
REMARK    3  A    between atoms: O_7  and  C_8
REMARK    4  A    between atoms: C_17  and  C_18
REMARK                            x       y       z     vdW  Elec       q    Type
REMARK                         _______ _______ _______ _____ _____    ______ ____
ROOT
ATOM      1  C   UNL     1       5.462   4.109  18.106  0.00  0.00    +0.000 A 
ATOM      2  N   UNL     1       4.882   4.228  19.326  0.00  0.00    +0.000 NA
ATOM      3  C   UNL     1       3.554   4.065  19.422  0.00  0.00    +0.000 A 
ATOM      4  C   UNL     1       2.942   4.232  20.656  0.00  0.00    +0.000 A 
ATOM      5  C   UNL     1       1.562   4.084  20.813  0.00  0.00    +0.000 A 
ATOM      6  C   UNL     1       0.771   3.759  19.716  0.00  0.00    +0.000 A 
ATOM      7  C   UNL     1       1.362   3.587  18.466  0.00  0.00    +0.000 A 
ATOM      8  C   UNL     1       2.750   3.740  18.310  0.00  0.00    +0.000 A 
ATOM      9  C   UNL     1       3.378   3.582  17.067  0.00  0.00    +0.000 A 
ATOM     10  C   UNL     1       4.757   3.765  16.964  0.00  0.00    +0.000 A 
ENDROOT
BRANCH  10  11
ATOM     11  C   UNL     1       5.430   3.608  15.664  0.00  0.00    +0.000 C 
ATOM     12  O   UNL     1       5.205   4.373  14.733  0.00  0.00    +0.000 OA
ENDBRANCH  10  11
BRANCH   1  13
ATOM     13  O   UNL     1       6.833   4.298  18.007  0.00  0.00    +0.000 OA
BRANCH  13  17
ATOM     14  C   UNL     1       8.145   8.262  18.134  0.00  0.00    +0.000 A 
ATOM     15  C   UNL     1       7.375   7.782  17.069  0.00  0.00    +0.000 A 
ATOM     16  C   UNL     1       6.968   6.444  17.046  0.00  0.00    +0.000 A 
ATOM     17  C   UNL     1       7.333   5.579  18.082  0.00  0.00    +0.000 A 
ATOM     18  C   UNL     1       8.084   6.068  19.157  0.00  0.00    +0.000 A 
ATOM     19  C   UNL     1       8.503   7.400  19.175  0.00  0.00    +0.000 A 
BRANCH  14  21
ATOM     20  N   UNL     1       8.886  10.747  18.206  0.00  0.00    +0.000 NA
ATOM     21  C   UNL     1       8.549   9.636  18.171  0.00  0.00    +0.000 C 
ENDBRANCH  14  21
ENDBRANCH  13  17
ENDBRANCH   1  13
TORSDOF 4
ENDMDL
MODEL 2
REMARK VINA RESULT:      -7.3      0.239      1.080
REMARK  Name = 
REMARK  4 active torsions:
REMARK  status: ('A' for Active; 'I' for Inactive)
REMARK    1  A    between atoms: C_2  and  C_3
REMARK    2  A    between atoms: C_6  and  O_7
REMARK    3  A    between atoms: O_7  and  C_8
REMARK    4  A    between atoms: C_17  and  C_18
REMARK                            x       y       z     vdW  Elec       q    Type
REMARK                         _______ _______ _______ _____ _____    ______ ____
ROOT
ATOM      1  C   UNL     1       5.372   4.143  18.190  0.00  0.00    +0.000 A 
ATOM      2  N   UNL     1       4.712   4.184  19.375  0.00  0.00    +0.000 NA
ATOM      3  C   UNL     1       3.395   3.926  19.382  0.00  0.00    +0.000 A 
ATOM      4  C   UNL     1       2.698   4.013  20.579  0.00  0.00    +0.000 A 
ATOM      5  C   UNL     1       1.325   3.765  20.645  0.00  0.00    +0.000 A 
ATOM      6  C   UNL     1       0.628   3.419  19.492  0.00  0.00    +0.000 A 
ATOM      7  C   UNL     1       1.304   3.327  18.277  0.00  0.00    +0.000 A 
ATOM      8  C   UNL     1       2.685   3.580  18.214  0.00  0.00    +0.000 A 
ATOM      9  C   UNL     1       3.397   3.505  17.009  0.00  0.00    +0.000 A 
ATOM     10  C   UNL     1       4.763   3.785  16.997  0.00  0.00    +0.000 A 
ENDROOT
BRANCH  10  11
ATOM     11  C   UNL     1       5.524   3.716  15.739  0.00  0.00    +0.000 C 
ATOM     12  O   UNL     1       5.075   4.176  14.695  0.00  0.00    +0.000 OA
ENDBRANCH  10  11
BRANCH   1  13
ATOM     13  O   UNL     1       6.729   4.429  18.183  0.00  0.00    +0.000 OA
BRANCH  13  17
ATOM     14  C   UNL     1       8.153   8.357  18.183  0.00  0.00    +0.000 A 
ATOM     15  C   UNL     1       8.530   7.444  19.174  0.00  0.00    +0.000 A 
ATOM     16  C   UNL     1       8.019   6.142  19.157  0.00  0.00    +0.000 A 
ATOM     17  C   UNL     1       7.128   5.747  18.155  0.00  0.00    +0.000 A 
ATOM     18  C   UNL     1       6.772   6.655  17.152  0.00  0.00    +0.000 A 
ATOM     19  C   UNL     1       7.269   7.960  17.175  0.00  0.00    +0.000 A 
BRANCH  14  21
ATOM     20  N   UNL     1       9.111  10.767  18.182  0.00  0.00    +0.000 NA
ATOM     21  C   UNL     1       8.687   9.686  18.185  0.00  0.00    +0.000 C 
ENDBRANCH  14  21
ENDBRANCH  13  17
ENDBRANCH   1  13
TORSDOF 4
ENDMDL
MODEL 3
REMARK VINA RESULT:      -7.2      4.139      5.866
REMARK  Name = 
REMARK  4 active torsions:
REMARK  status: ('A' for Active; 'I' for Inactive)
REMARK    1  A    between atoms: C_2  and  C_3
REMARK    2  A    between atoms: C_6  and  O_7
REMARK    3  A    between atoms: O_7  and  C_8
REMARK    4  A    between atoms: C_17  and  C_18
REMARK                            x       y       z     vdW  Elec       q    Type
REMARK                         _______ _______ _______ _____ _____    ______ ____
ROOT
ATOM      1  C   UNL     1       3.463   5.616  18.636  0.00  0.00    +0.000 A 
ATOM      2  N   UNL     1       4.643   6.115  18.190  0.00  0.00    +0.000 NA
ATOM      3  C   UNL     1       5.277   5.471  17.198  0.00  0.00    +0.000 A 
ATOM      4  C   UNL     1       6.507   5.943  16.766  0.00  0.00    +0.000 A 
ATOM      5  C   UNL     1       7.216   5.308  15.744  0.00  0.00    +0.000 A 
ATOM      6  C   UNL     1       6.686   4.175  15.134  0.00  0.00    +0.000 A 
ATOM      7  C   UNL     1       5.452   3.681  15.551  0.00  0.00    +0.000 A 
ATOM      8  C   UNL     1       4.743   4.321  16.582  0.00  0.00    +0.000 A 
ATOM      9  C   UNL     1       3.503   3.847  17.032  0.00  0.00    +0.000 A 
ATOM     10  C   UNL     1       2.850   4.508  18.072  0.00  0.00    +0.000 A 
ENDROOT
BRANCH  10  11
ATOM     11  C   UNL     1       1.550   4.020  18.560  0.00  0.00    +0.000 C 
ATOM     12  O   UNL     1       1.027   3.016  18.089  0.00  0.00    +0.000 OA
ENDBRANCH  10  11
BRANCH   1  13
ATOM     13  O   UNL     1       2.821   6.273  19.675  0.00  0.00    +0.000 OA
BRANCH  13  17
ATOM     14  C   UNL     1       0.880   9.924  19.076  0.00  0.00    +0.000 A 
ATOM     15  C   UNL     1       0.903   9.308  20.331  0.00  0.00    +0.000 A 
ATOM     16  C   UNL     1       1.544   8.075  20.494  0.00  0.00    +0.000 A 
ATOM     17  C   UNL     1       2.160   7.452  19.405  0.00  0.00    +0.000 A 
ATOM     18  C   UNL     1       2.155   8.081  18.156  0.00  0.00    +0.000 A 
ATOM     19  C   UNL     1       1.503   9.305  17.988  0.00  0.00    +0.000 A 
BRANCH  14  21
ATOM     20  N   UNL     1      -0.284  12.223  18.778  0.00  0.00    +0.000 NA
ATOM     21  C   UNL     1       0.241  11.195  18.907  0.00  0.00    +0.000 C 
ENDBRANCH  14  21
ENDBRANCH  13  17
ENDBRANCH   1  13
TORSDOF 4
ENDMDL
MODEL 4
REMARK VINA RESULT:      -7.2      3.284      4.665
REMARK  Name = 
REMARK  4 active torsions:
REMARK  status: ('A' for Active; 'I' for Inactive)
REMARK    1  A    between atoms: C_2  and  C_3
REMARK    2  A    between atoms: C_6  and  O_7
REMARK    3  A    between atoms: O_7  and  C_8
REMARK    4  A    between atoms: C_17  and  C_18
REMARK                            x       y       z     vdW  Elec       q    Type
REMARK                         _______ _______ _______ _____ _____    ______ ____
ROOT
ATOM      1  C   UNL     1       3.267   4.749  19.158  0.00  0.00    +0.000 A 
ATOM      2  N   UNL     1       3.187   5.944  18.521  0.00  0.00    +0.000 NA
ATOM      3  C   UNL     1       2.466   6.924  19.088  0.00  0.00    +0.000 A 
ATOM      4  C   UNL     1       2.336   8.134  18.424  0.00  0.00    +0.000 A 
ATOM      5  C   UNL     1       1.590   9.186  18.961  0.00  0.00    +0.000 A 
ATOM      6  C   UNL     1       0.959   9.030  20.191  0.00  0.00    +0.000 A 
ATOM      7  C   UNL     1       1.074   7.823  20.877  0.00  0.00    +0.000 A 
ATOM      8  C   UNL     1       1.822   6.766  20.333  0.00  0.00    +0.000 A 
ATOM      9  C   UNL     1       1.953   5.535  20.990  0.00  0.00    +0.000 A 
ATOM     10  C   UNL     1       2.691   4.512  20.396  0.00  0.00    +0.000 A 
ENDROOT
BRANCH  10  11
ATOM     11  C   UNL     1       2.833   3.211  21.072  0.00  0.00    +0.000 C 
ATOM     12  O   UNL     1       2.129   2.910  22.029  0.00  0.00    +0.000 OA
ENDBRANCH  10  11
BRANCH   1  13
ATOM     13  O   UNL     1       3.997   3.732  18.561  0.00  0.00    +0.000 OA
BRANCH  13  17
ATOM     14  C   UNL     1       6.565   4.800  15.443  0.00  0.00    +0.000 A 
ATOM     15  C   UNL     1       5.282   4.302  15.193  0.00  0.00    +0.000 A 
ATOM     16  C   UNL     1       4.454   3.933  16.259  0.00  0.00    +0.000 A 
ATOM     17  C   UNL     1       4.904   4.057  17.576  0.00  0.00    +0.000 A 
ATOM     18  C   UNL     1       6.179   4.578  17.824  0.00  0.00    +0.000 A 
ATOM     19  C   UNL     1       7.013   4.933  16.761  0.00  0.00    +0.000 A 
BRANCH  14  21
ATOM     20  N   UNL     1       8.098   5.506  13.473  0.00  0.00    +0.000 NA
ATOM     21  C   UNL     1       7.410   5.196  14.357  0.00  0.00    +0.000 C 
ENDBRANCH  14  21
ENDBRANCH  13  17
ENDBRANCH   1  13
TORSDOF 4
ENDMDL
MODEL 5
REMARK VINA RESULT:      -7.2      3.164      4.646
REMARK  Name = 
REMARK  4 active torsions:
REMARK  status: ('A' for Active; 'I' for Inactive)
REMARK    1  A    between atoms: C_2  and  C_3
REMARK    2  A    between atoms: C_6  and  O_7
REMARK    3  A    between atoms: O_7  and  C_8
REMARK    4  A    between atoms: C_17  and  C_18
REMARK                            x       y       z     vdW  Elec       q    Type
REMARK                         _______ _______ _______ _____ _____    ______ ____
ROOT
ATOM      1  C   UNL     1       3.427   4.565  19.041  0.00  0.00    +0.000 A 
ATOM      2  N   UNL     1       3.295   5.809  18.517  0.00  0.00    +0.000 NA
ATOM      3  C   UNL     1       2.541   6.704  19.175  0.00  0.00    +0.000 A 
ATOM      4  C   UNL     1       2.358   7.964  18.626  0.00  0.00    +0.000 A 
ATOM      5  C   UNL     1       1.576   8.932  19.262  0.00  0.00    +0.000 A 
ATOM      6  C   UNL     1       0.964   8.639  20.475  0.00  0.00    +0.000 A 
ATOM      7  C   UNL     1       1.131   7.380  21.048  0.00  0.00    +0.000 A 
ATOM      8  C   UNL     1       1.916   6.407  20.404  0.00  0.00    +0.000 A 
ATOM      9  C   UNL     1       2.100   5.128  20.945  0.00  0.00    +0.000 A 
ATOM     10  C   UNL     1       2.873   4.193  20.256  0.00  0.00    +0.000 A 
ENDROOT
BRANCH  10  11
ATOM     11  C   UNL     1       3.071   2.843  20.808  0.00  0.00    +0.000 C 
ATOM     12  O   UNL     1       2.746   2.570  21.958  0.00  0.00    +0.000 OA
ENDBRANCH  10  11
BRANCH   1  13
ATOM     13  O   UNL     1       4.191   3.637  18.348  0.00  0.00    +0.000 OA
BRANCH  13  17
ATOM     14  C   UNL     1       6.664   4.846  15.206  0.00  0.00    +0.000 A 
ATOM     15  C   UNL     1       7.102   4.881  16.534  0.00  0.00    +0.000 A 
ATOM     16  C   UNL     1       6.242   4.488  17.566  0.00  0.00    +0.000 A 
ATOM     17  C   UNL     1       4.942   4.065  17.276  0.00  0.00    +0.000 A 
ATOM     18  C   UNL     1       4.515   4.009  15.945  0.00  0.00    +0.000 A 
ATOM     19  C   UNL     1       5.367   4.414  14.915  0.00  0.00    +0.000 A 
BRANCH  14  21
ATOM     20  N   UNL     1       8.269   5.535  13.288  0.00  0.00    +0.000 NA
ATOM     21  C   UNL     1       7.546   5.229  14.145  0.00  0.00    +0.000 C 
ENDBRANCH  14  21
ENDBRANCH  13  17
ENDBRANCH   1  13
TORSDOF 4
ENDMDL
MODEL 6
REMARK VINA RESULT:      -7.1      2.898      4.335
REMARK  Name = 
REMARK  4 active torsions:
REMARK  status: ('A' for Active; 'I' for Inactive)
REMARK    1  A    between atoms: C_2  and  C_3
REMARK    2  A    between atoms: C_6  and  O_7
REMARK    3  A    between atoms: O_7  and  C_8
REMARK    4  A    between atoms: C_17  and  C_18
REMARK                            x       y       z     vdW  Elec       q    Type
REMARK                         _______ _______ _______ _____ _____    ______ ____
ROOT
ATOM      1  C   UNL     1       4.419   5.673  18.503  0.00  0.00    +0.000 A 
ATOM      2  N   UNL     1       4.502   4.452  19.089  0.00  0.00    +0.000 NA
ATOM      3  C   UNL     1       3.457   4.016  19.808  0.00  0.00    +0.000 A 
ATOM      4  C   UNL     1       3.547   2.791  20.454  0.00  0.00    +0.000 A 
ATOM      5  C   UNL     1       2.494   2.291  21.224  0.00  0.00    +0.000 A 
ATOM      6  C   UNL     1       1.321   3.027  21.354  0.00  0.00    +0.000 A 
ATOM      7  C   UNL     1       1.206   4.261  20.716  0.00  0.00    +0.000 A 
ATOM      8  C   UNL     1       2.268   4.763  19.945  0.00  0.00    +0.000 A 
ATOM      9  C   UNL     1       2.191   6.003  19.296  0.00  0.00    +0.000 A 
ATOM     10  C   UNL     1       3.282   6.463  18.559  0.00  0.00    +0.000 A 
ENDROOT
BRANCH  10  11
ATOM     11  C   UNL     1       3.219   7.766  17.877  0.00  0.00    +0.000 C 
ATOM     12  O   UNL     1       2.147   8.270  17.562  0.00  0.00    +0.000 OA
ENDBRANCH  10  11
BRANCH   1  13
ATOM     13  O   UNL     1       5.509   6.129  17.776  0.00  0.00    +0.000 OA
BRANCH  13  17
ATOM     14  C   UNL     1       6.283   4.265  14.118  0.00  0.00    +0.000 A 
ATOM     15  C   UNL     1       4.996   4.294  14.664  0.00  0.00    +0.000 A 
ATOM     16  C   UNL     1       4.773   4.908  15.901  0.00  0.00    +0.000 A 
ATOM     17  C   UNL     1       5.834   5.492  16.598  0.00  0.00    +0.000 A 
ATOM     18  C   UNL     1       7.117   5.482  16.039  0.00  0.00    +0.000 A 
ATOM     19  C   UNL     1       7.344   4.856  14.811  0.00  0.00    +0.000 A 
BRANCH  14  21
ATOM     20  N   UNL     1       6.696   3.148  11.814  0.00  0.00    +0.000 NA
ATOM     21  C   UNL     1       6.513   3.653  12.843  0.00  0.00    +0.000 C 
ENDBRANCH  14  21
ENDBRANCH  13  17
ENDBRANCH   1  13
TORSDOF 4
ENDMDL
MODEL 7
REMARK VINA RESULT:      -7.0      4.072      5.745
REMARK  Name = 
REMARK  4 active torsions:
REMARK  status: ('A' for Active; 'I' for Inactive)
REMARK    1  A    between atoms: C_2  and  C_3
REMARK    2  A    between atoms: C_6  and  O_7
REMARK    3  A    between atoms: O_7  and  C_8
REMARK    4  A    between atoms: C_17  and  C_18
REMARK                            x       y       z     vdW  Elec       q    Type
REMARK                         _______ _______ _______ _____ _____    ______ ____
ROOT
ATOM      1  C   UNL     1       3.362   5.523  18.774  0.00  0.00    +0.000 A 
ATOM      2  N   UNL     1       4.559   6.058  18.424  0.00  0.00    +0.000 NA
ATOM      3  C   UNL     1       5.241   5.493  17.416  0.00  0.00    +0.000 A 
ATOM      4  C   UNL     1       6.488   5.999  17.080  0.00  0.00    +0.000 A 
ATOM      5  C   UNL     1       7.247   5.445  16.046  0.00  0.00    +0.000 A 
ATOM      6  C   UNL     1       6.753   4.361  15.328  0.00  0.00    +0.000 A 
ATOM      7  C   UNL     1       5.503   3.834  15.647  0.00  0.00    +0.000 A 
ATOM      8  C   UNL     1       4.743   4.391  16.690  0.00  0.00    +0.000 A 
ATOM      9  C   UNL     1       3.487   3.882  17.044  0.00  0.00    +0.000 A 
ATOM     10  C   UNL     1       2.782   4.460  18.100  0.00  0.00    +0.000 A 
ENDROOT
BRANCH  10  11
ATOM     11  C   UNL     1       1.463   3.933  18.488  0.00  0.00    +0.000 C 
ATOM     12  O   UNL     1       1.080   2.832  18.110  0.00  0.00    +0.000 OA
ENDBRANCH  10  11
BRANCH   1  13
ATOM     13  O   UNL     1       2.668   6.097  19.829  0.00  0.00    +0.000 OA
BRANCH  13  17
ATOM     14  C   UNL     1       0.975   9.848  19.109  0.00  0.00    +0.000 A 
ATOM     15  C   UNL     1       1.583   9.114  18.086  0.00  0.00    +0.000 A 
ATOM     16  C   UNL     1       2.159   7.870  18.364  0.00  0.00    +0.000 A 
ATOM     17  C   UNL     1       2.134   7.357  19.664  0.00  0.00    +0.000 A 
ATOM     18  C   UNL     1       1.505   8.083  20.680  0.00  0.00    +0.000 A 
ATOM     19  C   UNL     1       0.942   9.332  20.408  0.00  0.00    +0.000 A 
BRANCH  14  21
ATOM     20  N   UNL     1      -0.134  12.138  18.601  0.00  0.00    +0.000 NA
ATOM     21  C   UNL     1       0.367  11.115  18.827  0.00  0.00    +0.000 C 
ENDBRANCH  14  21
ENDBRANCH  13  17
ENDBRANCH   1  13
TORSDOF 4
ENDMDL
MODEL 8
REMARK VINA RESULT:      -7.0      2.897      4.364
REMARK  Name = 
REMARK  4 active torsions:
REMARK  status: ('A' for Active; 'I' for Inactive)
REMARK    1  A    between atoms: C_2  and  C_3
REMARK    2  A    between atoms: C_6  and  O_7
REMARK    3  A    between atoms: O_7  and  C_8
REMARK    4  A    between atoms: C_17  and  C_18
REMARK                            x       y       z     vdW  Elec       q    Type
REMARK                         _______ _______ _______ _____ _____    ______ ____
ROOT
ATOM      1  C   UNL     1       4.469   5.417  18.551  0.00  0.00    +0.000 A 
ATOM      2  N   UNL     1       4.502   4.228  19.203  0.00  0.00    +0.000 NA
ATOM      3  C   UNL     1       3.421   3.853  19.905  0.00  0.00    +0.000 A 
ATOM      4  C   UNL     1       3.460   2.664  20.617  0.00  0.00    +0.000 A 
ATOM      5  C   UNL     1       2.368   2.228  21.372  0.00  0.00    +0.000 A 
ATOM      6  C   UNL     1       1.209   2.995  21.420  0.00  0.00    +0.000 A 
ATOM      7  C   UNL     1       1.146   4.195  20.715  0.00  0.00    +0.000 A 
ATOM      8  C   UNL     1       2.247   4.632  19.958  0.00  0.00    +0.000 A 
ATOM      9  C   UNL     1       2.222   5.837  19.243  0.00  0.00    +0.000 A 
ATOM     10  C   UNL     1       3.349   6.234  18.523  0.00  0.00    +0.000 A 
ENDROOT
BRANCH  10  11
ATOM     11  C   UNL     1       3.341   7.500  17.772  0.00  0.00    +0.000 C 
ATOM     12  O   UNL     1       2.631   8.439  18.112  0.00  0.00    +0.000 OA
ENDBRANCH  10  11
BRANCH   1  13
ATOM     13  O   UNL     1       5.594   5.811  17.842  0.00  0.00    +0.000 OA
BRANCH  13  17
ATOM     14  C   UNL     1       6.380   4.278  14.036  0.00  0.00    +0.000 A 
ATOM     15  C   UNL     1       7.353   4.978  14.755  0.00  0.00    +0.000 A 
ATOM     16  C   UNL     1       7.053   5.497  16.019  0.00  0.00    +0.000 A 
ATOM     17  C   UNL     1       5.779   5.323  16.567  0.00  0.00    +0.000 A 
ATOM     18  C   UNL     1       4.814   4.602  15.855  0.00  0.00    +0.000 A 
ATOM     19  C   UNL     1       5.107   4.096  14.586  0.00  0.00    +0.000 A 
BRANCH  14  21
ATOM     20  N   UNL     1       6.928   3.286  11.702  0.00  0.00    +0.000 NA
ATOM     21  C   UNL     1       6.688   3.729  12.749  0.00  0.00    +0.000 C 
ENDBRANCH  14  21
ENDBRANCH  13  17
ENDBRANCH   1  13
TORSDOF 4
ENDMDL
MODEL 9
REMARK VINA RESULT:      -6.9      4.147      5.571
REMARK  Name = 
REMARK  4 active torsions:
REMARK  status: ('A' for Active; 'I' for Inactive)
REMARK    1  A    between atoms: C_2  and  C_3
REMARK    2  A    between atoms: C_6  and  O_7
REMARK    3  A    between atoms: O_7  and  C_8
REMARK    4  A    between atoms: C_17  and  C_18
REMARK                            x       y       z     vdW  Elec       q    Type
REMARK                         _______ _______ _______ _____ _____    ______ ____
ROOT
ATOM      1  C   UNL     1       2.913   6.532  17.855  0.00  0.00    +0.000 A 
ATOM      2  N   UNL     1       1.940   5.680  18.262  0.00  0.00    +0.000 NA
ATOM      3  C   UNL     1       2.209   4.365  18.285  0.00  0.00    +0.000 A 
ATOM      4  C   UNL     1       1.207   3.479  18.653  0.00  0.00    +0.000 A 
ATOM      5  C   UNL     1       1.427   2.100  18.685  0.00  0.00    +0.000 A 
ATOM      6  C   UNL     1       2.676   1.590  18.345  0.00  0.00    +0.000 A 
ATOM      7  C   UNL     1       3.698   2.459  17.971  0.00  0.00    +0.000 A 
ATOM      8  C   UNL     1       3.473   3.846  17.936  0.00  0.00    +0.000 A 
ATOM      9  C   UNL     1       4.474   4.750  17.557  0.00  0.00    +0.000 A 
ATOM     10  C   UNL     1       4.192   6.116  17.521  0.00  0.00    +0.000 A 
ENDROOT
BRANCH  10  11
ATOM     11  C   UNL     1       5.232   7.077  17.120  0.00  0.00    +0.000 C 
ATOM     12  O   UNL     1       6.092   6.781  16.298  0.00  0.00    +0.000 OA
ENDBRANCH  10  11
BRANCH   1  13
ATOM     13  O   UNL     1       2.626   7.889  17.814  0.00  0.00    +0.000 OA
BRANCH  13  17
ATOM     14  C   UNL     1       0.660   9.511  21.124  0.00  0.00    +0.000 A 
ATOM     15  C   UNL     1       1.379   8.315  21.217  0.00  0.00    +0.000 A 
ATOM     16  C   UNL     1       2.009   7.787  20.085  0.00  0.00    +0.000 A 
ATOM     17  C   UNL     1       1.920   8.448  18.857  0.00  0.00    +0.000 A 
ATOM     18  C   UNL     1       1.219   9.656  18.772  0.00  0.00    +0.000 A 
ATOM     19  C   UNL     1       0.577  10.178  19.898  0.00  0.00    +0.000 A 
BRANCH  14  21
ATOM     20  N   UNL     1      -0.476  10.516  23.229  0.00  0.00    +0.000 NA
ATOM     21  C   UNL     1       0.027  10.066  22.284  0.00  0.00    +0.000 C 
ENDBRANCH  14  21
ENDBRANCH  13  17
ENDBRANCH   1  13
TORSDOF 4
ENDMDL
