MODEL 1
REMARK VINA RESULT:      -8.8      0.000      0.000
REMARK  Name = 
REMARK  8 active torsions:
REMARK  status: ('A' for Active; 'I' for Inactive)
REMARK    1  A    between atoms: C_1  and  C_2
REMARK    2  A    between atoms: C_2  and  C_3
REMARK    3  A    between atoms: C_2  and  C_4
REMARK    4  A    between atoms: C_4  and  C_5
REMARK    5  A    between atoms: CA_9  and  C_10
REMARK    6  A    between atoms: C_10  and  O_11
REMARK    7  A    between atoms: C_14  and  C_16
REMARK    8  A    between atoms: C_18  and  C_19
REMARK                            x       y       z     vdW  Elec       q    Type
REMARK                         _______ _______ _______ _____ _____    ______ ____
ROOT
ATOM      1  C   UNL     1       3.554   4.719  18.734  0.00  0.00    +0.000 C 
ATOM      2  C   UNL     1       4.811   3.879  19.037  0.00  0.00    +0.000 C 
ATOM      3  O   UNL     1       4.874   3.106  19.993  0.00  0.00    +0.000 OA
ATOM      4  N   UNL     1       5.837   3.869  18.128  0.00  0.00    +0.000 N 
ATOM      5  CA  UNL     1       6.052   4.933  17.142  0.00  0.00    +0.000 C 
ATOM      6  C   UNL     1       4.730   5.557  16.691  0.00  0.00    +0.000 C 
ATOM      7  N   UNL     1       3.892   5.876  17.846  0.00  0.00    +0.000 N 
ATOM      8  C   UNL     1       3.259   7.125  17.865  0.00  0.00    +0.000 C 
ATOM      9  O   UNL     1       3.334   7.886  16.895  0.00  0.00    +0.000 OA
ATOM     10  H   UNL     1       6.659   3.410  18.510  0.00  0.00    +0.000 HD
ENDROOT
BRANCH   8  11
ATOM     11  C   UNL     1       2.471   7.528  19.029  0.00  0.00    +0.000 A 
ATOM     12  C   UNL     1       1.818   8.773  19.199  0.00  0.00    +0.000 A 
ATOM     13  C   UNL     1       1.176   8.672  20.409  0.00  0.00    +0.000 A 
ATOM     14  O   UNL     1       1.485   7.471  20.969  0.00  0.00    +0.000 OA
ATOM     15  N   UNL     1       2.327   6.772  20.130  0.00  0.00    +0.000 NA
BRANCH  13  16
ATOM     16  C   UNL     1       0.266   9.528  21.145  0.00  0.00    +0.000 A 
ATOM     17  C   UNL     1      -0.268  10.687  20.559  0.00  0.00    +0.000 A 
ATOM     18  C   UNL     1      -1.056  11.560  21.311  0.00  0.00    +0.000 A 
ATOM     19  C   UNL     1      -1.321  11.271  22.643  0.00  0.00    +0.000 A 
ATOM     20  F   UNL     1      -2.051  12.124  23.372  0.00  0.00    +0.000 F 
ATOM     21  C   UNL     1      -0.831  10.112  23.234  0.00  0.00    +0.000 A 
ATOM     22  C   UNL     1      -0.040   9.241  22.485  0.00  0.00    +0.000 A 
ENDBRANCH  13  16
ENDBRANCH   8  11
BRANCH   1  23
ATOM     23  C   UNL     1       2.438   3.876  18.081  0.00  0.00    +0.000 C 
BRANCH  23  25
ATOM     24  C   UNL     1       0.631   2.142  18.745  0.00  0.00    +0.000 C 
ATOM     25  C   UNL     1       1.184   3.557  18.929  0.00  0.00    +0.000 C 
ATOM     26  C   UNL     1       1.529   3.759  20.411  0.00  0.00    +0.000 C 
ENDBRANCH  23  25
ENDBRANCH   1  23
BRANCH   5  27
ATOM     27  C   UNL     1       6.808   4.389  15.921  0.00  0.00    +0.000 C 
BRANCH  27  28
ATOM     28  O   UNL     1       7.426   5.446  15.192  0.00  0.00    +0.000 OA
ATOM     29  H   UNL     1       7.585   6.172  15.819  0.00  0.00    +0.000 HD
ENDBRANCH  27  28
ENDBRANCH   5  27
TORSDOF 6
ENDMDL
MODEL 2
REMARK VINA RESULT:      -8.6      0.247      1.173
REMARK  Name = 
REMARK  8 active torsions:
REMARK  status: ('A' for Active; 'I' for Inactive)
REMARK    1  A    between atoms: C_1  and  C_2
REMARK    2  A    between atoms: C_2  and  C_3
REMARK    3  A    between atoms: C_2  and  C_4
REMARK    4  A    between atoms: C_4  and  C_5
REMARK    5  A    between atoms: CA_9  and  C_10
REMARK    6  A    between atoms: C_10  and  O_11
REMARK    7  A    between atoms: C_14  and  C_16
REMARK    8  A    between atoms: C_18  and  C_19
REMARK                            x       y       z     vdW  Elec       q    Type
REMARK                         _______ _______ _______ _____ _____    ______ ____
ROOT
ATOM      1  C   UNL     1       3.609   4.762  18.870  0.00  0.00    +0.000 C 
ATOM      2  C   UNL     1       4.919   3.995  19.146  0.00  0.00    +0.000 C 
ATOM      3  O   UNL     1       5.070   3.282  20.138  0.00  0.00    +0.000 OA
ATOM      4  N   UNL     1       5.891   3.975  18.180  0.00  0.00    +0.000 N 
ATOM      5  CA  UNL     1       6.002   4.987  17.125  0.00  0.00    +0.000 C 
ATOM      6  C   UNL     1       4.630   5.528  16.718  0.00  0.00    +0.000 C 
ATOM      7  N   UNL     1       3.845   5.879  17.901  0.00  0.00    +0.000 N 
ATOM      8  C   UNL     1       3.157   7.098  17.886  0.00  0.00    +0.000 C 
ATOM      9  O   UNL     1       3.143   7.804  16.873  0.00  0.00    +0.000 OA
ATOM     10  H   UNL     1       6.753   3.573  18.538  0.00  0.00    +0.000 HD
ENDROOT
BRANCH   8  11
ATOM     11  C   UNL     1       2.419   7.535  19.070  0.00  0.00    +0.000 A 
ATOM     12  C   UNL     1       1.838   8.812  19.262  0.00  0.00    +0.000 A 
ATOM     13  C   UNL     1       1.218   8.738  20.485  0.00  0.00    +0.000 A 
ATOM     14  O   UNL     1       1.475   7.519  21.032  0.00  0.00    +0.000 OA
ATOM     15  N   UNL     1       2.259   6.781  20.170  0.00  0.00    +0.000 NA
BRANCH  13  16
ATOM     16  C   UNL     1       0.372   9.636  21.247  0.00  0.00    +0.000 A 
ATOM     17  C   UNL     1       0.057   9.368  22.589  0.00  0.00    +0.000 A 
ATOM     18  C   UNL     1      -0.844  10.179  23.280  0.00  0.00    +0.000 A 
ATOM     19  C   UNL     1      -1.423  11.265  22.635  0.00  0.00    +0.000 A 
ATOM     20  F   UNL     1      -2.311  12.024  23.288  0.00  0.00    +0.000 F 
ATOM     21  C   UNL     1      -1.101  11.568  21.318  0.00  0.00    +0.000 A 
ATOM     22  C   UNL     1      -0.203  10.756  20.625  0.00  0.00    +0.000 A 
ENDBRANCH  13  16
ENDBRANCH   8  11
BRANCH   1  23
ATOM     23  C   UNL     1       2.498   3.836  18.332  0.00  0.00    +0.000 C 
BRANCH  23  25
ATOM     24  C   UNL     1       1.141   3.667  20.532  0.00  0.00    +0.000 C 
ATOM     25  C   UNL     1       1.761   2.928  19.345  0.00  0.00    +0.000 C 
ATOM     26  C   UNL     1       0.651   2.169  18.606  0.00  0.00    +0.000 C 
ENDBRANCH  23  25
ENDBRANCH   1  23
BRANCH   5  27
ATOM     27  C   UNL     1       6.712   4.405  15.894  0.00  0.00    +0.000 C 
BRANCH  27  28
ATOM     28  O   UNL     1       7.484   5.403  15.232  0.00  0.00    +0.000 OA
ATOM     29  H   UNL     1       8.101   4.942  14.638  0.00  0.00    +0.000 HD
ENDBRANCH  27  28
ENDBRANCH   5  27
TORSDOF 6
ENDMDL
MODEL 3
REMARK VINA RESULT:      -8.1      2.468      4.329
REMARK  Name = 
REMARK  8 active torsions:
REMARK  status: ('A' for Active; 'I' for Inactive)
REMARK    1  A    between atoms: C_1  and  C_2
REMARK    2  A    between atoms: C_2  and  C_3
REMARK    3  A    between atoms: C_2  and  C_4
REMARK    4  A    between atoms: C_4  and  C_5
REMARK    5  A    between atoms: CA_9  and  C_10
REMARK    6  A    between atoms: C_10  and  O_11
REMARK    7  A    between atoms: C_14  and  C_16
REMARK    8  A    between atoms: C_18  and  C_19
REMARK                            x       y       z     vdW  Elec       q    Type
REMARK                         _______ _______ _______ _____ _____    ______ ____
ROOT
ATOM      1  C   UNL     1       4.321   5.622  17.825  0.00  0.00    +0.000 C 
ATOM      2  C   UNL     1       4.513   4.461  16.829  0.00  0.00    +0.000 C 
ATOM      3  O   UNL     1       4.985   4.626  15.704  0.00  0.00    +0.000 OA
ATOM      4  N   UNL     1       4.302   3.176  17.259  0.00  0.00    +0.000 N 
ATOM      5  CA  UNL     1       3.466   2.840  18.416  0.00  0.00    +0.000 C 
ATOM      6  C   UNL     1       3.523   3.931  19.488  0.00  0.00    +0.000 C 
ATOM      7  N   UNL     1       3.333   5.251  18.887  0.00  0.00    +0.000 N 
ATOM      8  C   UNL     1       2.463   6.139  19.531  0.00  0.00    +0.000 C 
ATOM      9  O   UNL     1       1.950   5.846  20.616  0.00  0.00    +0.000 OA
ATOM     10  H   UNL     1       4.309   2.524  16.480  0.00  0.00    +0.000 HD
ENDROOT
BRANCH   8  11
ATOM     11  C   UNL     1       2.176   7.443  18.935  0.00  0.00    +0.000 A 
ATOM     12  C   UNL     1       1.449   8.493  19.546  0.00  0.00    +0.000 A 
ATOM     13  C   UNL     1       1.481   9.520  18.635  0.00  0.00    +0.000 A 
ATOM     14  O   UNL     1       2.121   9.091  17.514  0.00  0.00    +0.000 OA
ATOM     15  N   UNL     1       2.518   7.781  17.681  0.00  0.00    +0.000 NA
BRANCH  13  16
ATOM     16  C   UNL     1       1.024  10.897  18.646  0.00  0.00    +0.000 A 
ATOM     17  C   UNL     1      -0.346  11.201  18.694  0.00  0.00    +0.000 A 
ATOM     18  C   UNL     1      -0.781  12.524  18.595  0.00  0.00    +0.000 A 
ATOM     19  C   UNL     1       0.152  13.544  18.460  0.00  0.00    +0.000 A 
ATOM     20  F   UNL     1      -0.265  14.809  18.334  0.00  0.00    +0.000 F 
ATOM     21  C   UNL     1       1.515  13.268  18.444  0.00  0.00    +0.000 A 
ATOM     22  C   UNL     1       1.950  11.947  18.539  0.00  0.00    +0.000 A 
ENDBRANCH  13  16
ENDBRANCH   8  11
BRANCH   1  23
ATOM     23  C   UNL     1       5.652   6.047  18.483  0.00  0.00    +0.000 C 
BRANCH  23  25
ATOM     24  C   UNL     1       7.732   7.370  17.688  0.00  0.00    +0.000 C 
ATOM     25  C   UNL     1       6.919   6.077  17.596  0.00  0.00    +0.000 C 
ATOM     26  C   UNL     1       7.822   4.901  17.990  0.00  0.00    +0.000 C 
ENDBRANCH  23  25
ENDBRANCH   1  23
BRANCH   5  27
ATOM     27  C   UNL     1       3.903   1.499  19.023  0.00  0.00    +0.000 C 
BRANCH  27  28
ATOM     28  O   UNL     1       5.029   1.672  19.880  0.00  0.00    +0.000 OA
ATOM     29  H   UNL     1       5.655   0.954  19.680  0.00  0.00    +0.000 HD
ENDBRANCH  27  28
ENDBRANCH   5  27
TORSDOF 6
ENDMDL
MODEL 4
REMARK VINA RESULT:      -8.0      5.237      7.531
REMARK  Name = 
REMARK  8 active torsions:
REMARK  status: ('A' for Active; 'I' for Inactive)
REMARK    1  A    between atoms: C_1  and  C_2
REMARK    2  A    between atoms: C_2  and  C_3
REMARK    3  A    between atoms: C_2  and  C_4
REMARK    4  A    between atoms: C_4  and  C_5
REMARK    5  A    between atoms: CA_9  and  C_10
REMARK    6  A    between atoms: C_10  and  O_11
REMARK    7  A    between atoms: C_14  and  C_16
REMARK    8  A    between atoms: C_18  and  C_19
REMARK                            x       y       z     vdW  Elec       q    Type
REMARK                         _______ _______ _______ _____ _____    ______ ____
ROOT
ATOM      1  C   UNL     1       5.065   6.345  17.451  0.00  0.00    +0.000 C 
ATOM      2  C   UNL     1       3.657   6.135  18.047  0.00  0.00    +0.000 C 
ATOM      3  O   UNL     1       2.737   6.932  17.863  0.00  0.00    +0.000 OA
ATOM      4  N   UNL     1       3.370   4.948  18.669  0.00  0.00    +0.000 N 
ATOM      5  CA  UNL     1       4.396   4.064  19.233  0.00  0.00    +0.000 C 
ATOM      6  C   UNL     1       5.699   4.133  18.433  0.00  0.00    +0.000 C 
ATOM      7  N   UNL     1       6.078   5.523  18.187  0.00  0.00    +0.000 N 
ATOM      8  C   UNL     1       7.417   5.878  18.388  0.00  0.00    +0.000 C 
ATOM      9  O   UNL     1       8.261   5.022  18.673  0.00  0.00    +0.000 OA
ATOM     10  H   UNL     1       2.475   4.993  19.148  0.00  0.00    +0.000 HD
ENDROOT
BRANCH   8  11
ATOM     11  C   UNL     1       7.837   7.270  18.231  0.00  0.00    +0.000 A 
ATOM     12  C   UNL     1       8.561   8.031  19.180  0.00  0.00    +0.000 A 
ATOM     13  C   UNL     1       8.762   9.248  18.577  0.00  0.00    +0.000 A 
ATOM     14  O   UNL     1       8.133   9.247  17.371  0.00  0.00    +0.000 OA
ATOM     15  N   UNL     1       7.518   8.030  17.170  0.00  0.00    +0.000 NA
BRANCH  13  16
ATOM     16  C   UNL     1       9.495  10.446  18.937  0.00  0.00    +0.000 A 
ATOM     17  C   UNL     1       9.613  10.845  20.279  0.00  0.00    +0.000 A 
ATOM     18  C   UNL     1      10.225  12.055  20.606  0.00  0.00    +0.000 A 
ATOM     19  C   UNL     1      10.732  12.863  19.596  0.00  0.00    +0.000 A 
ATOM     20  F   UNL     1      11.291  14.038  19.907  0.00  0.00    +0.000 F 
ATOM     21  C   UNL     1      10.656  12.473  18.264  0.00  0.00    +0.000 A 
ATOM     22  C   UNL     1      10.040  11.265  17.935  0.00  0.00    +0.000 A 
ENDBRANCH  13  16
ENDBRANCH   8  11
BRANCH   1  23
ATOM     23  C   UNL     1       5.114   6.002  15.947  0.00  0.00    +0.000 C 
BRANCH  23  25
ATOM     24  C   UNL     1       5.181   3.827  14.543  0.00  0.00    +0.000 C 
ATOM     25  C   UNL     1       5.914   4.749  15.518  0.00  0.00    +0.000 C 
ATOM     26  C   UNL     1       7.227   5.205  14.868  0.00  0.00    +0.000 C 
ENDBRANCH  23  25
ENDBRANCH   1  23
BRANCH   5  27
ATOM     27  C   UNL     1       3.892   2.614  19.273  0.00  0.00    +0.000 C 
BRANCH  27  28
ATOM     28  O   UNL     1       4.908   1.735  19.747  0.00  0.00    +0.000 OA
ATOM     29  H   UNL     1       5.450   2.238  20.380  0.00  0.00    +0.000 HD
ENDBRANCH  27  28
ENDBRANCH   5  27
TORSDOF 6
ENDMDL
MODEL 5
REMARK VINA RESULT:      -7.9      4.858      9.025
REMARK  Name = 
REMARK  8 active torsions:
REMARK  status: ('A' for Active; 'I' for Inactive)
REMARK    1  A    between atoms: C_1  and  C_2
REMARK    2  A    between atoms: C_2  and  C_3
REMARK    3  A    between atoms: C_2  and  C_4
REMARK    4  A    between atoms: C_4  and  C_5
REMARK    5  A    between atoms: CA_9  and  C_10
REMARK    6  A    between atoms: C_10  and  O_11
REMARK    7  A    between atoms: C_14  and  C_16
REMARK    8  A    between atoms: C_18  and  C_19
REMARK                            x       y       z     vdW  Elec       q    Type
REMARK                         _______ _______ _______ _____ _____    ______ ____
ROOT
ATOM      1  C   UNL     1       5.084   4.622  18.702  0.00  0.00    +0.000 C 
ATOM      2  C   UNL     1       4.357   3.549  19.539  0.00  0.00    +0.000 C 
ATOM      3  O   UNL     1       4.822   2.423  19.717  0.00  0.00    +0.000 OA
ATOM      4  N   UNL     1       3.234   3.903  20.241  0.00  0.00    +0.000 N 
ATOM      5  CA  UNL     1       2.401   5.061  19.900  0.00  0.00    +0.000 C 
ATOM      6  C   UNL     1       3.235   6.197  19.303  0.00  0.00    +0.000 C 
ATOM      7  N   UNL     1       4.127   5.687  18.263  0.00  0.00    +0.000 N 
ATOM      8  C   UNL     1       4.214   6.411  17.068  0.00  0.00    +0.000 C 
ATOM      9  O   UNL     1       3.627   7.490  16.939  0.00  0.00    +0.000 OA
ATOM     10  H   UNL     1       2.767   3.085  20.620  0.00  0.00    +0.000 HD
ENDROOT
BRANCH   8  11
ATOM     11  C   UNL     1       5.032   5.908  15.965  0.00  0.00    +0.000 A 
ATOM     12  C   UNL     1       4.776   4.739  15.207  0.00  0.00    +0.000 A 
ATOM     13  C   UNL     1       5.775   4.703  14.266  0.00  0.00    +0.000 A 
ATOM     14  O   UNL     1       6.624   5.741  14.491  0.00  0.00    +0.000 OA
ATOM     15  N   UNL     1       6.188   6.470  15.576  0.00  0.00    +0.000 NA
BRANCH  13  16
ATOM     16  C   UNL     1       6.066   3.847  13.132  0.00  0.00    +0.000 A 
ATOM     17  C   UNL     1       5.065   3.049  12.554  0.00  0.00    +0.000 A 
ATOM     18  C   UNL     1       5.378   2.149  11.535  0.00  0.00    +0.000 A 
ATOM     19  C   UNL     1       6.688   2.054  11.084  0.00  0.00    +0.000 A 
ATOM     20  F   UNL     1       6.995   1.169  10.128  0.00  0.00    +0.000 F 
ATOM     21  C   UNL     1       7.689   2.857  11.618  0.00  0.00    +0.000 A 
ATOM     22  C   UNL     1       7.377   3.754  12.640  0.00  0.00    +0.000 A 
ENDBRANCH  13  16
ENDBRANCH   8  11
BRANCH   1  23
ATOM     23  C   UNL     1       6.254   5.265  19.476  0.00  0.00    +0.000 C 
BRANCH  23  25
ATOM     24  C   UNL     1       7.780   4.426  17.559  0.00  0.00    +0.000 C 
ATOM     25  C   UNL     1       7.629   5.346  18.771  0.00  0.00    +0.000 C 
ATOM     26  C   UNL     1       7.864   6.794  18.321  0.00  0.00    +0.000 C 
ENDBRANCH  23  25
ENDBRANCH   1  23
BRANCH   5  27
ATOM     27  C   UNL     1       1.653   5.569  21.141  0.00  0.00    +0.000 C 
BRANCH  27  28
ATOM     28  O   UNL     1       1.651   6.993  21.187  0.00  0.00    +0.000 OA
ATOM     29  H   UNL     1       0.730   7.274  21.328  0.00  0.00    +0.000 HD
ENDBRANCH  27  28
ENDBRANCH   5  27
TORSDOF 6
ENDMDL
MODEL 6
REMARK VINA RESULT:      -7.9      5.224      7.559
REMARK  Name = 
REMARK  8 active torsions:
REMARK  status: ('A' for Active; 'I' for Inactive)
REMARK    1  A    between atoms: C_1  and  C_2
REMARK    2  A    between atoms: C_2  and  C_3
REMARK    3  A    between atoms: C_2  and  C_4
REMARK    4  A    between atoms: C_4  and  C_5
REMARK    5  A    between atoms: CA_9  and  C_10
REMARK    6  A    between atoms: C_10  and  O_11
REMARK    7  A    between atoms: C_14  and  C_16
REMARK    8  A    between atoms: C_18  and  C_19
REMARK                            x       y       z     vdW  Elec       q    Type
REMARK                         _______ _______ _______ _____ _____    ______ ____
ROOT
ATOM      1  C   UNL     1       5.006   6.274  17.354  0.00  0.00    +0.000 C 
ATOM      2  C   UNL     1       3.596   6.075  17.948  0.00  0.00    +0.000 C 
ATOM      3  O   UNL     1       2.683   6.879  17.764  0.00  0.00    +0.000 OA
ATOM      4  N   UNL     1       3.298   4.889  18.567  0.00  0.00    +0.000 N 
ATOM      5  CA  UNL     1       4.316   3.995  19.130  0.00  0.00    +0.000 C 
ATOM      6  C   UNL     1       5.620   4.054  18.332  0.00  0.00    +0.000 C 
ATOM      7  N   UNL     1       6.011   5.442  18.090  0.00  0.00    +0.000 N 
ATOM      8  C   UNL     1       7.353   5.784  18.293  0.00  0.00    +0.000 C 
ATOM      9  O   UNL     1       8.189   4.921  18.577  0.00  0.00    +0.000 OA
ATOM     10  H   UNL     1       2.403   4.941  19.045  0.00  0.00    +0.000 HD
ENDROOT
BRANCH   8  11
ATOM     11  C   UNL     1       7.785   7.173  18.140  0.00  0.00    +0.000 A 
ATOM     12  C   UNL     1       8.473   7.941  19.110  0.00  0.00    +0.000 A 
ATOM     13  C   UNL     1       8.704   9.150  18.503  0.00  0.00    +0.000 A 
ATOM     14  O   UNL     1       8.125   9.141  17.273  0.00  0.00    +0.000 OA
ATOM     15  N   UNL     1       7.513   7.923  17.059  0.00  0.00    +0.000 NA
BRANCH  13  16
ATOM     16  C   UNL     1       9.427  10.350  18.881  0.00  0.00    +0.000 A 
ATOM     17  C   UNL     1      10.095  11.124  17.918  0.00  0.00    +0.000 A 
ATOM     18  C   UNL     1      10.877  12.213  18.305  0.00  0.00    +0.000 A 
ATOM     19  C   UNL     1      10.983  12.538  19.651  0.00  0.00    +0.000 A 
ATOM     20  F   UNL     1      11.757  13.564  20.025  0.00  0.00    +0.000 F 
ATOM     21  C   UNL     1      10.304  11.806  20.618  0.00  0.00    +0.000 A 
ATOM     22  C   UNL     1       9.526  10.714  20.234  0.00  0.00    +0.000 A 
ENDBRANCH  13  16
ENDBRANCH   8  11
BRANCH   1  23
ATOM     23  C   UNL     1       5.055   5.933  15.850  0.00  0.00    +0.000 C 
BRANCH  23  25
ATOM     24  C   UNL     1       5.215   3.754  14.459  0.00  0.00    +0.000 C 
ATOM     25  C   UNL     1       5.916   4.726  15.410  0.00  0.00    +0.000 C 
ATOM     26  C   UNL     1       7.185   5.251  14.725  0.00  0.00    +0.000 C 
ENDBRANCH  23  25
ENDBRANCH   1  23
BRANCH   5  27
ATOM     27  C   UNL     1       3.799   2.549  19.167  0.00  0.00    +0.000 C 
BRANCH  27  28
ATOM     28  O   UNL     1       2.514   2.484  19.780  0.00  0.00    +0.000 OA
ATOM     29  H   UNL     1       2.457   3.225  20.408  0.00  0.00    +0.000 HD
ENDBRANCH  27  28
ENDBRANCH   5  27
TORSDOF 6
ENDMDL
MODEL 7
REMARK VINA RESULT:      -7.9      4.114      8.865
REMARK  Name = 
REMARK  8 active torsions:
REMARK  status: ('A' for Active; 'I' for Inactive)
REMARK    1  A    between atoms: C_1  and  C_2
REMARK    2  A    between atoms: C_2  and  C_3
REMARK    3  A    between atoms: C_2  and  C_4
REMARK    4  A    between atoms: C_4  and  C_5
REMARK    5  A    between atoms: CA_9  and  C_10
REMARK    6  A    between atoms: C_10  and  O_11
REMARK    7  A    between atoms: C_14  and  C_16
REMARK    8  A    between atoms: C_18  and  C_19
REMARK                            x       y       z     vdW  Elec       q    Type
REMARK                         _______ _______ _______ _____ _____    ______ ____
ROOT
ATOM      1  C   UNL     1      -0.197  10.837  19.057  0.00  0.00    +0.000 C 
ATOM      2  C   UNL     1      -0.272  12.372  19.192  0.00  0.00    +0.000 C 
ATOM      3  O   UNL     1      -0.232  13.123  18.218  0.00  0.00    +0.000 OA
ATOM      4  N   UNL     1      -0.552  12.917  20.418  0.00  0.00    +0.000 N 
ATOM      5  CA  UNL     1      -0.320  12.215  21.685  0.00  0.00    +0.000 C 
ATOM      6  C   UNL     1      -0.513  10.705  21.535  0.00  0.00    +0.000 C 
ATOM      7  N   UNL     1       0.200  10.210  20.357  0.00  0.00    +0.000 N 
ATOM      8  C   UNL     1       0.949   9.036  20.496  0.00  0.00    +0.000 C 
ATOM      9  O   UNL     1       0.930   8.395  21.552  0.00  0.00    +0.000 OA
ATOM     10  H   UNL     1      -0.423  13.924  20.409  0.00  0.00    +0.000 HD
ENDROOT
BRANCH   8  11
ATOM     11  C   UNL     1       1.743   8.538  19.373  0.00  0.00    +0.000 A 
ATOM     12  C   UNL     1       2.434   7.303  19.328  0.00  0.00    +0.000 A 
ATOM     13  C   UNL     1       2.985   7.253  18.072  0.00  0.00    +0.000 A 
ATOM     14  O   UNL     1       2.710   8.419  17.427  0.00  0.00    +0.000 OA
ATOM     15  N   UNL     1       1.971   9.240  18.252  0.00  0.00    +0.000 NA
BRANCH  13  16
ATOM     16  C   UNL     1       3.731   6.252  17.334  0.00  0.00    +0.000 A 
ATOM     17  C   UNL     1       3.511   4.882  17.551  0.00  0.00    +0.000 A 
ATOM     18  C   UNL     1       4.307   3.929  16.916  0.00  0.00    +0.000 A 
ATOM     19  C   UNL     1       5.316   4.341  16.055  0.00  0.00    +0.000 A 
ATOM     20  F   UNL     1       6.100   3.428  15.470  0.00  0.00    +0.000 F 
ATOM     21  C   UNL     1       5.531   5.690  15.800  0.00  0.00    +0.000 A 
ATOM     22  C   UNL     1       4.738   6.645  16.437  0.00  0.00    +0.000 A 
ENDBRANCH  13  16
ENDBRANCH   8  11
BRANCH   1  23
ATOM     23  C   UNL     1      -1.533  10.232  18.577  0.00  0.00    +0.000 C 
BRANCH  23  25
ATOM     24  C   UNL     1      -2.488   9.923  16.189  0.00  0.00    +0.000 C 
ATOM     25  C   UNL     1      -2.222  10.880  17.353  0.00  0.00    +0.000 C 
ATOM     26  C   UNL     1      -3.558  11.484  17.805  0.00  0.00    +0.000 C 
ENDBRANCH  23  25
ENDBRANCH   1  23
BRANCH   5  27
ATOM     27  C   UNL     1      -1.261  12.749  22.775  0.00  0.00    +0.000 C 
BRANCH  27  28
ATOM     28  O   UNL     1      -0.620  13.758  23.550  0.00  0.00    +0.000 OA
ATOM     29  H   UNL     1       0.181  13.361  23.932  0.00  0.00    +0.000 HD
ENDBRANCH  27  28
ENDBRANCH   5  27
TORSDOF 6
ENDMDL
MODEL 8
REMARK VINA RESULT:      -7.9      4.478      6.786
REMARK  Name = 
REMARK  8 active torsions:
REMARK  status: ('A' for Active; 'I' for Inactive)
REMARK    1  A    between atoms: C_1  and  C_2
REMARK    2  A    between atoms: C_2  and  C_3
REMARK    3  A    between atoms: C_2  and  C_4
REMARK    4  A    between atoms: C_4  and  C_5
REMARK    5  A    between atoms: CA_9  and  C_10
REMARK    6  A    between atoms: C_10  and  O_11
REMARK    7  A    between atoms: C_14  and  C_16
REMARK    8  A    between atoms: C_18  and  C_19
REMARK                            x       y       z     vdW  Elec       q    Type
REMARK                         _______ _______ _______ _____ _____    ______ ____
ROOT
ATOM      1  C   UNL     1       4.110   5.672  18.678  0.00  0.00    +0.000 C 
ATOM      2  C   UNL     1       3.354   4.785  19.688  0.00  0.00    +0.000 C 
ATOM      3  O   UNL     1       2.988   5.200  20.787  0.00  0.00    +0.000 OA
ATOM      4  N   UNL     1       2.933   3.541  19.294  0.00  0.00    +0.000 N 
ATOM      5  CA  UNL     1       3.538   2.800  18.182  0.00  0.00    +0.000 C 
ATOM      6  C   UNL     1       4.044   3.742  17.087  0.00  0.00    +0.000 C 
ATOM      7  N   UNL     1       4.828   4.830  17.669  0.00  0.00    +0.000 N 
ATOM      8  C   UNL     1       6.037   5.165  17.047  0.00  0.00    +0.000 C 
ATOM      9  O   UNL     1       6.377   4.620  15.991  0.00  0.00    +0.000 OA
ATOM     10  H   UNL     1       2.590   3.004  20.084  0.00  0.00    +0.000 HD
ENDROOT
BRANCH   8  11
ATOM     11  C   UNL     1       6.899   6.194  17.628  0.00  0.00    +0.000 A 
ATOM     12  C   UNL     1       6.997   7.538  17.194  0.00  0.00    +0.000 A 
ATOM     13  C   UNL     1       7.884   8.125  18.063  0.00  0.00    +0.000 A 
ATOM     14  O   UNL     1       8.351   7.176  18.918  0.00  0.00    +0.000 OA
ATOM     15  N   UNL     1       7.770   5.961  18.623  0.00  0.00    +0.000 NA
BRANCH  13  16
ATOM     16  C   UNL     1       8.366   9.479  18.254  0.00  0.00    +0.000 A 
ATOM     17  C   UNL     1       7.913  10.529  17.438  0.00  0.00    +0.000 A 
ATOM     18  C   UNL     1       8.463  11.805  17.558  0.00  0.00    +0.000 A 
ATOM     19  C   UNL     1       9.457  12.038  18.500  0.00  0.00    +0.000 A 
ATOM     20  F   UNL     1      10.006  13.255  18.595  0.00  0.00    +0.000 F 
ATOM     21  C   UNL     1       9.897  11.023  19.341  0.00  0.00    +0.000 A 
ATOM     22  C   UNL     1       9.351   9.745  19.219  0.00  0.00    +0.000 A 
ENDBRANCH  13  16
ENDBRANCH   8  11
BRANCH   1  23
ATOM     23  C   UNL     1       3.169   6.657  17.953  0.00  0.00    +0.000 C 
BRANCH  23  25
ATOM     24  C   UNL     1       2.363   9.105  17.696  0.00  0.00    +0.000 C 
ATOM     25  C   UNL     1       2.879   8.015  18.636  0.00  0.00    +0.000 C 
ATOM     26  C   UNL     1       1.843   7.794  19.747  0.00  0.00    +0.000 C 
ENDBRANCH  23  25
ENDBRANCH   1  23
BRANCH   5  27
ATOM     27  C   UNL     1       2.526   1.811  17.583  0.00  0.00    +0.000 C 
BRANCH  27  28
ATOM     28  O   UNL     1       1.542   1.445  18.547  0.00  0.00    +0.000 OA
ATOM     29  H   UNL     1       1.132   2.268  18.866  0.00  0.00    +0.000 HD
ENDBRANCH  27  28
ENDBRANCH   5  27
TORSDOF 6
ENDMDL
MODEL 9
REMARK VINA RESULT:      -7.8      4.062      8.815
REMARK  Name = 
REMARK  8 active torsions:
REMARK  status: ('A' for Active; 'I' for Inactive)
REMARK    1  A    between atoms: C_1  and  C_2
REMARK    2  A    between atoms: C_2  and  C_3
REMARK    3  A    between atoms: C_2  and  C_4
REMARK    4  A    between atoms: C_4  and  C_5
REMARK    5  A    between atoms: CA_9  and  C_10
REMARK    6  A    between atoms: C_10  and  O_11
REMARK    7  A    between atoms: C_14  and  C_16
REMARK    8  A    between atoms: C_18  and  C_19
REMARK                            x       y       z     vdW  Elec       q    Type
REMARK                         _______ _______ _______ _____ _____    ______ ____
ROOT
ATOM      1  C   UNL     1      -0.235  10.821  19.026  0.00  0.00    +0.000 C 
ATOM      2  C   UNL     1      -0.316  12.357  19.147  0.00  0.00    +0.000 C 
ATOM      3  O   UNL     1      -0.279  13.099  18.167  0.00  0.00    +0.000 OA
ATOM      4  N   UNL     1      -0.597  12.912  20.368  0.00  0.00    +0.000 N 
ATOM      5  CA  UNL     1      -0.361  12.222  21.642  0.00  0.00    +0.000 C 
ATOM      6  C   UNL     1      -0.548  10.710  21.506  0.00  0.00    +0.000 C 
ATOM      7  N   UNL     1       0.165  10.208  20.332  0.00  0.00    +0.000 N 
ATOM      8  C   UNL     1       0.920   9.038  20.481  0.00  0.00    +0.000 C 
ATOM      9  O   UNL     1       0.904   8.407  21.543  0.00  0.00    +0.000 OA
ATOM     10  H   UNL     1      -0.471  13.919  20.350  0.00  0.00    +0.000 HD
ENDROOT
BRANCH   8  11
ATOM     11  C   UNL     1       1.714   8.533  19.362  0.00  0.00    +0.000 A 
ATOM     12  C   UNL     1       2.501   7.355  19.367  0.00  0.00    +0.000 A 
ATOM     13  C   UNL     1       3.014   7.269  18.096  0.00  0.00    +0.000 A 
ATOM     14  O   UNL     1       2.625   8.365  17.392  0.00  0.00    +0.000 OA
ATOM     15  N   UNL     1       1.848   9.177  18.191  0.00  0.00    +0.000 NA
BRANCH  13  16
ATOM     16  C   UNL     1       3.814   6.284  17.393  0.00  0.00    +0.000 A 
ATOM     17  C   UNL     1       4.825   6.678  16.501  0.00  0.00    +0.000 A 
ATOM     18  C   UNL     1       5.514   5.727  15.749  0.00  0.00    +0.000 A 
ATOM     19  C   UNL     1       5.204   4.381  15.895  0.00  0.00    +0.000 A 
ATOM     20  F   UNL     1       5.844   3.470  15.151  0.00  0.00    +0.000 F 
ATOM     21  C   UNL     1       4.231   3.965  16.796  0.00  0.00    +0.000 A 
ATOM     22  C   UNL     1       3.538   4.916  17.546  0.00  0.00    +0.000 A 
ENDBRANCH  13  16
ENDBRANCH   8  11
BRANCH   1  23
ATOM     23  C   UNL     1      -1.569  10.206  18.553  0.00  0.00    +0.000 C 
BRANCH  23  25
ATOM     24  C   UNL     1      -2.506   9.892  16.159  0.00  0.00    +0.000 C 
ATOM     25  C   UNL     1      -2.267  10.846  17.330  0.00  0.00    +0.000 C 
ATOM     26  C   UNL     1      -3.617  11.419  17.780  0.00  0.00    +0.000 C 
ENDBRANCH  23  25
ENDBRANCH   1  23
BRANCH   5  27
ATOM     27  C   UNL     1      -1.303  12.763  22.728  0.00  0.00    +0.000 C 
BRANCH  27  28
ATOM     28  O   UNL     1      -2.196  11.747  23.177  0.00  0.00    +0.000 OA
ATOM     29  H   UNL     1      -1.823  10.893  22.898  0.00  0.00    +0.000 HD
ENDBRANCH  27  28
ENDBRANCH   5  27
TORSDOF 6
ENDMDL
