MODEL 1
REMARK VINA RESULT:      -6.1      0.000      0.000
REMARK  Name = 
REMARK  6 active torsions:
REMARK  status: ('A' for Active; 'I' for Inactive)
REMARK    1  A    between atoms: C_1  and  N_2
REMARK    2  A    between atoms: N_2  and  C_3
REMARK    3  A    between atoms: N_6  and  C_7
REMARK    4  A    between atoms: C_7  and  C_8
REMARK    5  A    between atoms: C_8  and  N_9
REMARK    6  A    between atoms: N_9  and  C_10
REMARK                            x       y       z     vdW  Elec       q    Type
REMARK                         _______ _______ _______ _____ _____    ______ ____
ROOT
ATOM      1  C   UNL     1       5.981   6.079  17.728  0.00  0.00    +0.000 C 
ENDROOT
BRANCH   1   2
ATOM      2  N   UNL     1       5.396   5.445  18.916  0.00  0.00    +0.000 N 
ATOM      3  H   UNL     1       5.504   6.036  19.739  0.00  0.00    +0.000 HD
BRANCH   2   4
ATOM      4  C   UNL     1       4.076   4.966  18.829  0.00  0.00    +0.000 A 
ATOM      5  C   UNL     1       3.315   5.026  17.654  0.00  0.00    +0.000 A 
ATOM      6  C   UNL     1       2.029   4.477  17.592  0.00  0.00    +0.000 A 
ATOM      7  C   UNL     1       1.491   3.831  18.700  0.00  0.00    +0.000 A 
ATOM      8  C   UNL     1       2.253   3.723  19.858  0.00  0.00    +0.000 A 
ATOM      9 BR   UNL     1       1.541   2.825  21.363  0.00  0.00    +0.000 Br
ATOM     10  C   UNL     1       3.540   4.267  19.918  0.00  0.00    +0.000 A 
ENDBRANCH   2   4
ENDBRANCH   1   2
BRANCH   1  11
ATOM     11  C   UNL     1       7.217   5.298  17.252  0.00  0.00    +0.000 C 
BRANCH  11  17
ATOM     12  C   UNL     1       6.157   3.540  12.828  0.00  0.00    +0.000 C 
ATOM     13  N   UNL     1       6.923   4.437  13.677  0.00  0.00    +0.000 N 
ATOM     14  C   UNL     1       7.806   5.397  13.033  0.00  0.00    +0.000 C 
ATOM     15  C   UNL     1       6.691   4.361  15.039  0.00  0.00    +0.000 C 
ATOM     16  O   UNL     1       5.931   3.534  15.537  0.00  0.00    +0.000 OA
ATOM     17  N   UNL     1       7.349   5.286  15.805  0.00  0.00    +0.000 N 
ATOM     18  H   UNL     1       8.110   5.803  15.400  0.00  0.00    +0.000 HD
ENDBRANCH  11  17
ENDBRANCH   1  11
TORSDOF 4
ENDMDL
MODEL 2
REMARK VINA RESULT:      -5.9      3.467      4.522
REMARK  Name = 
REMARK  6 active torsions:
REMARK  status: ('A' for Active; 'I' for Inactive)
REMARK    1  A    between atoms: C_1  and  N_2
REMARK    2  A    between atoms: N_2  and  C_3
REMARK    3  A    between atoms: N_6  and  C_7
REMARK    4  A    between atoms: C_7  and  C_8
REMARK    5  A    between atoms: C_8  and  N_9
REMARK    6  A    between atoms: N_9  and  C_10
REMARK                            x       y       z     vdW  Elec       q    Type
REMARK                         _______ _______ _______ _____ _____    ______ ____
ROOT
ATOM      1  C   UNL     1       2.356   4.516  19.766  0.00  0.00    +0.000 C 
ENDROOT
BRANCH   1   2
ATOM      2  N   UNL     1       2.736   5.790  20.388  0.00  0.00    +0.000 N 
ATOM      3  H   UNL     1       3.727   5.801  20.628  0.00  0.00    +0.000 HD
BRANCH   2   4
ATOM      4  C   UNL     1       2.381   6.981  19.728  0.00  0.00    +0.000 A 
ATOM      5  C   UNL     1       2.655   7.219  18.375  0.00  0.00    +0.000 A 
ATOM      6  C   UNL     1       2.224   8.390  17.741  0.00  0.00    +0.000 A 
ATOM      7  C   UNL     1       1.485   9.335  18.445  0.00  0.00    +0.000 A 
ATOM      8  C   UNL     1       1.166   9.090  19.776  0.00  0.00    +0.000 A 
ATOM      9 BR   UNL     1       0.140  10.357  20.736  0.00  0.00    +0.000 Br
ATOM     10  C   UNL     1       1.592   7.918  20.408  0.00  0.00    +0.000 A 
ENDBRANCH   2   4
ENDBRANCH   1   2
BRANCH   1  11
ATOM     11  C   UNL     1       3.558   3.559  19.715  0.00  0.00    +0.000 C 
BRANCH  11  17
ATOM     12  C   UNL     1       7.314   5.695  17.451  0.00  0.00    +0.000 C 
ATOM     13  N   UNL     1       6.148   4.828  17.414  0.00  0.00    +0.000 N 
ATOM     14  C   UNL     1       5.867   4.116  16.177  0.00  0.00    +0.000 C 
ATOM     15  C   UNL     1       5.436   4.685  18.592  0.00  0.00    +0.000 C 
ATOM     16  O   UNL     1       5.714   5.306  19.615  0.00  0.00    +0.000 OA
ATOM     17  N   UNL     1       4.404   3.785  18.555  0.00  0.00    +0.000 N 
ATOM     18  H   UNL     1       4.076   3.454  17.665  0.00  0.00    +0.000 HD
ENDBRANCH  11  17
ENDBRANCH   1  11
TORSDOF 4
ENDMDL
MODEL 3
REMARK VINA RESULT:      -5.9      2.498      3.610
REMARK  Name = 
REMARK  6 active torsions:
REMARK  status: ('A' for Active; 'I' for Inactive)
REMARK    1  A    between atoms: C_1  and  N_2
REMARK    2  A    between atoms: N_2  and  C_3
REMARK    3  A    between atoms: N_6  and  C_7
REMARK    4  A    between atoms: C_7  and  C_8
REMARK    5  A    between atoms: C_8  and  N_9
REMARK    6  A    between atoms: N_9  and  C_10
REMARK                            x       y       z     vdW  Elec       q    Type
REMARK                         _______ _______ _______ _____ _____    ______ ____
ROOT
ATOM      1  C   UNL     1       4.321   3.251  16.822  0.00  0.00    +0.000 C 
ENDROOT
BRANCH   1   2
ATOM      2  N   UNL     1       4.461   2.989  18.259  0.00  0.00    +0.000 N 
ATOM      3  H   UNL     1       5.408   3.188  18.579  0.00  0.00    +0.000 HD
BRANCH   2   4
ATOM      4  C   UNL     1       3.521   3.567  19.132  0.00  0.00    +0.000 A 
ATOM      5  C   UNL     1       2.900   2.857  20.169  0.00  0.00    +0.000 A 
ATOM      6  C   UNL     1       2.021   3.486  21.057  0.00  0.00    +0.000 A 
ATOM      7  C   UNL     1       1.767   4.849  20.941  0.00  0.00    +0.000 A 
ATOM      8  C   UNL     1       2.413   5.576  19.946  0.00  0.00    +0.000 A 
ATOM      9 BR   UNL     1       2.094   7.435  19.795  0.00  0.00    +0.000 Br
ATOM     10  C   UNL     1       3.295   4.948  19.063  0.00  0.00    +0.000 A 
ENDBRANCH   2   4
ENDBRANCH   1   2
BRANCH   1  11
ATOM     11  C   UNL     1       5.647   3.757  16.233  0.00  0.00    +0.000 C 
BRANCH  11  17
ATOM     12  C   UNL     1       7.754   7.914  17.674  0.00  0.00    +0.000 C 
ATOM     13  N   UNL     1       7.488   6.500  17.878  0.00  0.00    +0.000 N 
ATOM     14  C   UNL     1       7.958   5.888  19.111  0.00  0.00    +0.000 C 
ATOM     15  C   UNL     1       6.733   5.859  16.911  0.00  0.00    +0.000 C 
ATOM     16  O   UNL     1       6.355   6.420  15.885  0.00  0.00    +0.000 OA
ATOM     17  N   UNL     1       6.411   4.555  17.178  0.00  0.00    +0.000 N 
ATOM     18  H   UNL     1       6.901   4.071  17.910  0.00  0.00    +0.000 HD
ENDBRANCH  11  17
ENDBRANCH   1  11
TORSDOF 4
ENDMDL
MODEL 4
REMARK VINA RESULT:      -5.9      1.298      1.549
REMARK  Name = 
REMARK  6 active torsions:
REMARK  status: ('A' for Active; 'I' for Inactive)
REMARK    1  A    between atoms: C_1  and  N_2
REMARK    2  A    between atoms: N_2  and  C_3
REMARK    3  A    between atoms: N_6  and  C_7
REMARK    4  A    between atoms: C_7  and  C_8
REMARK    5  A    between atoms: C_8  and  N_9
REMARK    6  A    between atoms: N_9  and  C_10
REMARK                            x       y       z     vdW  Elec       q    Type
REMARK                         _______ _______ _______ _____ _____    ______ ____
ROOT
ATOM      1  C   UNL     1       7.133   5.110  17.772  0.00  0.00    +0.000 C 
ENDROOT
BRANCH   1   2
ATOM      2  N   UNL     1       6.287   3.973  18.154  0.00  0.00    +0.000 N 
ATOM      3  H   UNL     1       6.795   3.320  18.750  0.00  0.00    +0.000 HD
BRANCH   2   4
ATOM      4  C   UNL     1       5.018   4.244  18.698  0.00  0.00    +0.000 A 
ATOM      5  C   UNL     1       4.702   5.448  19.342  0.00  0.00    +0.000 A 
ATOM      6  C   UNL     1       3.408   5.704  19.810  0.00  0.00    +0.000 A 
ATOM      7  C   UNL     1       2.397   4.769  19.616  0.00  0.00    +0.000 A 
ATOM      8  C   UNL     1       2.685   3.590  18.937  0.00  0.00    +0.000 A 
ATOM      9 BR   UNL     1       1.312   2.322  18.647  0.00  0.00    +0.000 Br
ATOM     10  C   UNL     1       3.977   3.337  18.465  0.00  0.00    +0.000 A 
ENDBRANCH   2   4
ENDBRANCH   1   2
BRANCH   1  11
ATOM     11  C   UNL     1       6.433   5.970  16.707  0.00  0.00    +0.000 C 
BRANCH  11  17
ATOM     12  C   UNL     1       6.166   3.451  12.539  0.00  0.00    +0.000 C 
ATOM     13  N   UNL     1       6.827   4.440  13.373  0.00  0.00    +0.000 N 
ATOM     14  C   UNL     1       7.935   5.187  12.797  0.00  0.00    +0.000 C 
ATOM     15  C   UNL     1       6.297   4.652  14.633  0.00  0.00    +0.000 C 
ATOM     16  O   UNL     1       5.355   3.998  15.076  0.00  0.00    +0.000 OA
ATOM     17  N   UNL     1       6.875   5.661  15.358  0.00  0.00    +0.000 N 
ATOM     18  H   UNL     1       7.760   6.031  15.059  0.00  0.00    +0.000 HD
ENDBRANCH  11  17
ENDBRANCH   1  11
TORSDOF 4
ENDMDL
MODEL 5
REMARK VINA RESULT:      -5.8      1.140      1.461
REMARK  Name = 
REMARK  6 active torsions:
REMARK  status: ('A' for Active; 'I' for Inactive)
REMARK    1  A    between atoms: C_1  and  N_2
REMARK    2  A    between atoms: N_2  and  C_3
REMARK    3  A    between atoms: N_6  and  C_7
REMARK    4  A    between atoms: C_7  and  C_8
REMARK    5  A    between atoms: C_8  and  N_9
REMARK    6  A    between atoms: N_9  and  C_10
REMARK                            x       y       z     vdW  Elec       q    Type
REMARK                         _______ _______ _______ _____ _____    ______ ____
ROOT
ATOM      1  C   UNL     1       4.997   5.684  17.106  0.00  0.00    +0.000 C 
ENDROOT
BRANCH   1   2
ATOM      2  N   UNL     1       4.456   5.649  18.470  0.00  0.00    +0.000 N 
ATOM      3  H   UNL     1       4.347   6.590  18.847  0.00  0.00    +0.000 HD
BRANCH   2   4
ATOM      4  C   UNL     1       3.292   4.893  18.702  0.00  0.00    +0.000 A 
ATOM      5  C   UNL     1       2.320   4.660  17.719  0.00  0.00    +0.000 A 
ATOM      6  C   UNL     1       1.211   3.846  17.972  0.00  0.00    +0.000 A 
ATOM      7  C   UNL     1       1.066   3.226  19.209  0.00  0.00    +0.000 A 
ATOM      8  C   UNL     1       2.046   3.411  20.179  0.00  0.00    +0.000 A 
ATOM      9 BR   UNL     1       1.872   2.553  21.855  0.00  0.00    +0.000 Br
ATOM     10  C   UNL     1       3.157   4.220  19.923  0.00  0.00    +0.000 A 
ENDBRANCH   2   4
ENDBRANCH   1   2
BRANCH   1  11
ATOM     11  C   UNL     1       5.857   4.439  16.835  0.00  0.00    +0.000 C 
BRANCH  11  17
ATOM     12  C   UNL     1       7.834   5.037  12.416  0.00  0.00    +0.000 C 
ATOM     13  N   UNL     1       6.835   4.427  13.277  0.00  0.00    +0.000 N 
ATOM     14  C   UNL     1       5.956   3.423  12.698  0.00  0.00    +0.000 C 
ATOM     15  C   UNL     1       6.849   4.795  14.612  0.00  0.00    +0.000 C 
ATOM     16  O   UNL     1       7.614   5.647  15.057  0.00  0.00    +0.000 OA
ATOM     17  N   UNL     1       5.965   4.130  15.419  0.00  0.00    +0.000 N 
ATOM     18  H   UNL     1       5.223   3.599  14.998  0.00  0.00    +0.000 HD
ENDBRANCH  11  17
ENDBRANCH   1  11
TORSDOF 4
ENDMDL
MODEL 6
REMARK VINA RESULT:      -5.8      2.099      3.289
REMARK  Name = 
REMARK  6 active torsions:
REMARK  status: ('A' for Active; 'I' for Inactive)
REMARK    1  A    between atoms: C_1  and  N_2
REMARK    2  A    between atoms: N_2  and  C_3
REMARK    3  A    between atoms: N_6  and  C_7
REMARK    4  A    between atoms: C_7  and  C_8
REMARK    5  A    between atoms: C_8  and  N_9
REMARK    6  A    between atoms: N_9  and  C_10
REMARK                            x       y       z     vdW  Elec       q    Type
REMARK                         _______ _______ _______ _____ _____    ______ ____
ROOT
ATOM      1  C   UNL     1       4.435   3.178  16.846  0.00  0.00    +0.000 C 
ENDROOT
BRANCH   1   2
ATOM      2  N   UNL     1       3.242   4.031  16.922  0.00  0.00    +0.000 N 
ATOM      3  H   UNL     1       2.451   3.601  16.445  0.00  0.00    +0.000 HD
BRANCH   2   4
ATOM      4  C   UNL     1       2.849   4.510  18.185  0.00  0.00    +0.000 A 
ATOM      5  C   UNL     1       2.692   5.872  18.474  0.00  0.00    +0.000 A 
ATOM      6  C   UNL     1       2.234   6.302  19.724  0.00  0.00    +0.000 A 
ATOM      7  C   UNL     1       1.897   5.373  20.703  0.00  0.00    +0.000 A 
ATOM      8  C   UNL     1       2.003   4.016  20.414  0.00  0.00    +0.000 A 
ATOM      9 BR   UNL     1       1.523   2.743  21.729  0.00  0.00    +0.000 Br
ATOM     10  C   UNL     1       2.455   3.587  19.163  0.00  0.00    +0.000 A 
ENDBRANCH   2   4
ENDBRANCH   1   2
BRANCH   1  11
ATOM     11  C   UNL     1       5.594   3.930  16.173  0.00  0.00    +0.000 C 
BRANCH  11  17
ATOM     12  C   UNL     1       7.697   8.069  17.668  0.00  0.00    +0.000 C 
ATOM     13  N   UNL     1       7.455   6.646  17.838  0.00  0.00    +0.000 N 
ATOM     14  C   UNL     1       7.973   6.004  19.036  0.00  0.00    +0.000 C 
ATOM     15  C   UNL     1       6.677   6.024  16.877  0.00  0.00    +0.000 C 
ATOM     16  O   UNL     1       6.257   6.610  15.882  0.00  0.00    +0.000 OA
ATOM     17  N   UNL     1       6.379   4.709  17.116  0.00  0.00    +0.000 N 
ATOM     18  H   UNL     1       6.900   4.210  17.816  0.00  0.00    +0.000 HD
ENDBRANCH  11  17
ENDBRANCH   1  11
TORSDOF 4
ENDMDL
MODEL 7
REMARK VINA RESULT:      -5.8      1.110      1.257
REMARK  Name = 
REMARK  6 active torsions:
REMARK  status: ('A' for Active; 'I' for Inactive)
REMARK    1  A    between atoms: C_1  and  N_2
REMARK    2  A    between atoms: N_2  and  C_3
REMARK    3  A    between atoms: N_6  and  C_7
REMARK    4  A    between atoms: C_7  and  C_8
REMARK    5  A    between atoms: C_8  and  N_9
REMARK    6  A    between atoms: N_9  and  C_10
REMARK                            x       y       z     vdW  Elec       q    Type
REMARK                         _______ _______ _______ _____ _____    ______ ____
ROOT
ATOM      1  C   UNL     1       6.426   5.531  18.293  0.00  0.00    +0.000 C 
ENDROOT
BRANCH   1   2
ATOM      2  N   UNL     1       5.061   5.180  17.880  0.00  0.00    +0.000 N 
ATOM      3  H   UNL     1       5.025   4.241  17.488  0.00  0.00    +0.000 HD
BRANCH   2   4
ATOM      4  C   UNL     1       4.021   5.361  18.811  0.00  0.00    +0.000 A 
ATOM      5  C   UNL     1       3.261   6.535  18.893  0.00  0.00    +0.000 A 
ATOM      6  C   UNL     1       2.191   6.647  19.788  0.00  0.00    +0.000 A 
ATOM      7  C   UNL     1       1.844   5.573  20.600  0.00  0.00    +0.000 A 
ATOM      8  C   UNL     1       2.560   4.385  20.496  0.00  0.00    +0.000 A 
ATOM      9 BR   UNL     1       2.081   2.910  21.579  0.00  0.00    +0.000 Br
ATOM     10  C   UNL     1       3.625   4.272  19.598  0.00  0.00    +0.000 A 
ENDBRANCH   2   4
ENDBRANCH   1   2
BRANCH   1  11
ATOM     11  C   UNL     1       7.451   4.625  17.593  0.00  0.00    +0.000 C 
BRANCH  11  17
ATOM     12  C   UNL     1       5.963   3.734  13.034  0.00  0.00    +0.000 C 
ATOM     13  N   UNL     1       6.867   4.400  13.956  0.00  0.00    +0.000 N 
ATOM     14  C   UNL     1       7.811   5.363  13.411  0.00  0.00    +0.000 C 
ATOM     15  C   UNL     1       6.705   4.122  15.302  0.00  0.00    +0.000 C 
ATOM     16  O   UNL     1       5.889   3.301  15.717  0.00  0.00    +0.000 OA
ATOM     17  N   UNL     1       7.500   4.839  16.156  0.00  0.00    +0.000 N 
ATOM     18  H   UNL     1       8.288   5.340  15.784  0.00  0.00    +0.000 HD
ENDBRANCH  11  17
ENDBRANCH   1  11
TORSDOF 4
ENDMDL
MODEL 8
REMARK VINA RESULT:      -5.7      3.467      4.730
REMARK  Name = 
REMARK  6 active torsions:
REMARK  status: ('A' for Active; 'I' for Inactive)
REMARK    1  A    between atoms: C_1  and  N_2
REMARK    2  A    between atoms: N_2  and  C_3
REMARK    3  A    between atoms: N_6  and  C_7
REMARK    4  A    between atoms: C_7  and  C_8
REMARK    5  A    between atoms: C_8  and  N_9
REMARK    6  A    between atoms: N_9  and  C_10
REMARK                            x       y       z     vdW  Elec       q    Type
REMARK                         _______ _______ _______ _____ _____    ______ ____
ROOT
ATOM      1  C   UNL     1       2.030   4.795  20.058  0.00  0.00    +0.000 C 
ENDROOT
BRANCH   1   2
ATOM      2  N   UNL     1       2.689   6.059  20.409  0.00  0.00    +0.000 N 
ATOM      3  H   UNL     1       3.703   5.964  20.388  0.00  0.00    +0.000 HD
BRANCH   2   4
ATOM      4  C   UNL     1       2.294   7.224  19.726  0.00  0.00    +0.000 A 
ATOM      5  C   UNL     1       2.505   7.415  18.353  0.00  0.00    +0.000 A 
ATOM      6  C   UNL     1       2.036   8.560  17.699  0.00  0.00    +0.000 A 
ATOM      7  C   UNL     1       1.322   9.524  18.402  0.00  0.00    +0.000 A 
ATOM      8  C   UNL     1       1.065   9.325  19.755  0.00  0.00    +0.000 A 
ATOM      9 BR   UNL     1       0.074  10.618  20.716  0.00  0.00    +0.000 Br
ATOM     10  C   UNL     1       1.529   8.179  20.407  0.00  0.00    +0.000 A 
ENDBRANCH   2   4
ENDBRANCH   1   2
BRANCH   1  11
ATOM     11  C   UNL     1       3.035   3.822  19.421  0.00  0.00    +0.000 C 
BRANCH  11  17
ATOM     12  C   UNL     1       7.183   4.681  17.003  0.00  0.00    +0.000 C 
ATOM     13  N   UNL     1       6.394   4.766  18.221  0.00  0.00    +0.000 N 
ATOM     14  C   UNL     1       6.950   5.501  19.345  0.00  0.00    +0.000 C 
ATOM     15  C   UNL     1       5.130   4.202  18.188  0.00  0.00    +0.000 C 
ATOM     16  O   UNL     1       4.700   3.593  17.211  0.00  0.00    +0.000 OA
ATOM     17  N   UNL     1       4.370   4.386  19.312  0.00  0.00    +0.000 N 
ATOM     18  H   UNL     1       4.815   4.701  20.156  0.00  0.00    +0.000 HD
ENDBRANCH  11  17
ENDBRANCH   1  11
TORSDOF 4
ENDMDL
MODEL 9
REMARK VINA RESULT:      -5.7      2.859      4.001
REMARK  Name = 
REMARK  6 active torsions:
REMARK  status: ('A' for Active; 'I' for Inactive)
REMARK    1  A    between atoms: C_1  and  N_2
REMARK    2  A    between atoms: N_2  and  C_3
REMARK    3  A    between atoms: N_6  and  C_7
REMARK    4  A    between atoms: C_7  and  C_8
REMARK    5  A    between atoms: C_8  and  N_9
REMARK    6  A    between atoms: N_9  and  C_10
REMARK                            x       y       z     vdW  Elec       q    Type
REMARK                         _______ _______ _______ _____ _____    ______ ____
ROOT
ATOM      1  C   UNL     1       4.078   3.081  17.404  0.00  0.00    +0.000 C 
ENDROOT
BRANCH   1   2
ATOM      2  N   UNL     1       2.697   3.574  17.488  0.00  0.00    +0.000 N 
ATOM      3  H   UNL     1       2.042   2.809  17.643  0.00  0.00    +0.000 HD
BRANCH   2   4
ATOM      4  C   UNL     1       2.426   4.634  18.372  0.00  0.00    +0.000 A 
ATOM      5  C   UNL     1       2.290   4.463  19.756  0.00  0.00    +0.000 A 
ATOM      6  C   UNL     1       2.086   5.555  20.608  0.00  0.00    +0.000 A 
ATOM      7  C   UNL     1       2.043   6.846  20.091  0.00  0.00    +0.000 A 
ATOM      8  C   UNL     1       2.224   7.035  18.725  0.00  0.00    +0.000 A 
ATOM      9 BR   UNL     1       2.191   8.788  18.015  0.00  0.00    +0.000 Br
ATOM     10  C   UNL     1       2.432   5.944  17.876  0.00  0.00    +0.000 A 
ENDBRANCH   2   4
ENDBRANCH   1   2
BRANCH   1  11
ATOM     11  C   UNL     1       4.946   4.047  16.583  0.00  0.00    +0.000 C 
BRANCH  11  17
ATOM     12  C   UNL     1       7.714   7.924  17.635  0.00  0.00    +0.000 C 
ATOM     13  N   UNL     1       7.313   6.552  17.901  0.00  0.00    +0.000 N 
ATOM     14  C   UNL     1       7.877   5.891  19.067  0.00  0.00    +0.000 C 
ATOM     15  C   UNL     1       6.359   6.005  17.061  0.00  0.00    +0.000 C 
ATOM     16  O   UNL     1       5.908   6.605  16.088  0.00  0.00    +0.000 OA
ATOM     17  N   UNL     1       5.925   4.749  17.395  0.00  0.00    +0.000 N 
ATOM     18  H   UNL     1       6.454   4.211  18.061  0.00  0.00    +0.000 HD
ENDBRANCH  11  17
ENDBRANCH   1  11
TORSDOF 4
ENDMDL
