MODEL 1
REMARK VINA RESULT:      -7.0      0.000      0.000
REMARK  Name = 
REMARK  5 active torsions:
REMARK  status: ('A' for Active; 'I' for Inactive)
REMARK    1  A    between atoms: C_1  and  O_2
REMARK    2  A    between atoms: O_2  and  C_3
REMARK    3  A    between atoms: C_8  and  C_9
REMARK    4  A    between atoms: C_9  and  C_10
REMARK    5  A    between atoms: C_9  and  C_11
REMARK                            x       y       z     vdW  Elec       q    Type
REMARK                         _______ _______ _______ _____ _____    ______ ____
ROOT
ATOM      1  C   UNL     1      -5.444  11.276  17.975  0.00  0.00    +0.000 A 
ATOM      2  C   UNL     1      -6.706  10.815  18.345  0.00  0.00    +0.000 A 
ATOM      3  C   UNL     1      -7.204  11.057  19.633  0.00  0.00    +0.000 A 
ATOM      4  C   UNL     1      -6.422  11.771  20.554  0.00  0.00    +0.000 A 
ATOM      5  N   UNL     1      -6.723  12.149  21.829  0.00  0.00    +0.000 NA
ATOM      6  C   UNL     1      -5.679  12.833  22.268  0.00  0.00    +0.000 A 
ATOM      7  N   UNL     1      -4.682  12.906  21.292  0.00  0.00    +0.000 N 
ATOM      8  C   UNL     1      -3.425  13.579  21.356  0.00  0.00    +0.000 A 
ATOM      9  N   UNL     1      -2.465  13.167  20.530  0.00  0.00    +0.000 NA
ATOM     10  C   UNL     1      -1.301  13.787  20.618  0.00  0.00    +0.000 A 
ATOM     11  N   UNL     1      -0.237  13.300  19.900  0.00  0.00    +0.000 N 
ATOM     12  C   UNL     1      -0.422  12.229  18.920  0.00  0.00    +0.000 C 
ATOM     13  C   UNL     1       0.876  11.406  18.849  0.00  0.00    +0.000 C 
ATOM     14  O   UNL     1       2.017  12.235  18.560  0.00  0.00    +0.000 OA
ATOM     15  C   UNL     1       2.173  13.248  19.569  0.00  0.00    +0.000 C 
ATOM     16  C   UNL     1       0.931  14.147  19.663  0.00  0.00    +0.000 C 
ATOM     17  N   UNL     1      -1.098  14.803  21.446  0.00  0.00    +0.000 NA
ATOM     18  C   UNL     1      -2.099  15.174  22.232  0.00  0.00    +0.000 A 
ATOM     19  N   UNL     1      -1.886  16.169  23.147  0.00  0.00    +0.000 N 
ATOM     20  C   UNL     1      -0.600  16.856  23.243  0.00  0.00    +0.000 C 
ATOM     21  C   UNL     1      -0.282  17.081  24.730  0.00  0.00    +0.000 C 
ATOM     22  O   UNL     1      -1.346  17.776  25.405  0.00  0.00    +0.000 OA
ATOM     23  C   UNL     1      -2.575  17.034  25.310  0.00  0.00    +0.000 C 
ATOM     24  C   UNL     1      -2.989  16.819  23.847  0.00  0.00    +0.000 C 
ATOM     25  N   UNL     1      -3.280  14.573  22.223  0.00  0.00    +0.000 NA
ATOM     26  C   UNL     1      -5.158  12.207  20.186  0.00  0.00    +0.000 A 
ATOM     27  C   UNL     1      -4.648  11.966  18.894  0.00  0.00    +0.000 A 
ENDROOT
BRANCH   6  28
ATOM     28  C   UNL     1      -5.605  13.389  23.668  0.00  0.00    +0.000 C 
ATOM     29  C   UNL     1      -7.017  13.649  24.198  0.00  0.00    +0.000 C 
ATOM     30  C   UNL     1      -4.857  12.429  24.601  0.00  0.00    +0.000 C 
ENDBRANCH   6  28
BRANCH   1  32
ATOM     31  C   UNL     1      -3.437  11.152  16.719  0.00  0.00    +0.000 C 
ATOM     32  O   UNL     1      -4.858  11.094  16.750  0.00  0.00    +0.000 OA
ENDBRANCH   1  32
TORSDOF 2
ENDMDL
MODEL 2
REMARK VINA RESULT:      -6.7      1.975      5.720
REMARK  Name = 
REMARK  5 active torsions:
REMARK  status: ('A' for Active; 'I' for Inactive)
REMARK    1  A    between atoms: C_1  and  O_2
REMARK    2  A    between atoms: O_2  and  C_3
REMARK    3  A    between atoms: C_8  and  C_9
REMARK    4  A    between atoms: C_9  and  C_10
REMARK    5  A    between atoms: C_9  and  C_11
REMARK                            x       y       z     vdW  Elec       q    Type
REMARK                         _______ _______ _______ _____ _____    ______ ____
ROOT
ATOM      1  C   UNL     1      -7.135  11.686  21.065  0.00  0.00    +0.000 A 
ATOM      2  C   UNL     1      -7.680  10.772  20.165  0.00  0.00    +0.000 A 
ATOM      3  C   UNL     1      -6.953  10.360  19.039  0.00  0.00    +0.000 A 
ATOM      4  C   UNL     1      -5.664  10.874  18.823  0.00  0.00    +0.000 A 
ATOM      5  N   UNL     1      -4.777  10.584  17.829  0.00  0.00    +0.000 NA
ATOM      6  C   UNL     1      -3.691  11.296  18.083  0.00  0.00    +0.000 A 
ATOM      7  N   UNL     1      -3.856  12.064  19.239  0.00  0.00    +0.000 N 
ATOM      8  C   UNL     1      -2.914  12.933  19.868  0.00  0.00    +0.000 A 
ATOM      9  N   UNL     1      -3.394  13.882  20.669  0.00  0.00    +0.000 NA
ATOM     10  C   UNL     1      -2.510  14.691  21.227  0.00  0.00    +0.000 A 
ATOM     11  N   UNL     1      -2.961  15.776  21.934  0.00  0.00    +0.000 N 
ATOM     12  C   UNL     1      -4.387  15.943  22.222  0.00  0.00    +0.000 C 
ATOM     13  C   UNL     1      -4.692  17.449  22.306  0.00  0.00    +0.000 C 
ATOM     14  O   UNL     1      -3.849  18.111  23.267  0.00  0.00    +0.000 OA
ATOM     15  C   UNL     1      -2.463  17.945  22.920  0.00  0.00    +0.000 C 
ATOM     16  C   UNL     1      -2.068  16.461  22.868  0.00  0.00    +0.000 C 
ATOM     17  N   UNL     1      -1.204  14.547  21.047  0.00  0.00    +0.000 NA
ATOM     18  C   UNL     1      -0.789  13.573  20.249  0.00  0.00    +0.000 A 
ATOM     19  N   UNL     1       0.550  13.455  19.992  0.00  0.00    +0.000 N 
ATOM     20  C   UNL     1       1.528  14.348  20.608  0.00  0.00    +0.000 C 
ATOM     21  C   UNL     1       2.590  14.704  19.556  0.00  0.00    +0.000 C 
ATOM     22  O   UNL     1       3.184  13.528  18.977  0.00  0.00    +0.000 OA
ATOM     23  C   UNL     1       2.179  12.710  18.352  0.00  0.00    +0.000 C 
ATOM     24  C   UNL     1       1.109  12.265  19.360  0.00  0.00    +0.000 C 
ATOM     25  N   UNL     1      -1.622  12.749  19.630  0.00  0.00    +0.000 NA
ATOM     26  C   UNL     1      -5.138  11.801  19.711  0.00  0.00    +0.000 A 
ATOM     27  C   UNL     1      -5.864  12.222  20.843  0.00  0.00    +0.000 A 
ENDROOT
BRANCH   6  28
ATOM     28  C   UNL     1      -2.485  11.285  17.178  0.00  0.00    +0.000 C 
ATOM     29  C   UNL     1      -1.556  10.133  17.566  0.00  0.00    +0.000 C 
ATOM     30  C   UNL     1      -2.904  11.158  15.708  0.00  0.00    +0.000 C 
ENDBRANCH   6  28
BRANCH   1  32
ATOM     31  C   UNL     1      -6.912  12.747  23.174  0.00  0.00    +0.000 C 
ATOM     32  O   UNL     1      -7.756  12.159  22.191  0.00  0.00    +0.000 OA
ENDBRANCH   1  32
TORSDOF 2
ENDMDL
MODEL 3
REMARK VINA RESULT:      -6.2      2.018      6.434
REMARK  Name = 
REMARK  5 active torsions:
REMARK  status: ('A' for Active; 'I' for Inactive)
REMARK    1  A    between atoms: C_1  and  O_2
REMARK    2  A    between atoms: O_2  and  C_3
REMARK    3  A    between atoms: C_8  and  C_9
REMARK    4  A    between atoms: C_9  and  C_10
REMARK    5  A    between atoms: C_9  and  C_11
REMARK                            x       y       z     vdW  Elec       q    Type
REMARK                         _______ _______ _______ _____ _____    ______ ____
ROOT
ATOM      1  C   UNL     1      -1.760  15.444  24.862  0.00  0.00    +0.000 A 
ATOM      2  C   UNL     1      -2.897  16.030  25.417  0.00  0.00    +0.000 A 
ATOM      3  C   UNL     1      -4.100  16.073  24.698  0.00  0.00    +0.000 A 
ATOM      4  C   UNL     1      -4.155  15.518  23.410  0.00  0.00    +0.000 A 
ATOM      5  N   UNL     1      -5.218  15.416  22.562  0.00  0.00    +0.000 NA
ATOM      6  C   UNL     1      -4.773  14.784  21.487  0.00  0.00    +0.000 A 
ATOM      7  N   UNL     1      -3.418  14.471  21.616  0.00  0.00    +0.000 N 
ATOM      8  C   UNL     1      -2.580  13.765  20.701  0.00  0.00    +0.000 A 
ATOM      9  N   UNL     1      -1.266  13.958  20.798  0.00  0.00    +0.000 NA
ATOM     10  C   UNL     1      -0.506  13.313  19.929  0.00  0.00    +0.000 A 
ATOM     11  N   UNL     1       0.836  13.595  19.887  0.00  0.00    +0.000 N 
ATOM     12  C   UNL     1       1.451  14.458  20.896  0.00  0.00    +0.000 C 
ATOM     13  C   UNL     1       2.642  15.188  20.250  0.00  0.00    +0.000 C 
ATOM     14  O   UNL     1       3.577  14.264  19.661  0.00  0.00    +0.000 OA
ATOM     15  C   UNL     1       2.930  13.465  18.655  0.00  0.00    +0.000 C 
ATOM     16  C   UNL     1       1.757  12.663  19.238  0.00  0.00    +0.000 C 
ATOM     17  N   UNL     1      -1.009  12.473  19.033  0.00  0.00    +0.000 NA
ATOM     18  C   UNL     1      -2.324  12.313  18.999  0.00  0.00    +0.000 A 
ATOM     19  N   UNL     1      -2.866  11.510  18.033  0.00  0.00    +0.000 N 
ATOM     20  C   UNL     1      -2.027  10.796  17.074  0.00  0.00    +0.000 C 
ATOM     21  C   UNL     1      -2.708  10.855  15.696  0.00  0.00    +0.000 C 
ATOM     22  O   UNL     1      -4.058  10.359  15.746  0.00  0.00    +0.000 OA
ATOM     23  C   UNL     1      -4.844  11.126  16.676  0.00  0.00    +0.000 C 
ATOM     24  C   UNL     1      -4.255  11.066  18.093  0.00  0.00    +0.000 C 
ATOM     25  N   UNL     1      -3.146  12.956  19.815  0.00  0.00    +0.000 NA
ATOM     26  C   UNL     1      -3.014  14.958  22.855  0.00  0.00    +0.000 A 
ATOM     27  C   UNL     1      -1.800  14.914  23.570  0.00  0.00    +0.000 A 
ENDROOT
BRANCH   6  28
ATOM     28  C   UNL     1      -5.647  14.513  20.287  0.00  0.00    +0.000 C 
ATOM     29  C   UNL     1      -6.720  13.485  20.648  0.00  0.00    +0.000 C 
ATOM     30  C   UNL     1      -6.299  15.806  19.782  0.00  0.00    +0.000 C 
ENDBRANCH   6  28
BRANCH   1  32
ATOM     31  C   UNL     1      -0.410  16.000  26.730  0.00  0.00    +0.000 C 
ATOM     32  O   UNL     1      -0.536  15.352  25.470  0.00  0.00    +0.000 OA
ENDBRANCH   1  32
TORSDOF 2
ENDMDL
MODEL 4
REMARK VINA RESULT:      -6.1      1.691      5.950
REMARK  Name = 
REMARK  5 active torsions:
REMARK  status: ('A' for Active; 'I' for Inactive)
REMARK    1  A    between atoms: C_1  and  O_2
REMARK    2  A    between atoms: O_2  and  C_3
REMARK    3  A    between atoms: C_8  and  C_9
REMARK    4  A    between atoms: C_9  and  C_10
REMARK    5  A    between atoms: C_9  and  C_11
REMARK                            x       y       z     vdW  Elec       q    Type
REMARK                         _______ _______ _______ _____ _____    ______ ____
ROOT
ATOM      1  C   UNL     1       0.824  11.225  18.582  0.00  0.00    +0.000 A 
ATOM      2  C   UNL     1       2.104  11.761  18.451  0.00  0.00    +0.000 A 
ATOM      3  C   UNL     1       2.405  13.025  18.975  0.00  0.00    +0.000 A 
ATOM      4  C   UNL     1       1.406  13.753  19.640  0.00  0.00    +0.000 A 
ATOM      5  N   UNL     1       1.490  14.968  20.255  0.00  0.00    +0.000 NA
ATOM      6  C   UNL     1       0.292  15.207  20.765  0.00  0.00    +0.000 A 
ATOM      7  N   UNL     1      -0.589  14.159  20.486  0.00  0.00    +0.000 N 
ATOM      8  C   UNL     1      -1.951  14.016  20.887  0.00  0.00    +0.000 A 
ATOM      9  N   UNL     1      -2.720  13.199  20.170  0.00  0.00    +0.000 NA
ATOM     10  C   UNL     1      -3.984  13.094  20.542  0.00  0.00    +0.000 A 
ATOM     11  N   UNL     1      -4.851  12.388  19.747  0.00  0.00    +0.000 N 
ATOM     12  C   UNL     1      -4.359  11.615  18.605  0.00  0.00    +0.000 C 
ATOM     13  C   UNL     1      -5.460  11.582  17.530  0.00  0.00    +0.000 C 
ATOM     14  O   UNL     1      -6.701  11.074  18.054  0.00  0.00    +0.000 OA
ATOM     15  C   UNL     1      -7.156  11.888  19.150  0.00  0.00    +0.000 C 
ATOM     16  C   UNL     1      -6.127  11.926  20.290  0.00  0.00    +0.000 C 
ATOM     17  N   UNL     1      -4.466  13.726  21.604  0.00  0.00    +0.000 NA
ATOM     18  C   UNL     1      -3.645  14.513  22.285  0.00  0.00    +0.000 A 
ATOM     19  N   UNL     1      -4.143  15.232  23.338  0.00  0.00    +0.000 N 
ATOM     20  C   UNL     1      -5.539  15.116  23.751  0.00  0.00    +0.000 C 
ATOM     21  C   UNL     1      -6.053  16.517  24.121  0.00  0.00    +0.000 C 
ATOM     22  O   UNL     1      -5.221  17.147  25.112  0.00  0.00    +0.000 OA
ATOM     23  C   UNL     1      -3.870  17.269  24.633  0.00  0.00    +0.000 C 
ATOM     24  C   UNL     1      -3.266  15.897  24.297  0.00  0.00    +0.000 C 
ATOM     25  N   UNL     1      -2.377  14.693  21.946  0.00  0.00    +0.000 NA
ATOM     26  C   UNL     1       0.128  13.224  19.747  0.00  0.00    +0.000 A 
ATOM     27  C   UNL     1      -0.183  11.955  19.219  0.00  0.00    +0.000 A 
ENDROOT
BRANCH   6  28
ATOM     28  C   UNL     1      -0.037  16.487  21.493  0.00  0.00    +0.000 C 
ATOM     29  C   UNL     1       0.826  16.604  22.751  0.00  0.00    +0.000 C 
ATOM     30  C   UNL     1       0.178  17.704  20.586  0.00  0.00    +0.000 C 
ENDBRANCH   6  28
BRANCH   1  32
ATOM     31  C   UNL     1       1.451   9.066  17.829  0.00  0.00    +0.000 C 
ATOM     32  O   UNL     1       0.419  10.006  18.105  0.00  0.00    +0.000 OA
ENDBRANCH   1  32
TORSDOF 2
ENDMDL
MODEL 5
REMARK VINA RESULT:      -6.0      2.187      7.755
REMARK  Name = 
REMARK  5 active torsions:
REMARK  status: ('A' for Active; 'I' for Inactive)
REMARK    1  A    between atoms: C_1  and  O_2
REMARK    2  A    between atoms: O_2  and  C_3
REMARK    3  A    between atoms: C_8  and  C_9
REMARK    4  A    between atoms: C_9  and  C_10
REMARK    5  A    between atoms: C_9  and  C_11
REMARK                            x       y       z     vdW  Elec       q    Type
REMARK                         _______ _______ _______ _____ _____    ______ ____
ROOT
ATOM      1  C   UNL     1       1.884  15.780  21.778  0.00  0.00    +0.000 A 
ATOM      2  C   UNL     1       3.029  15.049  21.465  0.00  0.00    +0.000 A 
ATOM      3  C   UNL     1       2.926  13.744  20.965  0.00  0.00    +0.000 A 
ATOM      4  C   UNL     1       1.658  13.173  20.777  0.00  0.00    +0.000 A 
ATOM      5  N   UNL     1       1.330  11.950  20.270  0.00  0.00    +0.000 NA
ATOM      6  C   UNL     1       0.008  11.897  20.261  0.00  0.00    +0.000 A 
ATOM      7  N   UNL     1      -0.545  13.076  20.766  0.00  0.00    +0.000 N 
ATOM      8  C   UNL     1      -1.922  13.429  20.890  0.00  0.00    +0.000 A 
ATOM      9  N   UNL     1      -2.238  14.371  21.776  0.00  0.00    +0.000 NA
ATOM     10  C   UNL     1      -3.520  14.670  21.894  0.00  0.00    +0.000 A 
ATOM     11  N   UNL     1      -3.912  15.519  22.897  0.00  0.00    +0.000 N 
ATOM     12  C   UNL     1      -2.921  16.223  23.712  0.00  0.00    +0.000 C 
ATOM     13  C   UNL     1      -3.516  16.450  25.113  0.00  0.00    +0.000 C 
ATOM     14  O   UNL     1      -4.777  17.141  25.050  0.00  0.00    +0.000 OA
ATOM     15  C   UNL     1      -5.724  16.391  24.268  0.00  0.00    +0.000 C 
ATOM     16  C   UNL     1      -5.220  16.169  22.833  0.00  0.00    +0.000 C 
ATOM     17  N   UNL     1      -4.453  14.104  21.138  0.00  0.00    +0.000 NA
ATOM     18  C   UNL     1      -4.072  13.184  20.263  0.00  0.00    +0.000 A 
ATOM     19  N   UNL     1      -5.027  12.536  19.529  0.00  0.00    +0.000 N 
ATOM     20  C   UNL     1      -6.444  12.866  19.657  0.00  0.00    +0.000 C 
ATOM     21  C   UNL     1      -7.252  11.559  19.613  0.00  0.00    +0.000 C 
ATOM     22  O   UNL     1      -6.956  10.787  18.435  0.00  0.00    +0.000 OA
ATOM     23  C   UNL     1      -5.556  10.459  18.385  0.00  0.00    +0.000 C 
ATOM     24  C   UNL     1      -4.682  11.722  18.367  0.00  0.00    +0.000 C 
ATOM     25  N   UNL     1      -2.809  12.810  20.120  0.00  0.00    +0.000 NA
ATOM     26  C   UNL     1       0.524  13.898  21.112  0.00  0.00    +0.000 A 
ATOM     27  C   UNL     1       0.618  15.210  21.619  0.00  0.00    +0.000 A 
ENDROOT
BRANCH   6  28
ATOM     28  C   UNL     1      -0.750  10.673  19.808  0.00  0.00    +0.000 C 
ATOM     29  C   UNL     1      -0.517  10.444  18.313  0.00  0.00    +0.000 C 
ATOM     30  C   UNL     1      -0.323   9.437  20.607  0.00  0.00    +0.000 C 
ENDBRANCH   6  28
BRANCH   1  32
ATOM     31  C   UNL     1       0.676  17.802  22.052  0.00  0.00    +0.000 C 
ATOM     32  O   UNL     1       1.867  17.056  22.277  0.00  0.00    +0.000 OA
ENDBRANCH   1  32
TORSDOF 2
ENDMDL
MODEL 6
REMARK VINA RESULT:      -6.0      2.164      6.333
REMARK  Name = 
REMARK  5 active torsions:
REMARK  status: ('A' for Active; 'I' for Inactive)
REMARK    1  A    between atoms: C_1  and  O_2
REMARK    2  A    between atoms: O_2  and  C_3
REMARK    3  A    between atoms: C_8  and  C_9
REMARK    4  A    between atoms: C_9  and  C_10
REMARK    5  A    between atoms: C_9  and  C_11
REMARK                            x       y       z     vdW  Elec       q    Type
REMARK                         _______ _______ _______ _____ _____    ______ ____
ROOT
ATOM      1  C   UNL     1      -3.582  16.025  24.905  0.00  0.00    +0.000 A 
ATOM      2  C   UNL     1      -4.769  16.738  25.064  0.00  0.00    +0.000 A 
ATOM      3  C   UNL     1      -5.721  16.776  24.036  0.00  0.00    +0.000 A 
ATOM      4  C   UNL     1      -5.473  16.087  22.839  0.00  0.00    +0.000 A 
ATOM      5  N   UNL     1      -6.269  15.957  21.738  0.00  0.00    +0.000 NA
ATOM      6  C   UNL     1      -5.607  15.183  20.893  0.00  0.00    +0.000 A 
ATOM      7  N   UNL     1      -4.372  14.803  21.424  0.00  0.00    +0.000 N 
ATOM      8  C   UNL     1      -3.384  13.948  20.849  0.00  0.00    +0.000 A 
ATOM      9  N   UNL     1      -2.135  14.068  21.292  0.00  0.00    +0.000 NA
ATOM     10  C   UNL     1      -1.229  13.285  20.733  0.00  0.00    +0.000 A 
ATOM     11  N   UNL     1       0.094  13.477  21.044  0.00  0.00    +0.000 N 
ATOM     12  C   UNL     1       0.487  14.407  22.104  0.00  0.00    +0.000 C 
ATOM     13  C   UNL     1       1.870  14.984  21.756  0.00  0.00    +0.000 C 
ATOM     14  O   UNL     1       2.841  13.945  21.539  0.00  0.00    +0.000 OA
ATOM     15  C   UNL     1       2.424  13.081  20.467  0.00  0.00    +0.000 C 
ATOM     16  C   UNL     1       1.068  12.423  20.767  0.00  0.00    +0.000 C 
ATOM     17  N   UNL     1      -1.541  12.384  19.812  0.00  0.00    +0.000 NA
ATOM     18  C   UNL     1      -2.806  12.303  19.423  0.00  0.00    +0.000 A 
ATOM     19  N   UNL     1      -3.135  11.434  18.420  0.00  0.00    +0.000 N 
ATOM     20  C   UNL     1      -2.135  10.566  17.802  0.00  0.00    +0.000 C 
ATOM     21  C   UNL     1      -2.405  10.515  16.290  0.00  0.00    +0.000 C 
ATOM     22  O   UNL     1      -3.757  10.113  16.002  0.00  0.00    +0.000 OA
ATOM     23  C   UNL     1      -4.694  11.026  16.602  0.00  0.00    +0.000 C 
ATOM     24  C   UNL     1      -4.522  11.087  18.127  0.00  0.00    +0.000 C 
ATOM     25  N   UNL     1      -3.758  13.083  19.915  0.00  0.00    +0.000 NA
ATOM     26  C   UNL     1      -4.279  15.399  22.679  0.00  0.00    +0.000 A 
ATOM     27  C   UNL     1      -3.316  15.358  23.706  0.00  0.00    +0.000 A 
ENDROOT
BRANCH   6  28
ATOM     28  C   UNL     1      -6.141  14.836  19.525  0.00  0.00    +0.000 C 
ATOM     29  C   UNL     1      -7.343  13.899  19.660  0.00  0.00    +0.000 C 
ATOM     30  C   UNL     1      -6.537  16.101  18.755  0.00  0.00    +0.000 C 
ENDBRANCH   6  28
BRANCH   1  32
ATOM     31  C   UNL     1      -1.287  15.618  25.340  0.00  0.00    +0.000 C 
ATOM     32  O   UNL     1      -2.584  15.925  25.838  0.00  0.00    +0.000 OA
ENDBRANCH   1  32
TORSDOF 2
ENDMDL
MODEL 7
REMARK VINA RESULT:      -6.0      2.042      7.363
REMARK  Name = 
REMARK  5 active torsions:
REMARK  status: ('A' for Active; 'I' for Inactive)
REMARK    1  A    between atoms: C_1  and  O_2
REMARK    2  A    between atoms: O_2  and  C_3
REMARK    3  A    between atoms: C_8  and  C_9
REMARK    4  A    between atoms: C_9  and  C_10
REMARK    5  A    between atoms: C_9  and  C_11
REMARK                            x       y       z     vdW  Elec       q    Type
REMARK                         _______ _______ _______ _____ _____    ______ ____
ROOT
ATOM      1  C   UNL     1       1.523  16.032  19.597  0.00  0.00    +0.000 A 
ATOM      2  C   UNL     1       2.480  15.312  18.883  0.00  0.00    +0.000 A 
ATOM      3  C   UNL     1       2.241  13.981  18.513  0.00  0.00    +0.000 A 
ATOM      4  C   UNL     1       1.025  13.374  18.864  0.00  0.00    +0.000 A 
ATOM      5  N   UNL     1       0.573  12.120  18.575  0.00  0.00    +0.000 NA
ATOM      6  C   UNL     1      -0.642  12.037  19.093  0.00  0.00    +0.000 A 
ATOM      7  N   UNL     1      -0.997  13.227  19.731  0.00  0.00    +0.000 N 
ATOM      8  C   UNL     1      -2.226  13.555  20.378  0.00  0.00    +0.000 A 
ATOM      9  N   UNL     1      -2.204  14.533  21.282  0.00  0.00    +0.000 NA
ATOM     10  C   UNL     1      -3.346  14.808  21.887  0.00  0.00    +0.000 A 
ATOM     11  N   UNL     1      -3.343  15.698  22.931  0.00  0.00    +0.000 N 
ATOM     12  C   UNL     1      -2.140  16.464  23.260  0.00  0.00    +0.000 C 
ATOM     13  C   UNL     1      -2.142  16.747  24.772  0.00  0.00    +0.000 C 
ATOM     14  O   UNL     1      -3.352  17.405  25.189  0.00  0.00    +0.000 OA
ATOM     15  C   UNL     1      -4.500  16.597  24.874  0.00  0.00    +0.000 C 
ATOM     16  C   UNL     1      -4.595  16.315  23.367  0.00  0.00    +0.000 C 
ATOM     17  N   UNL     1      -4.478  14.186  21.584  0.00  0.00    +0.000 NA
ATOM     18  C   UNL     1      -4.437  13.231  20.665  0.00  0.00    +0.000 A 
ATOM     19  N   UNL     1      -5.577  12.526  20.394  0.00  0.00    +0.000 N 
ATOM     20  C   UNL     1      -6.841  12.831  21.061  0.00  0.00    +0.000 C 
ATOM     21  C   UNL     1      -7.547  11.506  21.389  0.00  0.00    +0.000 C 
ATOM     22  O   UNL     1      -7.709  10.683  20.220  0.00  0.00    +0.000 OA
ATOM     23  C   UNL     1      -6.431  10.384  19.632  0.00  0.00    +0.000 C 
ATOM     24  C   UNL     1      -5.688  11.664  19.222  0.00  0.00    +0.000 C 
ATOM     25  N   UNL     1      -3.319  12.879  20.047  0.00  0.00    +0.000 NA
ATOM     26  C   UNL     1       0.088  14.089  19.595  0.00  0.00    +0.000 A 
ATOM     27  C   UNL     1       0.321  15.426  19.974  0.00  0.00    +0.000 A 
ENDROOT
BRANCH   6  28
ATOM     28  C   UNL     1      -1.467  10.776  19.023  0.00  0.00    +0.000 C 
ATOM     29  C   UNL     1      -1.680  10.376  17.561  0.00  0.00    +0.000 C 
ATOM     30  C   UNL     1      -0.791   9.635  19.792  0.00  0.00    +0.000 C 
ENDBRANCH   6  28
BRANCH   1  32
ATOM     31  C   UNL     1       0.534  17.887  20.693  0.00  0.00    +0.000 C 
ATOM     32  O   UNL     1       1.653  17.330  20.014  0.00  0.00    +0.000 OA
ENDBRANCH   1  32
TORSDOF 2
ENDMDL
MODEL 8
REMARK VINA RESULT:      -6.0      2.040      5.830
REMARK  Name = 
REMARK  5 active torsions:
REMARK  status: ('A' for Active; 'I' for Inactive)
REMARK    1  A    between atoms: C_1  and  O_2
REMARK    2  A    between atoms: O_2  and  C_3
REMARK    3  A    between atoms: C_8  and  C_9
REMARK    4  A    between atoms: C_9  and  C_10
REMARK    5  A    between atoms: C_9  and  C_11
REMARK                            x       y       z     vdW  Elec       q    Type
REMARK                         _______ _______ _______ _____ _____    ______ ____
ROOT
ATOM      1  C   UNL     1      -6.545  12.650  21.542  0.00  0.00    +0.000 A 
ATOM      2  C   UNL     1      -7.318  11.770  20.785  0.00  0.00    +0.000 A 
ATOM      3  C   UNL     1      -6.795  11.177  19.628  0.00  0.00    +0.000 A 
ATOM      4  C   UNL     1      -5.480  11.471  19.235  0.00  0.00    +0.000 A 
ATOM      5  N   UNL     1      -4.766  10.981  18.181  0.00  0.00    +0.000 NA
ATOM      6  C   UNL     1      -3.566  11.535  18.258  0.00  0.00    +0.000 A 
ATOM      7  N   UNL     1      -3.482  12.395  19.355  0.00  0.00    +0.000 N 
ATOM      8  C   UNL     1      -2.358  13.151  19.805  0.00  0.00    +0.000 A 
ATOM      9  N   UNL     1      -2.599  14.215  20.569  0.00  0.00    +0.000 NA
ATOM     10  C   UNL     1      -1.548  14.915  20.959  0.00  0.00    +0.000 A 
ATOM     11  N   UNL     1      -1.752  16.103  21.616  0.00  0.00    +0.000 N 
ATOM     12  C   UNL     1      -3.094  16.505  22.036  0.00  0.00    +0.000 C 
ATOM     13  C   UNL     1      -3.168  18.042  22.024  0.00  0.00    +0.000 C 
ATOM     14  O   UNL     1      -2.131  18.631  22.831  0.00  0.00    +0.000 OA
ATOM     15  C   UNL     1      -0.833  18.231  22.355  0.00  0.00    +0.000 C 
ATOM     16  C   UNL     1      -0.666  16.704  22.388  0.00  0.00    +0.000 C 
ATOM     17  N   UNL     1      -0.306  14.561  20.656  0.00  0.00    +0.000 NA
ATOM     18  C   UNL     1      -0.132  13.482  19.905  0.00  0.00    +0.000 A 
ATOM     19  N   UNL     1       1.136  13.144  19.518  0.00  0.00    +0.000 N 
ATOM     20  C   UNL     1       2.298  13.917  19.950  0.00  0.00    +0.000 C 
ATOM     21  C   UNL     1       3.270  14.033  18.765  0.00  0.00    +0.000 C 
ATOM     22  O   UNL     1       3.616  12.743  18.229  0.00  0.00    +0.000 OA
ATOM     23  C   UNL     1       2.437  12.048  17.785  0.00  0.00    +0.000 C 
ATOM     24  C   UNL     1       1.440  11.842  18.934  0.00  0.00    +0.000 C 
ATOM     25  N   UNL     1      -1.142  12.756  19.449  0.00  0.00    +0.000 NA
ATOM     26  C   UNL     1      -4.725  12.365  19.980  0.00  0.00    +0.000 A 
ATOM     27  C   UNL     1      -5.245  12.969  21.143  0.00  0.00    +0.000 A 
ENDROOT
BRANCH   6  28
ATOM     28  C   UNL     1      -2.488  11.277  17.235  0.00  0.00    +0.000 C 
ATOM     29  C   UNL     1      -1.710  10.014  17.608  0.00  0.00    +0.000 C 
ATOM     30  C   UNL     1      -3.088  11.135  15.831  0.00  0.00    +0.000 C 
ENDBRANCH   6  28
BRANCH   1  32
ATOM     31  C   UNL     1      -5.979  13.432  23.708  0.00  0.00    +0.000 C 
ATOM     32  O   UNL     1      -6.955  13.288  22.683  0.00  0.00    +0.000 OA
ENDBRANCH   1  32
TORSDOF 2
ENDMDL
MODEL 9
REMARK VINA RESULT:      -6.0      1.816      2.586
REMARK  Name = 
REMARK  5 active torsions:
REMARK  status: ('A' for Active; 'I' for Inactive)
REMARK    1  A    between atoms: C_1  and  O_2
REMARK    2  A    between atoms: O_2  and  C_3
REMARK    3  A    between atoms: C_8  and  C_9
REMARK    4  A    between atoms: C_9  and  C_10
REMARK    5  A    between atoms: C_9  and  C_11
REMARK                            x       y       z     vdW  Elec       q    Type
REMARK                         _______ _______ _______ _____ _____    ______ ____
ROOT
ATOM      1  C   UNL     1      -6.338  11.826  20.351  0.00  0.00    +0.000 A 
ATOM      2  C   UNL     1      -7.408  11.998  21.228  0.00  0.00    +0.000 A 
ATOM      3  C   UNL     1      -7.285  12.833  22.347  0.00  0.00    +0.000 A 
ATOM      4  C   UNL     1      -6.073  13.501  22.581  0.00  0.00    +0.000 A 
ATOM      5  N   UNL     1      -5.752  14.381  23.573  0.00  0.00    +0.000 NA
ATOM      6  C   UNL     1      -4.506  14.761  23.340  0.00  0.00    +0.000 A 
ATOM      7  N   UNL     1      -3.996  14.133  22.201  0.00  0.00    +0.000 N 
ATOM      8  C   UNL     1      -2.714  14.299  21.597  0.00  0.00    +0.000 A 
ATOM      9  N   UNL     1      -2.271  13.316  20.815  0.00  0.00    +0.000 NA
ATOM     10  C   UNL     1      -1.073  13.476  20.281  0.00  0.00    +0.000 A 
ATOM     11  N   UNL     1      -0.509  12.429  19.596  0.00  0.00    +0.000 N 
ATOM     12  C   UNL     1      -1.283  11.221  19.305  0.00  0.00    +0.000 C 
ATOM     13  C   UNL     1      -0.315  10.025  19.254  0.00  0.00    +0.000 C 
ATOM     14  O   UNL     1       0.751  10.243  18.312  0.00  0.00    +0.000 OA
ATOM     15  C   UNL     1       1.499  11.422  18.662  0.00  0.00    +0.000 C 
ATOM     16  C   UNL     1       0.607  12.672  18.683  0.00  0.00    +0.000 C 
ATOM     17  N   UNL     1      -0.356  14.577  20.463  0.00  0.00    +0.000 NA
ATOM     18  C   UNL     1      -0.859  15.526  21.240  0.00  0.00    +0.000 A 
ATOM     19  N   UNL     1      -0.102  16.635  21.502  0.00  0.00    +0.000 N 
ATOM     20  C   UNL     1       1.222  16.814  20.910  0.00  0.00    +0.000 C 
ATOM     21  C   UNL     1       2.151  17.417  21.976  0.00  0.00    +0.000 C 
ATOM     22  O   UNL     1       1.611  18.631  22.530  0.00  0.00    +0.000 OA
ATOM     23  C   UNL     1       0.328  18.384  23.132  0.00  0.00    +0.000 C 
ATOM     24  C   UNL     1      -0.676  17.831  22.109  0.00  0.00    +0.000 C 
ATOM     25  N   UNL     1      -2.037  15.415  21.837  0.00  0.00    +0.000 NA
ATOM     26  C   UNL     1      -5.006  13.307  21.717  0.00  0.00    +0.000 A 
ATOM     27  C   UNL     1      -5.120  12.467  20.591  0.00  0.00    +0.000 A 
ENDROOT
BRANCH   6  28
ATOM     28  C   UNL     1      -3.765  15.708  24.251  0.00  0.00    +0.000 C 
ATOM     29  C   UNL     1      -4.742  16.723  24.849  0.00  0.00    +0.000 C 
ATOM     30  C   UNL     1      -3.045  14.943  25.367  0.00  0.00    +0.000 C 
ENDBRANCH   6  28
BRANCH   1  32
ATOM     31  C   UNL     1      -6.767  11.655  18.025  0.00  0.00    +0.000 C 
ATOM     32  O   UNL     1      -6.346  11.034  19.233  0.00  0.00    +0.000 OA
ENDBRANCH   1  32
TORSDOF 2
ENDMDL
