MODEL 1
REMARK VINA RESULT:      -7.8      0.000      0.000
REMARK  Name = 
REMARK  10 active torsions:
REMARK  status: ('A' for Active; 'I' for Inactive)
REMARK    1  A    between atoms: C_1  and  O_2
REMARK    2  A    between atoms: O_2  and  C_3
REMARK    3  A    between atoms: C_5  and  C_6
REMARK    4  A    between atoms: C_6  and  C_8
REMARK    5  A    between atoms: C_13  and  N_14
REMARK    6  A    between atoms: C_15  and  C_17
REMARK    7  A    between atoms: C_23  and  O_24
REMARK    8  A    between atoms: O_24  and  C_25
REMARK    9  A    between atoms: C_26  and  O_27
REMARK   10  A    between atoms: O_27  and  C_28
REMARK                            x       y       z     vdW  Elec       q    Type
REMARK                         _______ _______ _______ _____ _____    ______ ____
ROOT
ATOM      1  C   UNL     1       1.678   8.608  19.254  0.00  0.00    +0.000 A 
ATOM      2  C   UNL     1       1.625   8.104  20.541  0.00  0.00    +0.000 A 
ATOM      3  C   UNL     1       0.837   8.955  21.319  0.00  0.00    +0.000 A 
ATOM      4  C   UNL     1       0.471   8.934  22.662  0.00  0.00    +0.000 A 
ATOM      5  C   UNL     1      -0.344   9.948  23.142  0.00  0.00    +0.000 A 
ATOM      6  C   UNL     1      -0.816  10.980  22.324  0.00  0.00    +0.000 A 
ATOM      7  C   UNL     1      -0.474  10.986  20.942  0.00  0.00    +0.000 A 
ATOM      8  C   UNL     1       0.382   9.962  20.474  0.00  0.00    +0.000 A 
ATOM      9  O   UNL     1       0.908   9.757  19.192  0.00  0.00    +0.000 OA
ENDROOT
BRANCH   6  10
ATOM     10  N   UNL     1      -1.654  11.997  22.864  0.00  0.00    +0.000 N 
ATOM     11  C   UNL     1      -1.250  13.296  23.191  0.00  0.00    +0.000 C 
ATOM     12  O   UNL     1      -0.157  13.807  22.928  0.00  0.00    +0.000 OA
ATOM     13  H   UNL     1      -2.623  11.757  23.005  0.00  0.00    +0.000 HD
BRANCH  11  14
ATOM     14  C   UNL     1      -2.309  14.153  23.864  0.00  0.00    +0.000 C 
ATOM     15  I   UNL     1      -4.121  13.074  24.003  0.00  0.00    +0.000 I 
ENDBRANCH  11  14
ENDBRANCH   6  10
BRANCH   1  16
ATOM     16  C   UNL     1       2.414   7.925  18.198  0.00  0.00    +0.000 C 
ATOM     17  O   UNL     1       2.680   8.593  17.182  0.00  0.00    +0.000 OA
BRANCH  16  20
ATOM     18  C   UNL     1       2.169   4.161  17.892  0.00  0.00    +0.000 A 
ATOM     19  C   UNL     1       1.900   5.524  18.072  0.00  0.00    +0.000 A 
ATOM     20  C   UNL     1       2.904   6.522  18.113  0.00  0.00    +0.000 A 
ATOM     21  C   UNL     1       4.222   6.099  18.053  0.00  0.00    +0.000 A 
ATOM     22  C   UNL     1       4.520   4.721  17.927  0.00  0.00    +0.000 A 
ATOM     23  C   UNL     1       3.501   3.730  17.861  0.00  0.00    +0.000 A 
BRANCH  18  25
ATOM     24  C   UNL     1       0.634   2.700  18.973  0.00  0.00    +0.000 C 
ATOM     25  O   UNL     1       1.140   3.262  17.760  0.00  0.00    +0.000 OA
ENDBRANCH  18  25
BRANCH  22  26
ATOM     26  O   UNL     1       5.881   4.481  17.918  0.00  0.00    +0.000 OA
ATOM     27  C   UNL     1       6.633   5.038  16.847  0.00  0.00    +0.000 C 
ENDBRANCH  22  26
BRANCH  23  28
ATOM     28  O   UNL     1       3.926   2.435  17.761  0.00  0.00    +0.000 OA
ATOM     29  C   UNL     1       3.973   1.559  18.875  0.00  0.00    +0.000 C 
ENDBRANCH  23  28
ENDBRANCH  16  20
ENDBRANCH   1  16
TORSDOF 7
ENDMDL
MODEL 2
REMARK VINA RESULT:      -7.8      0.621      2.436
REMARK  Name = 
REMARK  10 active torsions:
REMARK  status: ('A' for Active; 'I' for Inactive)
REMARK    1  A    between atoms: C_1  and  O_2
REMARK    2  A    between atoms: O_2  and  C_3
REMARK    3  A    between atoms: C_5  and  C_6
REMARK    4  A    between atoms: C_6  and  C_8
REMARK    5  A    between atoms: C_13  and  N_14
REMARK    6  A    between atoms: C_15  and  C_17
REMARK    7  A    between atoms: C_23  and  O_24
REMARK    8  A    between atoms: O_24  and  C_25
REMARK    9  A    between atoms: C_26  and  O_27
REMARK   10  A    between atoms: O_27  and  C_28
REMARK                            x       y       z     vdW  Elec       q    Type
REMARK                         _______ _______ _______ _____ _____    ______ ____
ROOT
ATOM      1  C   UNL     1       1.570   8.607  19.388  0.00  0.00    +0.000 A 
ATOM      2  C   UNL     1       1.466   8.153  20.690  0.00  0.00    +0.000 A 
ATOM      3  C   UNL     1       0.691   9.059  21.416  0.00  0.00    +0.000 A 
ATOM      4  C   UNL     1       0.290   9.100  22.749  0.00  0.00    +0.000 A 
ATOM      5  C   UNL     1      -0.499  10.159  23.171  0.00  0.00    +0.000 A 
ATOM      6  C   UNL     1      -0.914  11.176  22.304  0.00  0.00    +0.000 A 
ATOM      7  C   UNL     1      -0.538  11.119  20.932  0.00  0.00    +0.000 A 
ATOM      8  C   UNL     1       0.293  10.050  20.524  0.00  0.00    +0.000 A 
ATOM      9  O   UNL     1       0.843   9.779  19.264  0.00  0.00    +0.000 OA
ENDROOT
BRANCH   6  10
ATOM     10  N   UNL     1      -1.728  12.241  22.786  0.00  0.00    +0.000 N 
ATOM     11  C   UNL     1      -1.270  13.506  23.170  0.00  0.00    +0.000 C 
ATOM     12  O   UNL     1      -0.126  13.945  23.016  0.00  0.00    +0.000 OA
ATOM     13  H   UNL     1      -2.719  12.065  22.835  0.00  0.00    +0.000 HD
BRANCH  11  14
ATOM     14  C   UNL     1      -2.326  14.424  23.761  0.00  0.00    +0.000 C 
ATOM     15  I   UNL     1      -4.213  13.472  23.709  0.00  0.00    +0.000 I 
ENDBRANCH  11  14
ENDBRANCH   6  10
BRANCH   1  16
ATOM     16  C   UNL     1       2.306   7.861  18.376  0.00  0.00    +0.000 C 
ATOM     17  O   UNL     1       2.607   8.477  17.338  0.00  0.00    +0.000 OA
BRANCH  16  20
ATOM     18  C   UNL     1       4.686   4.961  18.876  0.00  0.00    +0.000 A 
ATOM     19  C   UNL     1       4.112   6.231  18.735  0.00  0.00    +0.000 A 
ATOM     20  C   UNL     1       2.763   6.444  18.362  0.00  0.00    +0.000 A 
ATOM     21  C   UNL     1       2.008   5.326  18.043  0.00  0.00    +0.000 A 
ATOM     22  C   UNL     1       2.584   4.035  18.124  0.00  0.00    +0.000 A 
ATOM     23  C   UNL     1       3.934   3.832  18.526  0.00  0.00    +0.000 A 
BRANCH  18  25
ATOM     24  C   UNL     1       7.002   5.352  18.501  0.00  0.00    +0.000 C 
ATOM     25  O   UNL     1       5.971   4.827  19.340  0.00  0.00    +0.000 OA
ENDBRANCH  18  25
BRANCH  22  26
ATOM     26  O   UNL     1       1.700   3.045  17.737  0.00  0.00    +0.000 OA
ATOM     27  C   UNL     1       0.825   2.529  18.732  0.00  0.00    +0.000 C 
ENDBRANCH  22  26
BRANCH  23  28
ATOM     28  O   UNL     1       4.370   2.537  18.542  0.00  0.00    +0.000 OA
ATOM     29  C   UNL     1       4.387   1.753  19.723  0.00  0.00    +0.000 C 
ENDBRANCH  23  28
ENDBRANCH  16  20
ENDBRANCH   1  16
TORSDOF 7
ENDMDL
MODEL 3
REMARK VINA RESULT:      -7.7      1.227      2.648
REMARK  Name = 
REMARK  10 active torsions:
REMARK  status: ('A' for Active; 'I' for Inactive)
REMARK    1  A    between atoms: C_1  and  O_2
REMARK    2  A    between atoms: O_2  and  C_3
REMARK    3  A    between atoms: C_5  and  C_6
REMARK    4  A    between atoms: C_6  and  C_8
REMARK    5  A    between atoms: C_13  and  N_14
REMARK    6  A    between atoms: C_15  and  C_17
REMARK    7  A    between atoms: C_23  and  O_24
REMARK    8  A    between atoms: O_24  and  C_25
REMARK    9  A    between atoms: C_26  and  O_27
REMARK   10  A    between atoms: O_27  and  C_28
REMARK                            x       y       z     vdW  Elec       q    Type
REMARK                         _______ _______ _______ _____ _____    ______ ____
ROOT
ATOM      1  C   UNL     1       1.554   8.772  19.368  0.00  0.00    +0.000 A 
ATOM      2  C   UNL     1       1.230   8.237  20.601  0.00  0.00    +0.000 A 
ATOM      3  C   UNL     1       0.567   9.212  21.348  0.00  0.00    +0.000 A 
ATOM      4  C   UNL     1       0.043   9.217  22.638  0.00  0.00    +0.000 A 
ATOM      5  C   UNL     1      -0.573  10.370  23.099  0.00  0.00    +0.000 A 
ATOM      6  C   UNL     1      -0.694  11.520  22.311  0.00  0.00    +0.000 A 
ATOM      7  C   UNL     1      -0.193  11.508  20.978  0.00  0.00    +0.000 A 
ATOM      8  C   UNL     1       0.460  10.335  20.533  0.00  0.00    +0.000 A 
ATOM      9  O   UNL     1       1.078  10.071  19.305  0.00  0.00    +0.000 OA
ENDROOT
BRANCH   6  10
ATOM     10  N   UNL     1      -1.339  12.679  22.829  0.00  0.00    +0.000 N 
ATOM     11  C   UNL     1      -2.646  12.729  23.329  0.00  0.00    +0.000 C 
ATOM     12  O   UNL     1      -3.384  11.760  23.535  0.00  0.00    +0.000 OA
ATOM     13  H   UNL     1      -0.796  13.528  22.849  0.00  0.00    +0.000 HD
BRANCH  11  14
ATOM     14  C   UNL     1      -3.139  14.113  23.712  0.00  0.00    +0.000 C 
ATOM     15  I   UNL     1      -1.555  15.231  24.552  0.00  0.00    +0.000 I 
ENDBRANCH  11  14
ENDBRANCH   6  10
BRANCH   1  16
ATOM     16  C   UNL     1       2.240   7.985  18.351  0.00  0.00    +0.000 C 
ATOM     17  O   UNL     1       2.493   8.560  17.277  0.00  0.00    +0.000 OA
BRANCH  16  20
ATOM     18  C   UNL     1       4.607   5.087  18.916  0.00  0.00    +0.000 A 
ATOM     19  C   UNL     1       4.038   6.355  18.747  0.00  0.00    +0.000 A 
ATOM     20  C   UNL     1       2.690   6.565  18.368  0.00  0.00    +0.000 A 
ATOM     21  C   UNL     1       1.931   5.444  18.073  0.00  0.00    +0.000 A 
ATOM     22  C   UNL     1       2.501   4.153  18.184  0.00  0.00    +0.000 A 
ATOM     23  C   UNL     1       3.850   3.954  18.590  0.00  0.00    +0.000 A 
BRANCH  18  25
ATOM     24  C   UNL     1       6.932   5.096  18.415  0.00  0.00    +0.000 C 
ATOM     25  O   UNL     1       5.891   4.958  19.384  0.00  0.00    +0.000 OA
ENDBRANCH  18  25
BRANCH  22  26
ATOM     26  O   UNL     1       1.613   3.159  17.817  0.00  0.00    +0.000 OA
ATOM     27  C   UNL     1       0.820   2.584  18.848  0.00  0.00    +0.000 C 
ENDBRANCH  22  26
BRANCH  23  28
ATOM     28  O   UNL     1       4.281   2.658  18.635  0.00  0.00    +0.000 OA
ATOM     29  C   UNL     1       4.391   1.932  19.849  0.00  0.00    +0.000 C 
ENDBRANCH  23  28
ENDBRANCH  16  20
ENDBRANCH   1  16
TORSDOF 7
ENDMDL
MODEL 4
REMARK VINA RESULT:      -7.5      1.076      1.076
REMARK  Name = 
REMARK  10 active torsions:
REMARK  status: ('A' for Active; 'I' for Inactive)
REMARK    1  A    between atoms: C_1  and  O_2
REMARK    2  A    between atoms: O_2  and  C_3
REMARK    3  A    between atoms: C_5  and  C_6
REMARK    4  A    between atoms: C_6  and  C_8
REMARK    5  A    between atoms: C_13  and  N_14
REMARK    6  A    between atoms: C_15  and  C_17
REMARK    7  A    between atoms: C_23  and  O_24
REMARK    8  A    between atoms: O_24  and  C_25
REMARK    9  A    between atoms: C_26  and  O_27
REMARK   10  A    between atoms: O_27  and  C_28
REMARK                            x       y       z     vdW  Elec       q    Type
REMARK                         _______ _______ _______ _____ _____    ______ ____
ROOT
ATOM      1  C   UNL     1       1.641   8.371  19.674  0.00  0.00    +0.000 A 
ATOM      2  C   UNL     1       1.479   8.049  21.009  0.00  0.00    +0.000 A 
ATOM      3  C   UNL     1       0.641   8.999  21.596  0.00  0.00    +0.000 A 
ATOM      4  C   UNL     1       0.167   9.163  22.895  0.00  0.00    +0.000 A 
ATOM      5  C   UNL     1      -0.672  10.233  23.164  0.00  0.00    +0.000 A 
ATOM      6  C   UNL     1      -1.067  11.142  22.175  0.00  0.00    +0.000 A 
ATOM      7  C   UNL     1      -0.615  10.957  20.838  0.00  0.00    +0.000 A 
ATOM      8  C   UNL     1       0.265   9.879  20.586  0.00  0.00    +0.000 A 
ATOM      9  O   UNL     1       0.890   9.499  19.391  0.00  0.00    +0.000 OA
ENDROOT
BRANCH   6  10
ATOM     10  N   UNL     1      -1.935  12.223  22.501  0.00  0.00    +0.000 N 
ATOM     11  C   UNL     1      -1.570  13.376  23.206  0.00  0.00    +0.000 C 
ATOM     12  O   UNL     1      -0.422  13.703  23.523  0.00  0.00    +0.000 OA
ATOM     13  H   UNL     1      -2.887  12.151  22.179  0.00  0.00    +0.000 HD
BRANCH  11  14
ATOM     14  C   UNL     1      -2.711  14.325  23.528  0.00  0.00    +0.000 C 
ATOM     15  I   UNL     1      -4.480  13.225  23.885  0.00  0.00    +0.000 I 
ENDBRANCH  11  14
ENDBRANCH   6  10
BRANCH   1  16
ATOM     16  C   UNL     1       2.451   7.549  18.784  0.00  0.00    +0.000 C 
ATOM     17  O   UNL     1       2.689   8.016  17.655  0.00  0.00    +0.000 OA
BRANCH  16  20
ATOM     18  C   UNL     1       2.508   3.835  19.510  0.00  0.00    +0.000 A 
ATOM     19  C   UNL     1       2.145   5.181  19.369  0.00  0.00    +0.000 A 
ATOM     20  C   UNL     1       3.050   6.201  18.991  0.00  0.00    +0.000 A 
ATOM     21  C   UNL     1       4.380   5.845  18.837  0.00  0.00    +0.000 A 
ATOM     22  C   UNL     1       4.782   4.501  19.028  0.00  0.00    +0.000 A 
ATOM     23  C   UNL     1       3.857   3.479  19.383  0.00  0.00    +0.000 A 
BRANCH  18  25
ATOM     24  C   UNL     1       0.862   2.350  18.649  0.00  0.00    +0.000 C 
ATOM     25  O   UNL     1       1.557   2.883  19.778  0.00  0.00    +0.000 OA
ENDBRANCH  18  25
BRANCH  22  26
ATOM     26  O   UNL     1       6.145   4.337  18.869  0.00  0.00    +0.000 OA
ATOM     27  C   UNL     1       6.962   5.489  19.034  0.00  0.00    +0.000 C 
ENDBRANCH  22  26
BRANCH  23  28
ATOM     28  O   UNL     1       4.380   2.228  19.557  0.00  0.00    +0.000 OA
ATOM     29  C   UNL     1       4.760   1.732  20.830  0.00  0.00    +0.000 C 
ENDBRANCH  23  28
ENDBRANCH  16  20
ENDBRANCH   1  16
TORSDOF 7
ENDMDL
MODEL 5
REMARK VINA RESULT:      -7.5      1.229      1.229
REMARK  Name = 
REMARK  10 active torsions:
REMARK  status: ('A' for Active; 'I' for Inactive)
REMARK    1  A    between atoms: C_1  and  O_2
REMARK    2  A    between atoms: O_2  and  C_3
REMARK    3  A    between atoms: C_5  and  C_6
REMARK    4  A    between atoms: C_6  and  C_8
REMARK    5  A    between atoms: C_13  and  N_14
REMARK    6  A    between atoms: C_15  and  C_17
REMARK    7  A    between atoms: C_23  and  O_24
REMARK    8  A    between atoms: O_24  and  C_25
REMARK    9  A    between atoms: C_26  and  O_27
REMARK   10  A    between atoms: O_27  and  C_28
REMARK                            x       y       z     vdW  Elec       q    Type
REMARK                         _______ _______ _______ _____ _____    ______ ____
ROOT
ATOM      1  C   UNL     1       1.590   8.737  19.519  0.00  0.00    +0.000 A 
ATOM      2  C   UNL     1       1.194   8.185  20.724  0.00  0.00    +0.000 A 
ATOM      3  C   UNL     1       0.525   9.164  21.462  0.00  0.00    +0.000 A 
ATOM      4  C   UNL     1      -0.059   9.156  22.725  0.00  0.00    +0.000 A 
ATOM      5  C   UNL     1      -0.662  10.317  23.184  0.00  0.00    +0.000 A 
ATOM      6  C   UNL     1      -0.714  11.487  22.417  0.00  0.00    +0.000 A 
ATOM      7  C   UNL     1      -0.151  11.489  21.110  0.00  0.00    +0.000 A 
ATOM      8  C   UNL     1       0.488  10.306  20.669  0.00  0.00    +0.000 A 
ATOM      9  O   UNL     1       1.155  10.050  19.465  0.00  0.00    +0.000 OA
ENDROOT
BRANCH   6  10
ATOM     10  N   UNL     1      -1.349  12.653  22.932  0.00  0.00    +0.000 N 
ATOM     11  C   UNL     1      -2.726  12.902  22.919  0.00  0.00    +0.000 C 
ATOM     12  O   UNL     1      -3.609  12.100  22.600  0.00  0.00    +0.000 OA
ATOM     13  H   UNL     1      -0.751  13.345  23.354  0.00  0.00    +0.000 HD
BRANCH  11  14
ATOM     14  C   UNL     1      -3.140  14.274  23.422  0.00  0.00    +0.000 C 
ATOM     15  I   UNL     1      -3.940  15.411  21.829  0.00  0.00    +0.000 I 
ENDBRANCH  11  14
ENDBRANCH   6  10
BRANCH   1  16
ATOM     16  C   UNL     1       2.300   7.952  18.518  0.00  0.00    +0.000 C 
ATOM     17  O   UNL     1       2.460   8.483  17.404  0.00  0.00    +0.000 OA
BRANCH  16  20
ATOM     18  C   UNL     1       2.372   4.185  18.163  0.00  0.00    +0.000 A 
ATOM     19  C   UNL     1       1.986   5.528  18.247  0.00  0.00    +0.000 A 
ATOM     20  C   UNL     1       2.870   6.578  18.592  0.00  0.00    +0.000 A 
ATOM     21  C   UNL     1       4.164   6.228  18.943  0.00  0.00    +0.000 A 
ATOM     22  C   UNL     1       4.564   4.870  18.919  0.00  0.00    +0.000 A 
ATOM     23  C   UNL     1       3.672   3.826  18.545  0.00  0.00    +0.000 A 
BRANCH  18  25
ATOM     24  C   UNL     1       0.798   2.497  18.735  0.00  0.00    +0.000 C 
ATOM     25  O   UNL     1       1.487   3.233  17.722  0.00  0.00    +0.000 OA
ENDBRANCH  18  25
BRANCH  22  26
ATOM     26  O   UNL     1       5.872   4.705  19.332  0.00  0.00    +0.000 OA
ATOM     27  C   UNL     1       6.839   5.604  18.804  0.00  0.00    +0.000 C 
ENDBRANCH  22  26
BRANCH  23  28
ATOM     28  O   UNL     1       4.179   2.558  18.585  0.00  0.00    +0.000 OA
ATOM     29  C   UNL     1       4.310   1.826  19.793  0.00  0.00    +0.000 C 
ENDBRANCH  23  28
ENDBRANCH  16  20
ENDBRANCH   1  16
TORSDOF 7
ENDMDL
MODEL 6
REMARK VINA RESULT:      -7.4      1.494      1.494
REMARK  Name = 
REMARK  10 active torsions:
REMARK  status: ('A' for Active; 'I' for Inactive)
REMARK    1  A    between atoms: C_1  and  O_2
REMARK    2  A    between atoms: O_2  and  C_3
REMARK    3  A    between atoms: C_5  and  C_6
REMARK    4  A    between atoms: C_6  and  C_8
REMARK    5  A    between atoms: C_13  and  N_14
REMARK    6  A    between atoms: C_15  and  C_17
REMARK    7  A    between atoms: C_23  and  O_24
REMARK    8  A    between atoms: O_24  and  C_25
REMARK    9  A    between atoms: C_26  and  O_27
REMARK   10  A    between atoms: O_27  and  C_28
REMARK                            x       y       z     vdW  Elec       q    Type
REMARK                         _______ _______ _______ _____ _____    ______ ____
ROOT
ATOM      1  C   UNL     1       1.635   8.499  19.802  0.00  0.00    +0.000 A 
ATOM      2  C   UNL     1       1.172   8.026  21.016  0.00  0.00    +0.000 A 
ATOM      3  C   UNL     1       0.505   9.063  21.672  0.00  0.00    +0.000 A 
ATOM      4  C   UNL     1      -0.129   9.142  22.908  0.00  0.00    +0.000 A 
ATOM      5  C   UNL     1      -0.713  10.344  23.279  0.00  0.00    +0.000 A 
ATOM      6  C   UNL     1      -0.694  11.472  22.450  0.00  0.00    +0.000 A 
ATOM      7  C   UNL     1      -0.079  11.385  21.169  0.00  0.00    +0.000 A 
ATOM      8  C   UNL     1       0.539  10.162  20.819  0.00  0.00    +0.000 A 
ATOM      9  O   UNL     1       1.246   9.821  19.660  0.00  0.00    +0.000 OA
ENDROOT
BRANCH   6  10
ATOM     10  N   UNL     1      -1.311  12.683  22.874  0.00  0.00    +0.000 N 
ATOM     11  C   UNL     1      -2.674  12.850  23.146  0.00  0.00    +0.000 C 
ATOM     12  O   UNL     1      -3.521  11.953  23.204  0.00  0.00    +0.000 OA
ATOM     13  H   UNL     1      -0.705  13.478  23.004  0.00  0.00    +0.000 HD
BRANCH  11  14
ATOM     14  C   UNL     1      -3.099  14.272  23.468  0.00  0.00    +0.000 C 
ATOM     15  I   UNL     1      -1.444  15.369  24.193  0.00  0.00    +0.000 I 
ENDBRANCH  11  14
ENDBRANCH   6  10
BRANCH   1  16
ATOM     16  C   UNL     1       2.359   7.640  18.874  0.00  0.00    +0.000 C 
ATOM     17  O   UNL     1       2.538   8.084  17.726  0.00  0.00    +0.000 OA
BRANCH  16  20
ATOM     18  C   UNL     1       2.343   3.940  19.673  0.00  0.00    +0.000 A 
ATOM     19  C   UNL     1       2.017   5.296  19.532  0.00  0.00    +0.000 A 
ATOM     20  C   UNL     1       2.925   6.275  19.062  0.00  0.00    +0.000 A 
ATOM     21  C   UNL     1       4.225   5.868  18.812  0.00  0.00    +0.000 A 
ATOM     22  C   UNL     1       4.593   4.513  18.999  0.00  0.00    +0.000 A 
ATOM     23  C   UNL     1       3.664   3.533  19.447  0.00  0.00    +0.000 A 
BRANCH  18  25
ATOM     24  C   UNL     1       1.309   2.713  21.428  0.00  0.00    +0.000 C 
ATOM     25  O   UNL     1       1.384   3.029  20.036  0.00  0.00    +0.000 OA
ENDBRANCH  18  25
BRANCH  22  26
ATOM     26  O   UNL     1       5.932   4.296  18.736  0.00  0.00    +0.000 OA
ATOM     27  C   UNL     1       6.392   4.586  17.422  0.00  0.00    +0.000 C 
ENDBRANCH  22  26
BRANCH  23  28
ATOM     28  O   UNL     1       4.155   2.267  19.607  0.00  0.00    +0.000 OA
ATOM     29  C   UNL     1       3.898   1.227  18.678  0.00  0.00    +0.000 C 
ENDBRANCH  23  28
ENDBRANCH  16  20
ENDBRANCH   1  16
TORSDOF 7
ENDMDL
MODEL 7
REMARK VINA RESULT:      -7.4      1.315      2.450
REMARK  Name = 
REMARK  10 active torsions:
REMARK  status: ('A' for Active; 'I' for Inactive)
REMARK    1  A    between atoms: C_1  and  O_2
REMARK    2  A    between atoms: O_2  and  C_3
REMARK    3  A    between atoms: C_5  and  C_6
REMARK    4  A    between atoms: C_6  and  C_8
REMARK    5  A    between atoms: C_13  and  N_14
REMARK    6  A    between atoms: C_15  and  C_17
REMARK    7  A    between atoms: C_23  and  O_24
REMARK    8  A    between atoms: O_24  and  C_25
REMARK    9  A    between atoms: C_26  and  O_27
REMARK   10  A    between atoms: O_27  and  C_28
REMARK                            x       y       z     vdW  Elec       q    Type
REMARK                         _______ _______ _______ _____ _____    ______ ____
ROOT
ATOM      1  C   UNL     1       1.425   8.690  19.841  0.00  0.00    +0.000 A 
ATOM      2  C   UNL     1       1.214   8.357  21.167  0.00  0.00    +0.000 A 
ATOM      3  C   UNL     1       0.364   9.308  21.734  0.00  0.00    +0.000 A 
ATOM      4  C   UNL     1      -0.153   9.464  23.017  0.00  0.00    +0.000 A 
ATOM      5  C   UNL     1      -0.993  10.539  23.267  0.00  0.00    +0.000 A 
ATOM      6  C   UNL     1      -1.344  11.460  22.275  0.00  0.00    +0.000 A 
ATOM      7  C   UNL     1      -0.848  11.285  20.952  0.00  0.00    +0.000 A 
ATOM      8  C   UNL     1       0.032  10.201  20.720  0.00  0.00    +0.000 A 
ATOM      9  O   UNL     1       0.695   9.828  19.545  0.00  0.00    +0.000 OA
ENDROOT
BRANCH   6  10
ATOM     10  N   UNL     1      -2.214  12.546  22.581  0.00  0.00    +0.000 N 
ATOM     11  C   UNL     1      -1.847  13.718  23.252  0.00  0.00    +0.000 C 
ATOM     12  O   UNL     1      -0.698  14.058  23.550  0.00  0.00    +0.000 OA
ATOM     13  H   UNL     1      -3.169  12.462  22.270  0.00  0.00    +0.000 HD
BRANCH  11  14
ATOM     14  C   UNL     1      -2.989  14.671  23.561  0.00  0.00    +0.000 C 
ATOM     15  I   UNL     1      -4.806  13.869  22.839  0.00  0.00    +0.000 I 
ENDBRANCH  11  14
ENDBRANCH   6  10
BRANCH   1  16
ATOM     16  C   UNL     1       2.260   7.869  18.972  0.00  0.00    +0.000 C 
ATOM     17  O   UNL     1       2.662   8.401  17.922  0.00  0.00    +0.000 OA
BRANCH  16  20
ATOM     18  C   UNL     1       4.221   4.738  18.155  0.00  0.00    +0.000 A 
ATOM     19  C   UNL     1       3.611   5.999  18.125  0.00  0.00    +0.000 A 
ATOM     20  C   UNL     1       2.715   6.460  19.120  0.00  0.00    +0.000 A 
ATOM     21  C   UNL     1       2.372   5.571  20.126  0.00  0.00    +0.000 A 
ATOM     22  C   UNL     1       2.933   4.271  20.147  0.00  0.00    +0.000 A 
ATOM     23  C   UNL     1       3.853   3.829  19.155  0.00  0.00    +0.000 A 
BRANCH  18  25
ATOM     24  C   UNL     1       5.156   5.173  16.012  0.00  0.00    +0.000 C 
ATOM     25  O   UNL     1       5.157   4.396  17.211  0.00  0.00    +0.000 OA
ENDBRANCH  18  25
BRANCH  22  26
ATOM     26  O   UNL     1       2.452   3.513  21.197  0.00  0.00    +0.000 OA
ATOM     27  C   UNL     1       1.172   2.915  21.035  0.00  0.00    +0.000 C 
ENDBRANCH  22  26
BRANCH  23  28
ATOM     28  O   UNL     1       4.302   2.544  19.281  0.00  0.00    +0.000 OA
ATOM     29  C   UNL     1       3.698   1.455  18.603  0.00  0.00    +0.000 C 
ENDBRANCH  23  28
ENDBRANCH  16  20
ENDBRANCH   1  16
TORSDOF 7
ENDMDL
MODEL 8
REMARK VINA RESULT:      -7.4      1.626      2.636
REMARK  Name = 
REMARK  10 active torsions:
REMARK  status: ('A' for Active; 'I' for Inactive)
REMARK    1  A    between atoms: C_1  and  O_2
REMARK    2  A    between atoms: O_2  and  C_3
REMARK    3  A    between atoms: C_5  and  C_6
REMARK    4  A    between atoms: C_6  and  C_8
REMARK    5  A    between atoms: C_13  and  N_14
REMARK    6  A    between atoms: C_15  and  C_17
REMARK    7  A    between atoms: C_23  and  O_24
REMARK    8  A    between atoms: O_24  and  C_25
REMARK    9  A    between atoms: C_26  and  O_27
REMARK   10  A    between atoms: O_27  and  C_28
REMARK                            x       y       z     vdW  Elec       q    Type
REMARK                         _______ _______ _______ _____ _____    ______ ____
ROOT
ATOM      1  C   UNL     1       1.403   8.818  19.825  0.00  0.00    +0.000 A 
ATOM      2  C   UNL     1       1.009   8.369  21.072  0.00  0.00    +0.000 A 
ATOM      3  C   UNL     1       0.254   9.370  21.686  0.00  0.00    +0.000 A 
ATOM      4  C   UNL     1      -0.366   9.453  22.930  0.00  0.00    +0.000 A 
ATOM      5  C   UNL     1      -1.059  10.611  23.249  0.00  0.00    +0.000 A 
ATOM      6  C   UNL     1      -1.165  11.688  22.361  0.00  0.00    +0.000 A 
ATOM      7  C   UNL     1      -0.565  11.593  21.074  0.00  0.00    +0.000 A 
ATOM      8  C   UNL     1       0.165  10.418  20.775  0.00  0.00    +0.000 A 
ATOM      9  O   UNL     1       0.884  10.085  19.621  0.00  0.00    +0.000 OA
ENDROOT
BRANCH   6  10
ATOM     10  N   UNL     1      -1.892  12.855  22.734  0.00  0.00    +0.000 N 
ATOM     11  C   UNL     1      -3.255  13.073  22.502  0.00  0.00    +0.000 C 
ATOM     12  O   UNL     1      -4.064  12.242  22.078  0.00  0.00    +0.000 OA
ATOM     13  H   UNL     1      -1.377  13.572  23.220  0.00  0.00    +0.000 HD
BRANCH  11  14
ATOM     14  C   UNL     1      -3.764  14.450  22.891  0.00  0.00    +0.000 C 
ATOM     15  I   UNL     1      -2.805  15.096  24.660  0.00  0.00    +0.000 I 
ENDBRANCH  11  14
ENDBRANCH   6  10
BRANCH   1  16
ATOM     16  C   UNL     1       2.194   7.983  18.929  0.00  0.00    +0.000 C 
ATOM     17  O   UNL     1       2.529   8.492  17.844  0.00  0.00    +0.000 OA
BRANCH  16  20
ATOM     18  C   UNL     1       4.297   4.920  18.213  0.00  0.00    +0.000 A 
ATOM     19  C   UNL     1       3.660   6.166  18.159  0.00  0.00    +0.000 A 
ATOM     20  C   UNL     1       2.671   6.581  19.083  0.00  0.00    +0.000 A 
ATOM     21  C   UNL     1       2.265   5.660  20.035  0.00  0.00    +0.000 A 
ATOM     22  C   UNL     1       2.855   4.374  20.075  0.00  0.00    +0.000 A 
ATOM     23  C   UNL     1       3.867   3.978  19.157  0.00  0.00    +0.000 A 
BRANCH  18  25
ATOM     24  C   UNL     1       4.953   4.441  15.978  0.00  0.00    +0.000 C 
ATOM     25  O   UNL     1       5.320   4.624  17.347  0.00  0.00    +0.000 OA
ENDBRANCH  18  25
BRANCH  22  26
ATOM     26  O   UNL     1       2.305   3.579  21.063  0.00  0.00    +0.000 OA
ATOM     27  C   UNL     1       1.007   3.049  20.823  0.00  0.00    +0.000 C 
ENDBRANCH  22  26
BRANCH  23  28
ATOM     28  O   UNL     1       4.337   2.701  19.293  0.00  0.00    +0.000 OA
ATOM     29  C   UNL     1       3.761   1.600  18.609  0.00  0.00    +0.000 C 
ENDBRANCH  23  28
ENDBRANCH  16  20
ENDBRANCH   1  16
TORSDOF 7
ENDMDL
MODEL 9
REMARK VINA RESULT:      -7.3      2.033      3.137
REMARK  Name = 
REMARK  10 active torsions:
REMARK  status: ('A' for Active; 'I' for Inactive)
REMARK    1  A    between atoms: C_1  and  O_2
REMARK    2  A    between atoms: O_2  and  C_3
REMARK    3  A    between atoms: C_5  and  C_6
REMARK    4  A    between atoms: C_6  and  C_8
REMARK    5  A    between atoms: C_13  and  N_14
REMARK    6  A    between atoms: C_15  and  C_17
REMARK    7  A    between atoms: C_23  and  O_24
REMARK    8  A    between atoms: O_24  and  C_25
REMARK    9  A    between atoms: C_26  and  O_27
REMARK   10  A    between atoms: O_27  and  C_28
REMARK                            x       y       z     vdW  Elec       q    Type
REMARK                         _______ _______ _______ _____ _____    ______ ____
ROOT
ATOM      1  C   UNL     1       0.794   9.824  19.533  0.00  0.00    +0.000 A 
ATOM      2  C   UNL     1       0.704   9.495  20.873  0.00  0.00    +0.000 A 
ATOM      3  C   UNL     1      -0.221  10.348  21.479  0.00  0.00    +0.000 A 
ATOM      4  C   UNL     1      -0.676  10.466  22.789  0.00  0.00    +0.000 A 
ATOM      5  C   UNL     1      -1.624  11.437  23.076  0.00  0.00    +0.000 A 
ATOM      6  C   UNL     1      -2.144  12.289  22.095  0.00  0.00    +0.000 A 
ATOM      7  C   UNL     1      -1.709  12.147  20.747  0.00  0.00    +0.000 A 
ATOM      8  C   UNL     1      -0.719  11.174  20.476  0.00  0.00    +0.000 A 
ATOM      9  O   UNL     1      -0.086  10.859  19.267  0.00  0.00    +0.000 OA
ENDROOT
BRANCH   6  10
ATOM     10  N   UNL     1      -3.119  13.267  22.440  0.00  0.00    +0.000 N 
ATOM     11  C   UNL     1      -4.496  13.159  22.212  0.00  0.00    +0.000 C 
ATOM     12  O   UNL     1      -5.092  12.152  21.818  0.00  0.00    +0.000 OA
ATOM     13  H   UNL     1      -2.784  14.097  22.902  0.00  0.00    +0.000 HD
BRANCH  11  14
ATOM     14  C   UNL     1      -5.309  14.392  22.565  0.00  0.00    +0.000 C 
ATOM     15  I   UNL     1      -7.061  13.824  23.601  0.00  0.00    +0.000 I 
ENDBRANCH  11  14
ENDBRANCH   6  10
BRANCH   1  16
ATOM     16  C   UNL     1       1.669   9.093  18.625  0.00  0.00    +0.000 C 
ATOM     17  O   UNL     1       1.934   9.644  17.541  0.00  0.00    +0.000 OA
BRANCH  16  20
ATOM     18  C   UNL     1       4.022   6.250  17.788  0.00  0.00    +0.000 A 
ATOM     19  C   UNL     1       3.250   7.418  17.765  0.00  0.00    +0.000 A 
ATOM     20  C   UNL     1       2.309   7.756  18.767  0.00  0.00    +0.000 A 
ATOM     21  C   UNL     1       2.094   6.829  19.774  0.00  0.00    +0.000 A 
ATOM     22  C   UNL     1       2.823   5.615  19.789  0.00  0.00    +0.000 A 
ATOM     23  C   UNL     1       3.785   5.299  18.789  0.00  0.00    +0.000 A 
BRANCH  18  25
ATOM     24  C   UNL     1       6.174   6.824  16.955  0.00  0.00    +0.000 C 
ATOM     25  O   UNL     1       4.988   6.036  16.837  0.00  0.00    +0.000 OA
ENDBRANCH  18  25
BRANCH  22  26
ATOM     26  O   UNL     1       2.454   4.799  20.842  0.00  0.00    +0.000 OA
ATOM     27  C   UNL     1       1.279   4.016  20.677  0.00  0.00    +0.000 C 
ENDBRANCH  22  26
BRANCH  23  28
ATOM     28  O   UNL     1       4.402   4.085  18.910  0.00  0.00    +0.000 OA
ATOM     29  C   UNL     1       3.935   2.923  18.245  0.00  0.00    +0.000 C 
ENDBRANCH  23  28
ENDBRANCH  16  20
ENDBRANCH   1  16
TORSDOF 7
ENDMDL
