MODEL 1
REMARK VINA RESULT:      -9.1      0.000      0.000
REMARK  Name = 
REMARK  5 active torsions:
REMARK  status: ('A' for Active; 'I' for Inactive)
REMARK    1  A    between atoms: C_1  and  C_2
REMARK    2  A    between atoms: C_5  and  N_6
REMARK    3  A    between atoms: C_9  and  C_10
REMARK    4  A    between atoms: C_12  and  N_13
REMARK    5  A    between atoms: C_14  and  C_16
REMARK                            x       y       z     vdW  Elec       q    Type
REMARK                         _______ _______ _______ _____ _____    ______ ____
ROOT
ATOM      1  N   UNL     1       3.792   4.736  18.126  0.00  0.00    +0.000 N 
ATOM      2  C   UNL     1       5.229   4.720  18.124  0.00  0.00    +0.000 C 
ATOM      3  O   UNL     1       5.843   4.529  19.162  0.00  0.00    +0.000 OA
ATOM      4  H   UNL     1       3.283   4.745  17.234  0.00  0.00    +0.000 HD
ENDROOT
BRANCH   2   5
ATOM      5  C   UNL     1       5.839   4.868  16.778  0.00  0.00    +0.000 A 
ATOM      6  C   UNL     1       5.419   4.069  15.780  0.00  0.00    +0.000 A 
ATOM      7  C   UNL     1       6.065   4.130  14.472  0.00  0.00    +0.000 A 
ATOM      8  C   UNL     1       5.733   3.270  13.421  0.00  0.00    +0.000 A 
ATOM      9  C   UNL     1       6.459   3.327  12.224  0.00  0.00    +0.000 A 
ATOM     10 BR   UNL     1       6.047   2.131  10.818  0.00  0.00    +0.000 Br
ATOM     11  C   UNL     1       7.502   4.241  12.056  0.00  0.00    +0.000 A 
ATOM     12  C   UNL     1       7.819   5.115  13.090  0.00  0.00    +0.000 A 
ATOM     13  C   UNL     1       7.100   5.044  14.281  0.00  0.00    +0.000 A 
ATOM     14  O   UNL     1       7.480   5.931  15.298  0.00  0.00    +0.000 OA
ATOM     15  C   UNL     1       6.880   5.881  16.539  0.00  0.00    +0.000 A 
ATOM     16  O   UNL     1       7.182   6.678  17.427  0.00  0.00    +0.000 OA
ENDBRANCH   2   5
BRANCH   1  21
ATOM     17  N   UNL     1       2.457   5.562  20.078  0.00  0.00    +0.000 N 
ATOM     18  N   UNL     1       1.994   5.041  21.249  0.00  0.00    +0.000 NA
ATOM     19  C   UNL     1       2.172   3.727  21.136  0.00  0.00    +0.000 A 
ATOM     20  C   UNL     1       2.818   3.376  19.945  0.00  0.00    +0.000 A 
ATOM     21  C   UNL     1       3.044   4.567  19.290  0.00  0.00    +0.000 A 
BRANCH  17  26
ATOM     22  C   UNL     1       0.812  10.851  18.590  0.00  0.00    +0.000 C 
ATOM     23  C   UNL     1       1.330   9.513  19.025  0.00  0.00    +0.000 A 
ATOM     24  C   UNL     1       1.127   9.037  20.323  0.00  0.00    +0.000 A 
ATOM     25  C   UNL     1       1.556   7.753  20.684  0.00  0.00    +0.000 A 
ATOM     26  C   UNL     1       2.188   6.925  19.743  0.00  0.00    +0.000 A 
ATOM     27  C   UNL     1       2.436   7.429  18.460  0.00  0.00    +0.000 A 
ATOM     28  C   UNL     1       2.010   8.710  18.107  0.00  0.00    +0.000 A 
ENDBRANCH  17  26
BRANCH  20  29
ATOM     29  C   UNL     1       3.266   2.085  19.561  0.00  0.00    +0.000 C 
ATOM     30  N   UNL     1       3.676   1.053  19.217  0.00  0.00    +0.000 NA
ENDBRANCH  20  29
ENDBRANCH   1  21
TORSDOF 4
ENDMDL
MODEL 2
REMARK VINA RESULT:      -9.0      4.324      7.794
REMARK  Name = 
REMARK  5 active torsions:
REMARK  status: ('A' for Active; 'I' for Inactive)
REMARK    1  A    between atoms: C_1  and  C_2
REMARK    2  A    between atoms: C_5  and  N_6
REMARK    3  A    between atoms: C_9  and  C_10
REMARK    4  A    between atoms: C_12  and  N_13
REMARK    5  A    between atoms: C_14  and  C_16
REMARK                            x       y       z     vdW  Elec       q    Type
REMARK                         _______ _______ _______ _____ _____    ______ ____
ROOT
ATOM      1  N   UNL     1       2.405   5.646  18.318  0.00  0.00    +0.000 N 
ATOM      2  C   UNL     1       2.673   6.480  19.457  0.00  0.00    +0.000 C 
ATOM      3  O   UNL     1       3.502   6.139  20.287  0.00  0.00    +0.000 OA
ATOM      4  H   UNL     1       1.823   6.006  17.551  0.00  0.00    +0.000 HD
ENDROOT
BRANCH   2   5
ATOM      5  C   UNL     1       1.930   7.766  19.461  0.00  0.00    +0.000 A 
ATOM      6  C   UNL     1       1.373   8.195  20.608  0.00  0.00    +0.000 A 
ATOM      7  C   UNL     1       0.560   9.408  20.619  0.00  0.00    +0.000 A 
ATOM      8  C   UNL     1      -0.113   9.859  21.758  0.00  0.00    +0.000 A 
ATOM      9  C   UNL     1      -0.948  10.981  21.669  0.00  0.00    +0.000 A 
ATOM     10 BR   UNL     1      -1.902  11.565  23.195  0.00  0.00    +0.000 Br
ATOM     11  C   UNL     1      -1.107  11.667  20.464  0.00  0.00    +0.000 A 
ATOM     12  C   UNL     1      -0.419  11.237  19.334  0.00  0.00    +0.000 A 
ATOM     13  C   UNL     1       0.399  10.114  19.428  0.00  0.00    +0.000 A 
ATOM     14  O   UNL     1       1.047   9.709  18.253  0.00  0.00    +0.000 OA
ATOM     15  C   UNL     1       1.815   8.563  18.228  0.00  0.00    +0.000 A 
ATOM     16  O   UNL     1       2.416   8.218  17.212  0.00  0.00    +0.000 OA
ENDBRANCH   2   5
BRANCH   1  21
ATOM     17  N   UNL     1       4.354   4.204  17.692  0.00  0.00    +0.000 N 
ATOM     18  N   UNL     1       4.556   2.887  17.405  0.00  0.00    +0.000 NA
ATOM     19  C   UNL     1       3.432   2.277  17.772  0.00  0.00    +0.000 A 
ATOM     20  C   UNL     1       2.459   3.178  18.222  0.00  0.00    +0.000 A 
ATOM     21  C   UNL     1       3.041   4.423  18.121  0.00  0.00    +0.000 A 
BRANCH  17  26
ATOM     22  C   UNL     1       8.460   8.195  18.019  0.00  0.00    +0.000 C 
ATOM     23  C   UNL     1       7.456   7.090  17.877  0.00  0.00    +0.000 A 
ATOM     24  C   UNL     1       7.463   5.982  18.729  0.00  0.00    +0.000 A 
ATOM     25  C   UNL     1       6.471   4.999  18.623  0.00  0.00    +0.000 A 
ATOM     26  C   UNL     1       5.451   5.120  17.667  0.00  0.00    +0.000 A 
ATOM     27  C   UNL     1       5.482   6.205  16.782  0.00  0.00    +0.000 A 
ATOM     28  C   UNL     1       6.475   7.179  16.889  0.00  0.00    +0.000 A 
ENDBRANCH  17  26
BRANCH  20  29
ATOM     29  C   UNL     1       1.115   2.884  18.574  0.00  0.00    +0.000 C 
ATOM     30  N   UNL     1       0.032   2.589  18.875  0.00  0.00    +0.000 NA
ENDBRANCH  20  29
ENDBRANCH   1  21
TORSDOF 4
ENDMDL
MODEL 3
REMARK VINA RESULT:      -8.6      3.595      7.605
REMARK  Name = 
REMARK  5 active torsions:
REMARK  status: ('A' for Active; 'I' for Inactive)
REMARK    1  A    between atoms: C_1  and  C_2
REMARK    2  A    between atoms: C_5  and  N_6
REMARK    3  A    between atoms: C_9  and  C_10
REMARK    4  A    between atoms: C_12  and  N_13
REMARK    5  A    between atoms: C_14  and  C_16
REMARK                            x       y       z     vdW  Elec       q    Type
REMARK                         _______ _______ _______ _____ _____    ______ ____
ROOT
ATOM      1  N   UNL     1       2.553   4.910  18.617  0.00  0.00    +0.000 N 
ATOM      2  C   UNL     1       3.218   5.976  19.313  0.00  0.00    +0.000 C 
ATOM      3  O   UNL     1       4.291   5.776  19.862  0.00  0.00    +0.000 OA
ATOM      4  H   UNL     1       1.734   5.118  18.033  0.00  0.00    +0.000 HD
ENDROOT
BRANCH   2   5
ATOM      5  C   UNL     1       2.531   7.290  19.219  0.00  0.00    +0.000 A 
ATOM      6  C   UNL     1       1.930   7.791  20.312  0.00  0.00    +0.000 A 
ATOM      7  C   UNL     1       1.169   9.035  20.224  0.00  0.00    +0.000 A 
ATOM      8  C   UNL     1       0.452   9.564  21.302  0.00  0.00    +0.000 A 
ATOM      9  C   UNL     1      -0.328  10.712  21.117  0.00  0.00    +0.000 A 
ATOM     10 BR   UNL     1      -1.340  11.401  22.559  0.00  0.00    +0.000 Br
ATOM     11  C   UNL     1      -0.391  11.349  19.876  0.00  0.00    +0.000 A 
ATOM     12  C   UNL     1       0.341  10.841  18.808  0.00  0.00    +0.000 A 
ATOM     13  C   UNL     1       1.105   9.692  18.997  0.00  0.00    +0.000 A 
ATOM     14  O   UNL     1       1.800   9.210  17.880  0.00  0.00    +0.000 OA
ATOM     15  C   UNL     1       2.519   8.034  17.948  0.00  0.00    +0.000 A 
ATOM     16  O   UNL     1       3.161   7.620  16.984  0.00  0.00    +0.000 OA
ENDBRANCH   2   5
BRANCH   1  21
ATOM     17  N   UNL     1       3.970   3.102  17.618  0.00  0.00    +0.000 N 
ATOM     18  N   UNL     1       4.079   1.749  17.746  0.00  0.00    +0.000 NA
ATOM     19  C   UNL     1       3.364   1.446  18.827  0.00  0.00    +0.000 A 
ATOM     20  C   UNL     1       2.717   2.563  19.369  0.00  0.00    +0.000 A 
ATOM     21  C   UNL     1       3.071   3.618  18.557  0.00  0.00    +0.000 A 
BRANCH  17  26
ATOM     22  C   UNL     1       7.633   5.398  13.850  0.00  0.00    +0.000 C 
ATOM     23  C   UNL     1       6.621   4.892  14.834  0.00  0.00    +0.000 A 
ATOM     24  C   UNL     1       5.381   4.400  14.420  0.00  0.00    +0.000 A 
ATOM     25  C   UNL     1       4.482   3.865  15.352  0.00  0.00    +0.000 A 
ATOM     26  C   UNL     1       4.821   3.808  16.713  0.00  0.00    +0.000 A 
ATOM     27  C   UNL     1       6.043   4.353  17.127  0.00  0.00    +0.000 A 
ATOM     28  C   UNL     1       6.932   4.888  16.195  0.00  0.00    +0.000 A 
ENDBRANCH  17  26
BRANCH  20  29
ATOM     29  C   UNL     1       1.788   2.577  20.443  0.00  0.00    +0.000 C 
ATOM     30  N   UNL     1       1.030   2.646  21.321  0.00  0.00    +0.000 NA
ENDBRANCH  20  29
ENDBRANCH   1  21
TORSDOF 4
ENDMDL
MODEL 4
REMARK VINA RESULT:      -8.3      4.146      7.668
REMARK  Name = 
REMARK  5 active torsions:
REMARK  status: ('A' for Active; 'I' for Inactive)
REMARK    1  A    between atoms: C_1  and  C_2
REMARK    2  A    between atoms: C_5  and  N_6
REMARK    3  A    between atoms: C_9  and  C_10
REMARK    4  A    between atoms: C_12  and  N_13
REMARK    5  A    between atoms: C_14  and  C_16
REMARK                            x       y       z     vdW  Elec       q    Type
REMARK                         _______ _______ _______ _____ _____    ______ ____
ROOT
ATOM      1  N   UNL     1       3.179   5.899  20.023  0.00  0.00    +0.000 N 
ATOM      2  C   UNL     1       2.415   6.646  19.063  0.00  0.00    +0.000 C 
ATOM      3  O   UNL     1       2.281   6.227  17.924  0.00  0.00    +0.000 OA
ATOM      4  H   UNL     1       3.162   6.176  21.012  0.00  0.00    +0.000 HD
ENDROOT
BRANCH   2   5
ATOM      5  C   UNL     1       1.774   7.869  19.611  0.00  0.00    +0.000 A 
ATOM      6  C   UNL     1       1.814   9.005  18.891  0.00  0.00    +0.000 A 
ATOM      7  C   UNL     1       1.273  10.243  19.446  0.00  0.00    +0.000 A 
ATOM      8  C   UNL     1       1.359  11.471  18.784  0.00  0.00    +0.000 A 
ATOM      9  C   UNL     1       0.900  12.633  19.419  0.00  0.00    +0.000 A 
ATOM     10 BR   UNL     1       1.061  14.305  18.549  0.00  0.00    +0.000 Br
ATOM     11  C   UNL     1       0.342  12.582  20.698  0.00  0.00    +0.000 A 
ATOM     12  C   UNL     1       0.231  11.358  21.349  0.00  0.00    +0.000 A 
ATOM     13  C   UNL     1       0.701  10.211  20.716  0.00  0.00    +0.000 A 
ATOM     14  O   UNL     1       0.588   9.009  21.430  0.00  0.00    +0.000 OA
ATOM     15  C   UNL     1       1.098   7.833  20.919  0.00  0.00    +0.000 A 
ATOM     16  O   UNL     1       0.973   6.768  21.520  0.00  0.00    +0.000 OA
ENDBRANCH   2   5
BRANCH   1  21
ATOM     17  N   UNL     1       4.943   4.524  18.896  0.00  0.00    +0.000 N 
ATOM     18  N   UNL     1       5.147   3.202  18.634  0.00  0.00    +0.000 NA
ATOM     19  C   UNL     1       4.244   2.561  19.371  0.00  0.00    +0.000 A 
ATOM     20  C   UNL     1       3.392   3.438  20.053  0.00  0.00    +0.000 A 
ATOM     21  C   UNL     1       3.816   4.701  19.703  0.00  0.00    +0.000 A 
BRANCH  17  26
ATOM     22  C   UNL     1       8.569   8.786  17.637  0.00  0.00    +0.000 C 
ATOM     23  C   UNL     1       7.682   7.606  17.905  0.00  0.00    +0.000 A 
ATOM     24  C   UNL     1       7.995   6.666  18.891  0.00  0.00    +0.000 A 
ATOM     25  C   UNL     1       7.115   5.613  19.172  0.00  0.00    +0.000 A 
ATOM     26  C   UNL     1       5.903   5.495  18.474  0.00  0.00    +0.000 A 
ATOM     27  C   UNL     1       5.622   6.410  17.451  0.00  0.00    +0.000 A 
ATOM     28  C   UNL     1       6.505   7.454  17.172  0.00  0.00    +0.000 A 
ENDBRANCH  17  26
BRANCH  20  29
ATOM     29  C   UNL     1       2.252   3.096  20.827  0.00  0.00    +0.000 C 
ATOM     30  N   UNL     1       1.340   2.847  21.504  0.00  0.00    +0.000 NA
ENDBRANCH  20  29
ENDBRANCH   1  21
TORSDOF 4
ENDMDL
MODEL 5
REMARK VINA RESULT:      -8.3      4.581      7.455
REMARK  Name = 
REMARK  5 active torsions:
REMARK  status: ('A' for Active; 'I' for Inactive)
REMARK    1  A    between atoms: C_1  and  C_2
REMARK    2  A    between atoms: C_5  and  N_6
REMARK    3  A    between atoms: C_9  and  C_10
REMARK    4  A    between atoms: C_12  and  N_13
REMARK    5  A    between atoms: C_14  and  C_16
REMARK                            x       y       z     vdW  Elec       q    Type
REMARK                         _______ _______ _______ _____ _____    ______ ____
ROOT
ATOM      1  N   UNL     1      -0.591   9.888  19.762  0.00  0.00    +0.000 N 
ATOM      2  C   UNL     1       0.771  10.085  19.350  0.00  0.00    +0.000 C 
ATOM      3  O   UNL     1       1.199  11.213  19.162  0.00  0.00    +0.000 OA
ATOM      4  H   UNL     1      -0.901   8.955  20.064  0.00  0.00    +0.000 HD
ENDROOT
BRANCH   2   5
ATOM      5  C   UNL     1       1.571   8.836  19.269  0.00  0.00    +0.000 A 
ATOM      6  C   UNL     1       2.381   8.647  18.212  0.00  0.00    +0.000 A 
ATOM      7  C   UNL     1       3.108   7.390  18.061  0.00  0.00    +0.000 A 
ATOM      8  C   UNL     1       3.898   7.100  16.944  0.00  0.00    +0.000 A 
ATOM      9  C   UNL     1       4.492   5.836  16.826  0.00  0.00    +0.000 A 
ATOM     10 BR   UNL     1       5.519   5.421  15.293  0.00  0.00    +0.000 Br
ATOM     11  C   UNL     1       4.321   4.865  17.815  0.00  0.00    +0.000 A 
ATOM     12  C   UNL     1       3.558   5.159  18.939  0.00  0.00    +0.000 A 
ATOM     13  C   UNL     1       2.961   6.412  19.043  0.00  0.00    +0.000 A 
ATOM     14  O   UNL     1       2.181   6.644  20.184  0.00  0.00    +0.000 OA
ATOM     15  C   UNL     1       1.485   7.826  20.337  0.00  0.00    +0.000 A 
ATOM     16  O   UNL     1       0.826   8.053  21.351  0.00  0.00    +0.000 OA
ENDBRANCH   2   5
BRANCH   1  21
ATOM     17  N   UNL     1      -2.318  11.522  18.977  0.00  0.00    +0.000 N 
ATOM     18  N   UNL     1      -2.881  12.669  19.452  0.00  0.00    +0.000 NA
ATOM     19  C   UNL     1      -2.504  12.736  20.726  0.00  0.00    +0.000 A 
ATOM     20  C   UNL     1      -1.636  11.697  21.081  0.00  0.00    +0.000 A 
ATOM     21  C   UNL     1      -1.481  10.946  19.936  0.00  0.00    +0.000 A 
BRANCH  17  26
ATOM     22  C   UNL     1      -3.579   9.831  13.643  0.00  0.00    +0.000 C 
ATOM     23  C   UNL     1      -3.294  10.182  15.073  0.00  0.00    +0.000 A 
ATOM     24  C   UNL     1      -2.183   9.667  15.745  0.00  0.00    +0.000 A 
ATOM     25  C   UNL     1      -1.899  10.066  17.057  0.00  0.00    +0.000 A 
ATOM     26  C   UNL     1      -2.722  10.996  17.711  0.00  0.00    +0.000 A 
ATOM     27  C   UNL     1      -3.864  11.467  17.050  0.00  0.00    +0.000 A 
ATOM     28  C   UNL     1      -4.144  11.062  15.744  0.00  0.00    +0.000 A 
ENDBRANCH  17  26
BRANCH  20  29
ATOM     29  C   UNL     1      -0.955  11.532  22.316  0.00  0.00    +0.000 C 
ATOM     30  N   UNL     1      -0.374  11.350  23.306  0.00  0.00    +0.000 NA
ENDBRANCH  20  29
ENDBRANCH   1  21
TORSDOF 4
ENDMDL
MODEL 6
REMARK VINA RESULT:      -8.1      3.974      6.593
REMARK  Name = 
REMARK  5 active torsions:
REMARK  status: ('A' for Active; 'I' for Inactive)
REMARK    1  A    between atoms: C_1  and  C_2
REMARK    2  A    between atoms: C_5  and  N_6
REMARK    3  A    between atoms: C_9  and  C_10
REMARK    4  A    between atoms: C_12  and  N_13
REMARK    5  A    between atoms: C_14  and  C_16
REMARK                            x       y       z     vdW  Elec       q    Type
REMARK                         _______ _______ _______ _____ _____    ______ ____
ROOT
ATOM      1  N   UNL     1       0.087   9.185  20.054  0.00  0.00    +0.000 N 
ATOM      2  C   UNL     1       1.343   9.364  19.381  0.00  0.00    +0.000 C 
ATOM      3  O   UNL     1       1.752  10.488  19.131  0.00  0.00    +0.000 OA
ATOM      4  H   UNL     1      -0.179   8.253  20.395  0.00  0.00    +0.000 HD
ENDROOT
BRANCH   2   5
ATOM      5  C   UNL     1       2.081   8.102  19.118  0.00  0.00    +0.000 A 
ATOM      6  C   UNL     1       2.907   8.037  18.059  0.00  0.00    +0.000 A 
ATOM      7  C   UNL     1       3.573   6.782  17.724  0.00  0.00    +0.000 A 
ATOM      8  C   UNL     1       4.376   6.627  16.590  0.00  0.00    +0.000 A 
ATOM      9  C   UNL     1       4.908   5.368  16.285  0.00  0.00    +0.000 A 
ATOM     10 BR   UNL     1       5.953   5.143  14.724  0.00  0.00    +0.000 Br
ATOM     11  C   UNL     1       4.662   4.264  17.104  0.00  0.00    +0.000 A 
ATOM     12  C   UNL     1       3.885   4.419  18.247  0.00  0.00    +0.000 A 
ATOM     13  C   UNL     1       3.350   5.671  18.536  0.00  0.00    +0.000 A 
ATOM     14  O   UNL     1       2.553   5.763  19.686  0.00  0.00    +0.000 OA
ATOM     15  C   UNL     1       1.915   6.943  20.011  0.00  0.00    +0.000 A 
ATOM     16  O   UNL     1       1.242   7.044  21.036  0.00  0.00    +0.000 OA
ENDBRANCH   2   5
BRANCH   1  21
ATOM     17  N   UNL     1      -1.469  11.091  19.583  0.00  0.00    +0.000 N 
ATOM     18  N   UNL     1      -1.961  12.158  20.273  0.00  0.00    +0.000 NA
ATOM     19  C   UNL     1      -1.639  11.925  21.543  0.00  0.00    +0.000 A 
ATOM     20  C   UNL     1      -0.872  10.763  21.695  0.00  0.00    +0.000 A 
ATOM     21  C   UNL     1      -0.724  10.257  20.422  0.00  0.00    +0.000 A 
BRANCH  17  26
ATOM     22  C   UNL     1      -3.479   9.905  14.343  0.00  0.00    +0.000 C 
ATOM     23  C   UNL     1      -2.891  10.291  15.668  0.00  0.00    +0.000 A 
ATOM     24  C   UNL     1      -3.362  11.393  16.385  0.00  0.00    +0.000 A 
ATOM     25  C   UNL     1      -2.846  11.690  17.652  0.00  0.00    +0.000 A 
ATOM     26  C   UNL     1      -1.854  10.877  18.223  0.00  0.00    +0.000 A 
ATOM     27  C   UNL     1      -1.348   9.806  17.476  0.00  0.00    +0.000 A 
ATOM     28  C   UNL     1      -1.864   9.517  16.212  0.00  0.00    +0.000 A 
ENDBRANCH  17  26
BRANCH  20  29
ATOM     29  C   UNL     1      -0.264  10.287  22.887  0.00  0.00    +0.000 C 
ATOM     30  N   UNL     1       0.233   9.845  23.839  0.00  0.00    +0.000 NA
ENDBRANCH  20  29
ENDBRANCH   1  21
TORSDOF 4
ENDMDL
MODEL 7
REMARK VINA RESULT:      -8.0      3.967      7.789
REMARK  Name = 
REMARK  5 active torsions:
REMARK  status: ('A' for Active; 'I' for Inactive)
REMARK    1  A    between atoms: C_1  and  C_2
REMARK    2  A    between atoms: C_5  and  N_6
REMARK    3  A    between atoms: C_9  and  C_10
REMARK    4  A    between atoms: C_12  and  N_13
REMARK    5  A    between atoms: C_14  and  C_16
REMARK                            x       y       z     vdW  Elec       q    Type
REMARK                         _______ _______ _______ _____ _____    ______ ____
ROOT
ATOM      1  N   UNL     1       3.901   6.094  18.276  0.00  0.00    +0.000 N 
ATOM      2  C   UNL     1       3.313   7.261  17.678  0.00  0.00    +0.000 C 
ATOM      3  O   UNL     1       3.523   7.521  16.503  0.00  0.00    +0.000 OA
ATOM      4  H   UNL     1       3.602   5.799  19.214  0.00  0.00    +0.000 HD
ENDROOT
BRANCH   2   5
ATOM      5  C   UNL     1       2.408   8.019  18.579  0.00  0.00    +0.000 A 
ATOM      6  C   UNL     1       1.949   9.220  18.183  0.00  0.00    +0.000 A 
ATOM      7  C   UNL     1       1.133  10.027  19.086  0.00  0.00    +0.000 A 
ATOM      8  C   UNL     1       0.696  11.316  18.766  0.00  0.00    +0.000 A 
ATOM      9  C   UNL     1      -0.006  12.065  19.719  0.00  0.00    +0.000 A 
ATOM     10 BR   UNL     1      -0.554  13.828  19.310  0.00  0.00    +0.000 Br
ATOM     11  C   UNL     1      -0.292  11.539  20.981  0.00  0.00    +0.000 A 
ATOM     12  C   UNL     1       0.118  10.248  21.294  0.00  0.00    +0.000 A 
ATOM     13  C   UNL     1       0.826   9.515  20.345  0.00  0.00    +0.000 A 
ATOM     14  O   UNL     1       1.238   8.229  20.724  0.00  0.00    +0.000 OA
ATOM     15  C   UNL     1       2.013   7.459  19.882  0.00  0.00    +0.000 A 
ATOM     16  O   UNL     1       2.350   6.316  20.190  0.00  0.00    +0.000 OA
ENDBRANCH   2   5
BRANCH   1  21
ATOM     17  N   UNL     1       6.040   5.493  17.122  0.00  0.00    +0.000 N 
ATOM     18  N   UNL     1       6.467   4.505  16.286  0.00  0.00    +0.000 NA
ATOM     19  C   UNL     1       5.506   3.586  16.318  0.00  0.00    +0.000 A 
ATOM     20  C   UNL     1       4.413   3.985  17.097  0.00  0.00    +0.000 A 
ATOM     21  C   UNL     1       4.742   5.235  17.572  0.00  0.00    +0.000 A 
BRANCH  17  26
ATOM     22  C   UNL     1       9.232   9.793  19.176  0.00  0.00    +0.000 C 
ATOM     23  C   UNL     1       8.486   8.632  18.588  0.00  0.00    +0.000 A 
ATOM     24  C   UNL     1       8.538   7.361  19.165  0.00  0.00    +0.000 A 
ATOM     25  C   UNL     1       7.775   6.311  18.639  0.00  0.00    +0.000 A 
ATOM     26  C   UNL     1       6.940   6.525  17.532  0.00  0.00    +0.000 A 
ATOM     27  C   UNL     1       6.934   7.787  16.926  0.00  0.00    +0.000 A 
ATOM     28  C   UNL     1       7.700   8.829  17.451  0.00  0.00    +0.000 A 
ENDBRANCH  17  26
BRANCH  20  29
ATOM     29  C   UNL     1       3.175   3.304  17.251  0.00  0.00    +0.000 C 
ATOM     30  N   UNL     1       2.145   2.772  17.328  0.00  0.00    +0.000 NA
ENDBRANCH  20  29
ENDBRANCH   1  21
TORSDOF 4
ENDMDL
MODEL 8
REMARK VINA RESULT:      -8.0      5.177      8.434
REMARK  Name = 
REMARK  5 active torsions:
REMARK  status: ('A' for Active; 'I' for Inactive)
REMARK    1  A    between atoms: C_1  and  C_2
REMARK    2  A    between atoms: C_5  and  N_6
REMARK    3  A    between atoms: C_9  and  C_10
REMARK    4  A    between atoms: C_12  and  N_13
REMARK    5  A    between atoms: C_14  and  C_16
REMARK                            x       y       z     vdW  Elec       q    Type
REMARK                         _______ _______ _______ _____ _____    ______ ____
ROOT
ATOM      1  N   UNL     1       0.975  11.688  20.016  0.00  0.00    +0.000 N 
ATOM      2  C   UNL     1       0.520  10.617  19.173  0.00  0.00    +0.000 C 
ATOM      3  O   UNL     1      -0.244  10.845  18.248  0.00  0.00    +0.000 OA
ATOM      4  H   UNL     1       1.730  11.517  20.691  0.00  0.00    +0.000 HD
ENDROOT
BRANCH   2   5
ATOM      5  C   UNL     1       1.120   9.295  19.488  0.00  0.00    +0.000 A 
ATOM      6  C   UNL     1       1.901   8.698  18.570  0.00  0.00    +0.000 A 
ATOM      7  C   UNL     1       2.428   7.359  18.817  0.00  0.00    +0.000 A 
ATOM      8  C   UNL     1       3.174   6.651  17.870  0.00  0.00    +0.000 A 
ATOM      9  C   UNL     1       3.569   5.334  18.142  0.00  0.00    +0.000 A 
ATOM     10 BR   UNL     1       4.534   4.355  16.843  0.00  0.00    +0.000 Br
ATOM     11  C   UNL     1       3.242   4.721  19.353  0.00  0.00    +0.000 A 
ATOM     12  C   UNL     1       2.522   5.430  20.308  0.00  0.00    +0.000 A 
ATOM     13  C   UNL     1       2.123   6.733  20.024  0.00  0.00    +0.000 A 
ATOM     14  O   UNL     1       1.377   7.391  21.012  0.00  0.00    +0.000 OA
ATOM     15  C   UNL     1       0.870   8.655  20.790  0.00  0.00    +0.000 A 
ATOM     16  O   UNL     1       0.244   9.255  21.663  0.00  0.00    +0.000 OA
ENDBRANCH   2   5
BRANCH   1  21
ATOM     17  N   UNL     1      -0.642  13.583  20.274  0.00  0.00    +0.000 N 
ATOM     18  N   UNL     1      -0.801  14.826  19.738  0.00  0.00    +0.000 NA
ATOM     19  C   UNL     1       0.336  15.070  19.091  0.00  0.00    +0.000 A 
ATOM     20  C   UNL     1       1.212  13.979  19.122  0.00  0.00    +0.000 A 
ATOM     21  C   UNL     1       0.556  13.006  19.843  0.00  0.00    +0.000 A 
BRANCH  17  26
ATOM     22  C   UNL     1      -4.343  12.204  24.433  0.00  0.00    +0.000 C 
ATOM     23  C   UNL     1      -3.402  12.472  23.297  0.00  0.00    +0.000 A 
ATOM     24  C   UNL     1      -3.849  13.015  22.090  0.00  0.00    +0.000 A 
ATOM     25  C   UNL     1      -2.940  13.323  21.070  0.00  0.00    +0.000 A 
ATOM     26  C   UNL     1      -1.566  13.100  21.251  0.00  0.00    +0.000 A 
ATOM     27  C   UNL     1      -1.132  12.505  22.442  0.00  0.00    +0.000 A 
ATOM     28  C   UNL     1      -2.043  12.196  23.453  0.00  0.00    +0.000 A 
ENDBRANCH  17  26
BRANCH  20  29
ATOM     29  C   UNL     1       2.452  13.855  18.439  0.00  0.00    +0.000 C 
ATOM     30  N   UNL     1       3.491  13.751  17.931  0.00  0.00    +0.000 NA
ENDBRANCH  20  29
ENDBRANCH   1  21
TORSDOF 4
ENDMDL
MODEL 9
REMARK VINA RESULT:      -7.9      6.039      9.097
REMARK  Name = 
REMARK  5 active torsions:
REMARK  status: ('A' for Active; 'I' for Inactive)
REMARK    1  A    between atoms: C_1  and  C_2
REMARK    2  A    between atoms: C_5  and  N_6
REMARK    3  A    between atoms: C_9  and  C_10
REMARK    4  A    between atoms: C_12  and  N_13
REMARK    5  A    between atoms: C_14  and  C_16
REMARK                            x       y       z     vdW  Elec       q    Type
REMARK                         _______ _______ _______ _____ _____    ______ ____
ROOT
ATOM      1  N   UNL     1      -2.522  10.577  18.433  0.00  0.00    +0.000 N 
ATOM      2  C   UNL     1      -1.173  11.067  18.387  0.00  0.00    +0.000 C 
ATOM      3  O   UNL     1      -0.948  12.217  18.043  0.00  0.00    +0.000 OA
ATOM      4  H   UNL     1      -2.717   9.665  18.865  0.00  0.00    +0.000 HD
ENDROOT
BRANCH   2   5
ATOM      5  C   UNL     1      -0.154  10.095  18.861  0.00  0.00    +0.000 A 
ATOM      6  C   UNL     1       0.755   9.624  17.988  0.00  0.00    +0.000 A 
ATOM      7  C   UNL     1       1.709   8.600  18.405  0.00  0.00    +0.000 A 
ATOM      8  C   UNL     1       2.621   8.010  17.525  0.00  0.00    +0.000 A 
ATOM      9  C   UNL     1       3.443   6.969  17.975  0.00  0.00    +0.000 A 
ATOM     10 BR   UNL     1       4.642   6.133  16.774  0.00  0.00    +0.000 Br
ATOM     11  C   UNL     1       3.378   6.520  19.295  0.00  0.00    +0.000 A 
ATOM     12  C   UNL     1       2.491   7.121  20.181  0.00  0.00    +0.000 A 
ATOM     13  C   UNL     1       1.668   8.147  19.722  0.00  0.00    +0.000 A 
ATOM     14  O   UNL     1       0.774   8.699  20.651  0.00  0.00    +0.000 OA
ATOM     15  C   UNL     1      -0.135   9.664  20.269  0.00  0.00    +0.000 A 
ATOM     16  O   UNL     1      -0.899  10.180  21.083  0.00  0.00    +0.000 OA
ENDBRANCH   2   5
BRANCH   1  21
ATOM     17  N   UNL     1      -4.434  12.124  18.907  0.00  0.00    +0.000 N 
ATOM     18  N   UNL     1      -5.528  12.578  18.232  0.00  0.00    +0.000 NA
ATOM     19  C   UNL     1      -5.328  12.215  16.968  0.00  0.00    +0.000 A 
ATOM     20  C   UNL     1      -4.161  11.458  16.808  0.00  0.00    +0.000 A 
ATOM     21  C   UNL     1      -3.615  11.361  18.069  0.00  0.00    +0.000 A 
BRANCH  17  26
ATOM     22  C   UNL     1      -3.710  14.391  24.126  0.00  0.00    +0.000 C 
ATOM     23  C   UNL     1      -3.873  13.702  22.804  0.00  0.00    +0.000 A 
ATOM     24  C   UNL     1      -5.045  13.015  22.476  0.00  0.00    +0.000 A 
ATOM     25  C   UNL     1      -5.201  12.442  21.207  0.00  0.00    +0.000 A 
ATOM     26  C   UNL     1      -4.185  12.559  20.246  0.00  0.00    +0.000 A 
ATOM     27  C   UNL     1      -2.993  13.201  20.599  0.00  0.00    +0.000 A 
ATOM     28  C   UNL     1      -2.841  13.767  21.866  0.00  0.00    +0.000 A 
ENDBRANCH  17  26
BRANCH  20  29
ATOM     29  C   UNL     1      -3.712  10.815  15.624  0.00  0.00    +0.000 C 
ATOM     30  N   UNL     1      -3.389  10.311  14.628  0.00  0.00    +0.000 NA
ENDBRANCH  20  29
ENDBRANCH   1  21
TORSDOF 4
ENDMDL
