MODEL 1
REMARK VINA RESULT:      -7.6      0.000      0.000
REMARK  Name = 
REMARK  4 active torsions:
REMARK  status: ('A' for Active; 'I' for Inactive)
REMARK    1  A    between atoms: C_1  and  C_2
REMARK    2  A    between atoms: C_2  and  C_3
REMARK    3  A    between atoms: C_3  and  C_4
REMARK    4  A    between atoms: C_13  and  C_14
REMARK                            x       y       z     vdW  Elec       q    Type
REMARK                         _______ _______ _______ _____ _____    ______ ____
ROOT
ATOM      1  C   UNL     1       3.596   5.864  18.463  0.00  0.00    +0.000 C 
ATOM      2  C   UNL     1       2.750   4.597  18.548  0.00  0.00    +0.000 A 
ATOM      3  C   UNL     1       1.553   4.419  19.233  0.00  0.00    +0.000 A 
ATOM      4  C   UNL     1       0.955   3.161  19.239  0.00  0.00    +0.000 A 
ATOM      5  C   UNL     1       1.563   2.081  18.586  0.00  0.00    +0.000 A 
ATOM      6  C   UNL     1       2.783   2.254  17.928  0.00  0.00    +0.000 A 
ATOM      7  C   UNL     1       3.381   3.509  17.916  0.00  0.00    +0.000 A 
ATOM      8  C   UNL     1       4.721   3.883  17.376  0.00  0.00    +0.000 C 
ATOM      9  C   UNL     1       4.901   4.914  16.318  0.00  0.00    +0.000 C 
ATOM     10  C   UNL     1       4.904   5.362  17.781  0.00  0.00    +0.000 C 
ENDROOT
BRANCH  10  11
ATOM     11  C   UNL     1       6.271   5.705  18.387  0.00  0.00    +0.000 A 
ATOM     12  C   UNL     1       7.200   6.581  17.879  0.00  0.00    +0.000 A 
ATOM     13  N   UNL     1       8.213   6.597  18.797  0.00  0.00    +0.000 N 
ATOM     14  C   UNL     1       7.870   5.745  19.808  0.00  0.00    +0.000 A 
ATOM     15  N   UNL     1       6.710   5.175  19.578  0.00  0.00    +0.000 NA
ATOM     16  H   UNL     1       9.058   7.149  18.755  0.00  0.00    +0.000 HD
ENDBRANCH  10  11
BRANCH   1  17
ATOM     17  C   UNL     1       2.953   7.047  17.703  0.00  0.00    +0.000 C 
BRANCH  17  19
ATOM     18  C   UNL     1       1.805   9.326  17.911  0.00  0.00    +0.000 C 
ATOM     19  C   UNL     1       2.248   8.057  18.622  0.00  0.00    +0.000 C 
ENDBRANCH  17  19
ENDBRANCH   1  17
TORSDOF 3
ENDMDL
MODEL 2
REMARK VINA RESULT:      -7.4      1.502      1.848
REMARK  Name = 
REMARK  4 active torsions:
REMARK  status: ('A' for Active; 'I' for Inactive)
REMARK    1  A    between atoms: C_1  and  C_2
REMARK    2  A    between atoms: C_2  and  C_3
REMARK    3  A    between atoms: C_3  and  C_4
REMARK    4  A    between atoms: C_13  and  C_14
REMARK                            x       y       z     vdW  Elec       q    Type
REMARK                         _______ _______ _______ _____ _____    ______ ____
ROOT
ATOM      1  C   UNL     1       3.490   5.307  18.570  0.00  0.00    +0.000 C 
ATOM      2  C   UNL     1       2.695   4.413  19.516  0.00  0.00    +0.000 A 
ATOM      3  C   UNL     1       2.012   4.790  20.667  0.00  0.00    +0.000 A 
ATOM      4  C   UNL     1       1.388   3.811  21.437  0.00  0.00    +0.000 A 
ATOM      5  C   UNL     1       1.470   2.460  21.073  0.00  0.00    +0.000 A 
ATOM      6  C   UNL     1       2.186   2.080  19.935  0.00  0.00    +0.000 A 
ATOM      7  C   UNL     1       2.806   3.055  19.162  0.00  0.00    +0.000 A 
ATOM      8  C   UNL     1       3.704   2.860  17.986  0.00  0.00    +0.000 C 
ATOM      9  C   UNL     1       3.408   3.435  16.646  0.00  0.00    +0.000 C 
ATOM     10  C   UNL     1       4.206   4.280  17.642  0.00  0.00    +0.000 C 
ENDROOT
BRANCH  10  11
ATOM     11  C   UNL     1       5.715   4.390  17.388  0.00  0.00    +0.000 A 
ATOM     12  C   UNL     1       6.346   4.390  16.167  0.00  0.00    +0.000 A 
ATOM     13  N   UNL     1       7.671   4.575  16.451  0.00  0.00    +0.000 N 
ATOM     14  C   UNL     1       7.794   4.678  17.807  0.00  0.00    +0.000 A 
ATOM     15  N   UNL     1       6.631   4.549  18.402  0.00  0.00    +0.000 NA
ATOM     16  H   UNL     1       8.428   4.644  15.785  0.00  0.00    +0.000 HD
ENDBRANCH  10  11
BRANCH   1  17
ATOM     17  C   UNL     1       2.661   6.341  17.773  0.00  0.00    +0.000 C 
BRANCH  17  19
ATOM     18  C   UNL     1       2.141   8.847  17.823  0.00  0.00    +0.000 C 
ATOM     19  C   UNL     1       3.215   7.771  17.860  0.00  0.00    +0.000 C 
ENDBRANCH  17  19
ENDBRANCH   1  17
TORSDOF 3
ENDMDL
MODEL 3
REMARK VINA RESULT:      -7.3      1.472      1.559
REMARK  Name = 
REMARK  4 active torsions:
REMARK  status: ('A' for Active; 'I' for Inactive)
REMARK    1  A    between atoms: C_1  and  C_2
REMARK    2  A    between atoms: C_2  and  C_3
REMARK    3  A    between atoms: C_3  and  C_4
REMARK    4  A    between atoms: C_13  and  C_14
REMARK                            x       y       z     vdW  Elec       q    Type
REMARK                         _______ _______ _______ _____ _____    ______ ____
ROOT
ATOM      1  C   UNL     1       3.487   5.912  18.965  0.00  0.00    +0.000 C 
ATOM      2  C   UNL     1       3.033   4.733  19.822  0.00  0.00    +0.000 A 
ATOM      3  C   UNL     1       2.279   4.773  20.989  0.00  0.00    +0.000 A 
ATOM      4  C   UNL     1       2.012   3.584  21.666  0.00  0.00    +0.000 A 
ATOM      5  C   UNL     1       2.517   2.367  21.191  0.00  0.00    +0.000 A 
ATOM      6  C   UNL     1       3.303   2.334  20.036  0.00  0.00    +0.000 A 
ATOM      7  C   UNL     1       3.568   3.518  19.356  0.00  0.00    +0.000 A 
ATOM      8  C   UNL     1       4.466   3.720  18.182  0.00  0.00    +0.000 C 
ATOM      9  C   UNL     1       3.984   4.282  16.890  0.00  0.00    +0.000 C 
ATOM     10  C   UNL     1       4.482   5.250  17.966  0.00  0.00    +0.000 C 
ENDROOT
BRANCH  10  11
ATOM     11  C   UNL     1       5.873   5.859  17.744  0.00  0.00    +0.000 A 
ATOM     12  C   UNL     1       6.403   6.287  16.551  0.00  0.00    +0.000 A 
ATOM     13  N   UNL     1       7.627   6.806  16.871  0.00  0.00    +0.000 N 
ATOM     14  C   UNL     1       7.793   6.675  18.220  0.00  0.00    +0.000 A 
ATOM     15  N   UNL     1       6.757   6.088  18.773  0.00  0.00    +0.000 NA
ATOM     16  H   UNL     1       8.290   7.228  16.236  0.00  0.00    +0.000 HD
ENDBRANCH  10  11
BRANCH   1  17
ATOM     17  C   UNL     1       2.360   6.688  18.246  0.00  0.00    +0.000 C 
BRANCH  17  19
ATOM     18  C   UNL     1       1.587   9.112  17.956  0.00  0.00    +0.000 C 
ATOM     19  C   UNL     1       2.745   8.130  17.878  0.00  0.00    +0.000 C 
ENDBRANCH  17  19
ENDBRANCH   1  17
TORSDOF 3
ENDMDL
MODEL 4
REMARK VINA RESULT:      -7.3      1.090      1.339
REMARK  Name = 
REMARK  4 active torsions:
REMARK  status: ('A' for Active; 'I' for Inactive)
REMARK    1  A    between atoms: C_1  and  C_2
REMARK    2  A    between atoms: C_2  and  C_3
REMARK    3  A    between atoms: C_3  and  C_4
REMARK    4  A    between atoms: C_13  and  C_14
REMARK                            x       y       z     vdW  Elec       q    Type
REMARK                         _______ _______ _______ _____ _____    ______ ____
ROOT
ATOM      1  C   UNL     1       3.252   5.979  18.794  0.00  0.00    +0.000 C 
ATOM      2  C   UNL     1       2.584   4.749  19.400  0.00  0.00    +0.000 A 
ATOM      3  C   UNL     1       1.577   4.714  20.359  0.00  0.00    +0.000 A 
ATOM      4  C   UNL     1       1.133   3.482  20.834  0.00  0.00    +0.000 A 
ATOM      5  C   UNL     1       1.711   2.292  20.371  0.00  0.00    +0.000 A 
ATOM      6  C   UNL     1       2.745   2.331  19.433  0.00  0.00    +0.000 A 
ATOM      7  C   UNL     1       3.188   3.558  18.954  0.00  0.00    +0.000 A 
ATOM      8  C   UNL     1       4.342   3.827  18.047  0.00  0.00    +0.000 C 
ATOM      9  C   UNL     1       4.189   4.525  16.741  0.00  0.00    +0.000 C 
ATOM     10  C   UNL     1       4.440   5.369  17.993  0.00  0.00    +0.000 C 
ENDROOT
BRANCH  10  11
ATOM     11  C   UNL     1       5.856   5.934  18.162  0.00  0.00    +0.000 A 
ATOM     12  C   UNL     1       6.771   5.587  19.128  0.00  0.00    +0.000 A 
ATOM     13  N   UNL     1       7.896   6.305  18.827  0.00  0.00    +0.000 N 
ATOM     14  C   UNL     1       7.627   7.047  17.713  0.00  0.00    +0.000 A 
ATOM     15  N   UNL     1       6.396   6.860  17.300  0.00  0.00    +0.000 NA
ATOM     16  H   UNL     1       8.776   6.283  19.321  0.00  0.00    +0.000 HD
ENDBRANCH  10  11
BRANCH   1  17
ATOM     17  C   UNL     1       2.343   6.867  17.912  0.00  0.00    +0.000 C 
BRANCH  17  19
ATOM     18  C   UNL     1       1.622   9.323  17.875  0.00  0.00    +0.000 C 
ATOM     19  C   UNL     1       2.780   8.339  17.865  0.00  0.00    +0.000 C 
ENDBRANCH  17  19
ENDBRANCH   1  17
TORSDOF 3
ENDMDL
MODEL 5
REMARK VINA RESULT:      -7.3      1.833      2.292
REMARK  Name = 
REMARK  4 active torsions:
REMARK  status: ('A' for Active; 'I' for Inactive)
REMARK    1  A    between atoms: C_1  and  C_2
REMARK    2  A    between atoms: C_2  and  C_3
REMARK    3  A    between atoms: C_3  and  C_4
REMARK    4  A    between atoms: C_13  and  C_14
REMARK                            x       y       z     vdW  Elec       q    Type
REMARK                         _______ _______ _______ _____ _____    ______ ____
ROOT
ATOM      1  C   UNL     1       3.413   5.391  18.537  0.00  0.00    +0.000 C 
ATOM      2  C   UNL     1       2.828   4.456  19.591  0.00  0.00    +0.000 A 
ATOM      3  C   UNL     1       2.388   4.786  20.868  0.00  0.00    +0.000 A 
ATOM      4  C   UNL     1       1.935   3.774  21.713  0.00  0.00    +0.000 A 
ATOM      5  C   UNL     1       1.947   2.438  21.291  0.00  0.00    +0.000 A 
ATOM      6  C   UNL     1       2.422   2.106  20.020  0.00  0.00    +0.000 A 
ATOM      7  C   UNL     1       2.870   3.113  19.173  0.00  0.00    +0.000 A 
ATOM      8  C   UNL     1       3.514   2.968  17.835  0.00  0.00    +0.000 C 
ATOM      9  C   UNL     1       2.953   3.587  16.603  0.00  0.00    +0.000 C 
ATOM     10  C   UNL     1       3.932   4.405  17.449  0.00  0.00    +0.000 C 
ENDROOT
BRANCH  10  11
ATOM     11  C   UNL     1       5.358   4.540  16.901  0.00  0.00    +0.000 A 
ATOM     12  C   UNL     1       6.514   4.659  17.635  0.00  0.00    +0.000 A 
ATOM     13  N   UNL     1       7.522   4.683  16.712  0.00  0.00    +0.000 N 
ATOM     14  C   UNL     1       6.953   4.582  15.475  0.00  0.00    +0.000 A 
ATOM     15  N   UNL     1       5.644   4.515  15.556  0.00  0.00    +0.000 NA
ATOM     16  H   UNL     1       8.512   4.746  16.900  0.00  0.00    +0.000 HD
ENDBRANCH  10  11
BRANCH   1  17
ATOM     17  C   UNL     1       2.437   6.443  17.961  0.00  0.00    +0.000 C 
BRANCH  17  19
ATOM     18  C   UNL     1       2.004   8.962  17.826  0.00  0.00    +0.000 C 
ATOM     19  C   UNL     1       3.041   7.852  17.858  0.00  0.00    +0.000 C 
ENDBRANCH  17  19
ENDBRANCH   1  17
TORSDOF 3
ENDMDL
MODEL 6
REMARK VINA RESULT:      -7.2      2.181      3.714
REMARK  Name = 
REMARK  4 active torsions:
REMARK  status: ('A' for Active; 'I' for Inactive)
REMARK    1  A    between atoms: C_1  and  C_2
REMARK    2  A    between atoms: C_2  and  C_3
REMARK    3  A    between atoms: C_3  and  C_4
REMARK    4  A    between atoms: C_13  and  C_14
REMARK                            x       y       z     vdW  Elec       q    Type
REMARK                         _______ _______ _______ _____ _____    ______ ____
ROOT
ATOM      1  C   UNL     1       5.464   4.396  18.578  0.00  0.00    +0.000 C 
ATOM      2  C   UNL     1       4.111   4.003  19.165  0.00  0.00    +0.000 A 
ATOM      3  C   UNL     1       3.867   3.187  20.264  0.00  0.00    +0.000 A 
ATOM      4  C   UNL     1       2.551   2.896  20.615  0.00  0.00    +0.000 A 
ATOM      5  C   UNL     1       1.485   3.398  19.856  0.00  0.00    +0.000 A 
ATOM      6  C   UNL     1       1.734   4.190  18.732  0.00  0.00    +0.000 A 
ATOM      7  C   UNL     1       3.046   4.486  18.381  0.00  0.00    +0.000 A 
ATOM      8  C   UNL     1       3.532   5.210  17.170  0.00  0.00    +0.000 C 
ATOM      9  C   UNL     1       4.352   6.449  17.252  0.00  0.00    +0.000 C 
ATOM     10  C   UNL     1       5.071   5.098  17.244  0.00  0.00    +0.000 C 
ENDROOT
BRANCH  10  11
ATOM     11  C   UNL     1       5.756   4.697  15.931  0.00  0.00    +0.000 A 
ATOM     12  C   UNL     1       5.711   3.466  15.322  0.00  0.00    +0.000 A 
ATOM     13  N   UNL     1       6.411   3.619  14.158  0.00  0.00    +0.000 N 
ATOM     14  C   UNL     1       6.848   4.911  14.103  0.00  0.00    +0.000 A 
ATOM     15  N   UNL     1       6.485   5.583  15.171  0.00  0.00    +0.000 NA
ATOM     16  H   UNL     1       6.568   2.915  13.450  0.00  0.00    +0.000 HD
ENDBRANCH  10  11
BRANCH   1  17
ATOM     17  C   UNL     1       6.347   5.293  19.477  0.00  0.00    +0.000 C 
BRANCH  17  19
ATOM     18  C   UNL     1       7.907   6.988  18.362  0.00  0.00    +0.000 C 
ATOM     19  C   UNL     1       7.738   5.572  18.887  0.00  0.00    +0.000 C 
ENDBRANCH  17  19
ENDBRANCH   1  17
TORSDOF 3
ENDMDL
MODEL 7
REMARK VINA RESULT:      -7.0      0.994      1.039
REMARK  Name = 
REMARK  4 active torsions:
REMARK  status: ('A' for Active; 'I' for Inactive)
REMARK    1  A    between atoms: C_1  and  C_2
REMARK    2  A    between atoms: C_2  and  C_3
REMARK    3  A    between atoms: C_3  and  C_4
REMARK    4  A    between atoms: C_13  and  C_14
REMARK                            x       y       z     vdW  Elec       q    Type
REMARK                         _______ _______ _______ _____ _____    ______ ____
ROOT
ATOM      1  C   UNL     1       3.663   5.572  19.413  0.00  0.00    +0.000 C 
ATOM      2  C   UNL     1       2.577   4.502  19.339  0.00  0.00    +0.000 A 
ATOM      3  C   UNL     1       1.545   4.276  20.242  0.00  0.00    +0.000 A 
ATOM      4  C   UNL     1       0.680   3.205  20.030  0.00  0.00    +0.000 A 
ATOM      5  C   UNL     1       0.862   2.349  18.936  0.00  0.00    +0.000 A 
ATOM      6  C   UNL     1       1.921   2.559  18.048  0.00  0.00    +0.000 A 
ATOM      7  C   UNL     1       2.784   3.629  18.254  0.00  0.00    +0.000 A 
ATOM      8  C   UNL     1       4.028   3.962  17.502  0.00  0.00    +0.000 C 
ATOM      9  C   UNL     1       4.221   5.263  16.805  0.00  0.00    +0.000 C 
ATOM     10  C   UNL     1       4.639   5.154  18.273  0.00  0.00    +0.000 C 
ENDROOT
BRANCH  10  11
ATOM     11  C   UNL     1       6.145   5.046  18.547  0.00  0.00    +0.000 A 
ATOM     12  C   UNL     1       7.110   4.602  17.675  0.00  0.00    +0.000 A 
ATOM     13  N   UNL     1       8.292   4.752  18.346  0.00  0.00    +0.000 N 
ATOM     14  C   UNL     1       8.007   5.270  19.577  0.00  0.00    +0.000 A 
ATOM     15  N   UNL     1       6.715   5.440  19.736  0.00  0.00    +0.000 NA
ATOM     16  H   UNL     1       9.216   4.539  17.998  0.00  0.00    +0.000 HD
ENDBRANCH  10  11
BRANCH   1  17
ATOM     17  C   UNL     1       3.174   7.031  19.264  0.00  0.00    +0.000 C 
BRANCH  17  19
ATOM     18  C   UNL     1       1.922   8.670  17.747  0.00  0.00    +0.000 C 
ATOM     19  C   UNL     1       2.132   7.219  18.150  0.00  0.00    +0.000 C 
ENDBRANCH  17  19
ENDBRANCH   1  17
TORSDOF 3
ENDMDL
MODEL 8
REMARK VINA RESULT:      -6.9      1.135      1.250
REMARK  Name = 
REMARK  4 active torsions:
REMARK  status: ('A' for Active; 'I' for Inactive)
REMARK    1  A    between atoms: C_1  and  C_2
REMARK    2  A    between atoms: C_2  and  C_3
REMARK    3  A    between atoms: C_3  and  C_4
REMARK    4  A    between atoms: C_13  and  C_14
REMARK                            x       y       z     vdW  Elec       q    Type
REMARK                         _______ _______ _______ _____ _____    ______ ____
ROOT
ATOM      1  C   UNL     1       3.327   5.794  19.519  0.00  0.00    +0.000 C 
ATOM      2  C   UNL     1       2.453   4.555  19.349  0.00  0.00    +0.000 A 
ATOM      3  C   UNL     1       1.495   4.064  20.229  0.00  0.00    +0.000 A 
ATOM      4  C   UNL     1       0.836   2.876  19.921  0.00  0.00    +0.000 A 
ATOM      5  C   UNL     1       1.152   2.169  18.754  0.00  0.00    +0.000 A 
ATOM      6  C   UNL     1       2.140   2.646  17.889  0.00  0.00    +0.000 A 
ATOM      7  C   UNL     1       2.797   3.834  18.190  0.00  0.00    +0.000 A 
ATOM      8  C   UNL     1       3.947   4.454  17.471  0.00  0.00    +0.000 C 
ATOM      9  C   UNL     1       3.888   5.825  16.894  0.00  0.00    +0.000 C 
ATOM     10  C   UNL     1       4.343   5.665  18.346  0.00  0.00    +0.000 C 
ENDROOT
BRANCH  10  11
ATOM     11  C   UNL     1       5.848   5.810  18.609  0.00  0.00    +0.000 A 
ATOM     12  C   UNL     1       6.749   6.524  17.856  0.00  0.00    +0.000 A 
ATOM     13  N   UNL     1       7.939   6.407  18.521  0.00  0.00    +0.000 N 
ATOM     14  C   UNL     1       7.721   5.640  19.629  0.00  0.00    +0.000 A 
ATOM     15  N   UNL     1       6.471   5.247  19.699  0.00  0.00    +0.000 NA
ATOM     16  H   UNL     1       8.821   6.824  18.258  0.00  0.00    +0.000 HD
ENDBRANCH  10  11
BRANCH   1  17
ATOM     17  C   UNL     1       2.578   7.147  19.502  0.00  0.00    +0.000 C 
BRANCH  17  19
ATOM     18  C   UNL     1       1.242   8.754  20.981  0.00  0.00    +0.000 C 
ATOM     19  C   UNL     1       1.572   7.307  20.653  0.00  0.00    +0.000 C 
ENDBRANCH  17  19
ENDBRANCH   1  17
TORSDOF 3
ENDMDL
MODEL 9
REMARK VINA RESULT:      -6.9      2.539      4.708
REMARK  Name = 
REMARK  4 active torsions:
REMARK  status: ('A' for Active; 'I' for Inactive)
REMARK    1  A    between atoms: C_1  and  C_2
REMARK    2  A    between atoms: C_2  and  C_3
REMARK    3  A    between atoms: C_3  and  C_4
REMARK    4  A    between atoms: C_13  and  C_14
REMARK                            x       y       z     vdW  Elec       q    Type
REMARK                         _______ _______ _______ _____ _____    ______ ____
ROOT
ATOM      1  C   UNL     1       3.560   5.958  17.406  0.00  0.00    +0.000 C 
ATOM      2  C   UNL     1       4.791   5.557  16.598  0.00  0.00    +0.000 A 
ATOM      3  C   UNL     1       5.121   5.946  15.305  0.00  0.00    +0.000 A 
ATOM      4  C   UNL     1       6.267   5.424  14.710  0.00  0.00    +0.000 A 
ATOM      5  C   UNL     1       7.065   4.498  15.396  0.00  0.00    +0.000 A 
ATOM      6  C   UNL     1       6.713   4.083  16.683  0.00  0.00    +0.000 A 
ATOM      7  C   UNL     1       5.571   4.605  17.280  0.00  0.00    +0.000 A 
ATOM      8  C   UNL     1       4.960   4.218  18.585  0.00  0.00    +0.000 C 
ATOM      9  C   UNL     1       4.745   5.191  19.691  0.00  0.00    +0.000 C 
ATOM     10  C   UNL     1       3.639   5.018  18.647  0.00  0.00    +0.000 C 
ENDROOT
BRANCH  10  11
ATOM     11  C   UNL     1       2.410   4.210  19.081  0.00  0.00    +0.000 A 
ATOM     12  C   UNL     1       1.669   4.390  20.224  0.00  0.00    +0.000 A 
ATOM     13  N   UNL     1       0.650   3.482  20.134  0.00  0.00    +0.000 N 
ATOM     14  C   UNL     1       0.808   2.797  18.964  0.00  0.00    +0.000 A 
ATOM     15  N   UNL     1       1.875   3.200  18.315  0.00  0.00    +0.000 NA
ATOM     16  H   UNL     1      -0.099   3.347  20.798  0.00  0.00    +0.000 HD
ENDBRANCH  10  11
BRANCH   1  17
ATOM     17  C   UNL     1       3.479   7.451  17.804  0.00  0.00    +0.000 C 
BRANCH  17  19
ATOM     18  C   UNL     1       1.563   9.148  17.844  0.00  0.00    +0.000 C 
ATOM     19  C   UNL     1       2.125   7.853  18.408  0.00  0.00    +0.000 C 
ENDBRANCH  17  19
ENDBRANCH   1  17
TORSDOF 3
ENDMDL
