MODEL 1
REMARK VINA RESULT:      -8.1      0.000      0.000
REMARK  Name = 
REMARK  2 active torsions:
REMARK  status: ('A' for Active; 'I' for Inactive)
REMARK    1  A    between atoms: N_1  and  C_2
REMARK    2  A    between atoms: C_12  and  C_14
REMARK                            x       y       z     vdW  Elec       q    Type
REMARK                         _______ _______ _______ _____ _____    ______ ____
ROOT
ATOM      1  C   UNL     1      -1.130  11.133  22.508  0.00  0.00    +0.000 A 
ATOM      2  C   UNL     1      -0.760  11.822  21.341  0.00  0.00    +0.000 A 
ATOM      3  C   UNL     1       0.124  11.275  20.403  0.00  0.00    +0.000 A 
ATOM      4  C   UNL     1       0.554   9.985  20.676  0.00  0.00    +0.000 A 
ATOM      5  O   UNL     1       1.386   9.222  19.921  0.00  0.00    +0.000 OA
ATOM      6  C   UNL     1       1.432   8.020  20.577  0.00  0.00    +0.000 A 
ATOM      7  N   UNL     1       2.108   7.028  19.962  0.00  0.00    +0.000 N 
ATOM      8  C   UNL     1       2.151   5.688  20.556  0.00  0.00    +0.000 C 
ATOM      9  C   UNL     1       2.189   4.616  19.445  0.00  0.00    +0.000 C 
ATOM     10  N   UNL     1       3.215   4.912  18.427  0.00  0.00    +0.000 N 
ATOM     11  C   UNL     1       3.993   3.864  17.943  0.00  0.00    +0.000 C 
ATOM     12  O   UNL     1       3.840   2.703  18.313  0.00  0.00    +0.000 OA
ATOM     13  C   UNL     1       3.079   6.262  17.856  0.00  0.00    +0.000 C 
ATOM     14  C   UNL     1       3.140   7.321  18.969  0.00  0.00    +0.000 C 
ATOM     15  N   UNL     1       0.731   7.983  21.691  0.00  0.00    +0.000 NA
ATOM     16  C   UNL     1       0.167   9.234  21.769  0.00  0.00    +0.000 A 
ATOM     17  C   UNL     1      -0.702   9.808  22.706  0.00  0.00    +0.000 A 
ENDROOT
BRANCH  11  18
ATOM     18  C   UNL     1       5.066   4.117  16.937  0.00  0.00    +0.000 A 
ATOM     19  C   UNL     1       6.361   4.506  17.300  0.00  0.00    +0.000 A 
ATOM     20  C   UNL     1       7.310   4.803  16.319  0.00  0.00    +0.000 A 
ATOM     21  C   UNL     1       6.992   4.629  14.975  0.00  0.00    +0.000 A 
ATOM     22  C   UNL     1       5.736   4.146  14.625  0.00  0.00    +0.000 A 
ATOM     23  F   UNL     1       5.453   3.930  13.333  0.00  0.00    +0.000 F 
ATOM     24  C   UNL     1       4.768   3.891  15.589  0.00  0.00    +0.000 A 
ENDBRANCH  11  18
BRANCH   1  25
ATOM     25  N   UNL     1      -2.111  11.679  23.349  0.00  0.00    +0.000 N 
ATOM     26  H   UNL     1      -1.924  11.556  24.340  0.00  0.00    +0.000 HD
ATOM     27  H   UNL     1      -3.060  11.413  23.102  0.00  0.00    +0.000 HD
ENDBRANCH   1  25
TORSDOF 2
ENDMDL
MODEL 2
REMARK VINA RESULT:      -7.8      1.152      1.495
REMARK  Name = 
REMARK  2 active torsions:
REMARK  status: ('A' for Active; 'I' for Inactive)
REMARK    1  A    between atoms: N_1  and  C_2
REMARK    2  A    between atoms: C_12  and  C_14
REMARK                            x       y       z     vdW  Elec       q    Type
REMARK                         _______ _______ _______ _____ _____    ______ ____
ROOT
ATOM      1  C   UNL     1      -1.193  11.547  22.652  0.00  0.00    +0.000 A 
ATOM      2  C   UNL     1      -0.683  12.217  21.527  0.00  0.00    +0.000 A 
ATOM      3  C   UNL     1       0.206  11.605  20.636  0.00  0.00    +0.000 A 
ATOM      4  C   UNL     1       0.496  10.275  20.907  0.00  0.00    +0.000 A 
ATOM      5  O   UNL     1       1.302   9.449  20.190  0.00  0.00    +0.000 OA
ATOM      6  C   UNL     1       1.192   8.238  20.821  0.00  0.00    +0.000 A 
ATOM      7  N   UNL     1       1.812   7.197  20.229  0.00  0.00    +0.000 N 
ATOM      8  C   UNL     1       1.691   5.850  20.795  0.00  0.00    +0.000 C 
ATOM      9  C   UNL     1       1.704   4.797  19.664  0.00  0.00    +0.000 C 
ATOM     10  N   UNL     1       2.818   5.011  18.721  0.00  0.00    +0.000 N 
ATOM     11  C   UNL     1       3.527   3.903  18.266  0.00  0.00    +0.000 C 
ATOM     12  O   UNL     1       3.241   2.756  18.598  0.00  0.00    +0.000 OA
ATOM     13  C   UNL     1       2.847   6.378  18.174  0.00  0.00    +0.000 C 
ATOM     14  C   UNL     1       2.931   7.408  19.312  0.00  0.00    +0.000 C 
ATOM     15  N   UNL     1       0.419   8.250  21.886  0.00  0.00    +0.000 NA
ATOM     16  C   UNL     1      -0.032   9.546  21.956  0.00  0.00    +0.000 A 
ATOM     17  C   UNL     1      -0.904  10.184  22.847  0.00  0.00    +0.000 A 
ENDROOT
BRANCH  11  18
ATOM     18  C   UNL     1       4.683   4.070  17.338  0.00  0.00    +0.000 A 
ATOM     19  C   UNL     1       4.532   4.098  15.946  0.00  0.00    +0.000 A 
ATOM     20  C   UNL     1       5.652   4.182  15.116  0.00  0.00    +0.000 A 
ATOM     21  C   UNL     1       6.919   4.324  15.677  0.00  0.00    +0.000 A 
ATOM     22  C   UNL     1       7.052   4.397  17.059  0.00  0.00    +0.000 A 
ATOM     23  F   UNL     1       8.267   4.587  17.591  0.00  0.00    +0.000 F 
ATOM     24  C   UNL     1       5.950   4.269  17.896  0.00  0.00    +0.000 A 
ENDBRANCH  11  18
BRANCH   1  25
ATOM     25  N   UNL     1      -2.173  12.169  23.439  0.00  0.00    +0.000 N 
ATOM     26  H   UNL     1      -1.803  12.678  24.236  0.00  0.00    +0.000 HD
ATOM     27  H   UNL     1      -2.943  11.558  23.698  0.00  0.00    +0.000 HD
ENDBRANCH   1  25
TORSDOF 2
ENDMDL
MODEL 3
REMARK VINA RESULT:      -7.7      4.224      9.410
REMARK  Name = 
REMARK  2 active torsions:
REMARK  status: ('A' for Active; 'I' for Inactive)
REMARK    1  A    between atoms: N_1  and  C_2
REMARK    2  A    between atoms: C_12  and  C_14
REMARK                            x       y       z     vdW  Elec       q    Type
REMARK                         _______ _______ _______ _____ _____    ______ ____
ROOT
ATOM      1  C   UNL     1       3.810   2.730  19.854  0.00  0.00    +0.000 A 
ATOM      2  C   UNL     1       2.889   2.570  20.903  0.00  0.00    +0.000 A 
ATOM      3  C   UNL     1       2.122   3.635  21.389  0.00  0.00    +0.000 A 
ATOM      4  C   UNL     1       2.289   4.840  20.720  0.00  0.00    +0.000 A 
ATOM      5  O   UNL     1       1.652   6.012  20.972  0.00  0.00    +0.000 OA
ATOM      6  C   UNL     1       2.107   6.861  19.998  0.00  0.00    +0.000 A 
ATOM      7  N   UNL     1       1.530   8.079  19.948  0.00  0.00    +0.000 N 
ATOM      8  C   UNL     1       1.903   9.028  18.895  0.00  0.00    +0.000 C 
ATOM      9  C   UNL     1       0.683   9.890  18.502  0.00  0.00    +0.000 C 
ATOM     10  N   UNL     1       0.003  10.458  19.681  0.00  0.00    +0.000 N 
ATOM     11  C   UNL     1      -0.431  11.779  19.626  0.00  0.00    +0.000 C 
ATOM     12  O   UNL     1      -0.293  12.478  18.625  0.00  0.00    +0.000 OA
ATOM     13  C   UNL     1      -0.368   9.435  20.673  0.00  0.00    +0.000 C 
ATOM     14  C   UNL     1       0.875   8.652  21.123  0.00  0.00    +0.000 C 
ATOM     15  N   UNL     1       2.997   6.329  19.188  0.00  0.00    +0.000 NA
ATOM     16  C   UNL     1       3.127   5.037  19.639  0.00  0.00    +0.000 A 
ATOM     17  C   UNL     1       3.900   3.962  19.182  0.00  0.00    +0.000 A 
ENDROOT
BRANCH  11  18
ATOM     18  C   UNL     1      -1.094  12.410  20.805  0.00  0.00    +0.000 A 
ATOM     19  C   UNL     1      -0.374  12.893  21.904  0.00  0.00    +0.000 A 
ATOM     20  C   UNL     1      -1.044  13.408  23.016  0.00  0.00    +0.000 A 
ATOM     21  C   UNL     1      -2.432  13.519  22.996  0.00  0.00    +0.000 A 
ATOM     22  C   UNL     1      -3.135  13.131  21.861  0.00  0.00    +0.000 A 
ATOM     23  F   UNL     1      -4.465  13.290  21.826  0.00  0.00    +0.000 F 
ATOM     24  C   UNL     1      -2.483  12.575  20.766  0.00  0.00    +0.000 A 
ENDBRANCH  11  18
BRANCH   1  25
ATOM     25  N   UNL     1       4.461   1.604  19.330  0.00  0.00    +0.000 N 
ATOM     26  H   UNL     1       5.011   1.088  20.010  0.00  0.00    +0.000 HD
ATOM     27  H   UNL     1       4.980   1.788  18.477  0.00  0.00    +0.000 HD
ENDBRANCH   1  25
TORSDOF 2
ENDMDL
MODEL 4
REMARK VINA RESULT:      -7.5      4.183      9.441
REMARK  Name = 
REMARK  2 active torsions:
REMARK  status: ('A' for Active; 'I' for Inactive)
REMARK    1  A    between atoms: N_1  and  C_2
REMARK    2  A    between atoms: C_12  and  C_14
REMARK                            x       y       z     vdW  Elec       q    Type
REMARK                         _______ _______ _______ _____ _____    ______ ____
ROOT
ATOM      1  C   UNL     1       3.998   3.052  19.913  0.00  0.00    +0.000 A 
ATOM      2  C   UNL     1       2.978   2.837  20.855  0.00  0.00    +0.000 A 
ATOM      3  C   UNL     1       2.117   3.861  21.267  0.00  0.00    +0.000 A 
ATOM      4  C   UNL     1       2.302   5.082  20.634  0.00  0.00    +0.000 A 
ATOM      5  O   UNL     1       1.590   6.222  20.829  0.00  0.00    +0.000 OA
ATOM      6  C   UNL     1       2.109   7.104  19.919  0.00  0.00    +0.000 A 
ATOM      7  N   UNL     1       1.488   8.298  19.821  0.00  0.00    +0.000 N 
ATOM      8  C   UNL     1       1.930   9.278  18.825  0.00  0.00    +0.000 C 
ATOM      9  C   UNL     1       0.723  10.094  18.312  0.00  0.00    +0.000 C 
ATOM     10  N   UNL     1      -0.103  10.614  19.417  0.00  0.00    +0.000 N 
ATOM     11  C   UNL     1      -0.587  11.916  19.331  0.00  0.00    +0.000 C 
ATOM     12  O   UNL     1      -0.374  12.636  18.359  0.00  0.00    +0.000 OA
ATOM     13  C   UNL     1      -0.533   9.561  20.352  0.00  0.00    +0.000 C 
ATOM     14  C   UNL     1       0.687   8.824  20.925  0.00  0.00    +0.000 C 
ATOM     15  N   UNL     1       3.103   6.623  19.203  0.00  0.00    +0.000 NA
ATOM     16  C   UNL     1       3.241   5.332  19.651  0.00  0.00    +0.000 A 
ATOM     17  C   UNL     1       4.105   4.297  19.268  0.00  0.00    +0.000 A 
ENDROOT
BRANCH  11  18
ATOM     18  C   UNL     1      -1.399  12.500  20.438  0.00  0.00    +0.000 A 
ATOM     19  C   UNL     1      -2.795  12.593  20.378  0.00  0.00    +0.000 A 
ATOM     20  C   UNL     1      -3.506  13.215  21.408  0.00  0.00    +0.000 A 
ATOM     21  C   UNL     1      -2.831  13.668  22.538  0.00  0.00    +0.000 A 
ATOM     22  C   UNL     1      -1.456  13.481  22.636  0.00  0.00    +0.000 A 
ATOM     23  F   UNL     1      -0.819  13.870  23.749  0.00  0.00    +0.000 F 
ATOM     24  C   UNL     1      -0.732  12.906  21.599  0.00  0.00    +0.000 A 
ENDBRANCH  11  18
BRANCH   1  25
ATOM     25  N   UNL     1       4.750   1.963  19.449  0.00  0.00    +0.000 N 
ATOM     26  H   UNL     1       5.386   1.574  20.138  0.00  0.00    +0.000 HD
ATOM     27  H   UNL     1       5.204   2.127  18.556  0.00  0.00    +0.000 HD
ENDBRANCH   1  25
TORSDOF 2
ENDMDL
MODEL 5
REMARK VINA RESULT:      -7.4      1.771      2.197
REMARK  Name = 
REMARK  2 active torsions:
REMARK  status: ('A' for Active; 'I' for Inactive)
REMARK    1  A    between atoms: N_1  and  C_2
REMARK    2  A    between atoms: C_12  and  C_14
REMARK                            x       y       z     vdW  Elec       q    Type
REMARK                         _______ _______ _______ _____ _____    ______ ____
ROOT
ATOM      1  C   UNL     1      -2.244  12.672  20.763  0.00  0.00    +0.000 A 
ATOM      2  C   UNL     1      -2.078  12.852  19.380  0.00  0.00    +0.000 A 
ATOM      3  C   UNL     1      -1.166  12.095  18.635  0.00  0.00    +0.000 A 
ATOM      4  C   UNL     1      -0.488  11.115  19.346  0.00  0.00    +0.000 A 
ATOM      5  O   UNL     1       0.425  10.234  18.861  0.00  0.00    +0.000 OA
ATOM      6  C   UNL     1       0.732   9.441  19.935  0.00  0.00    +0.000 A 
ATOM      7  N   UNL     1       1.542   8.391  19.690  0.00  0.00    +0.000 N 
ATOM      8  C   UNL     1       1.869   7.447  20.763  0.00  0.00    +0.000 C 
ATOM      9  C   UNL     1       2.039   6.024  20.185  0.00  0.00    +0.000 C 
ATOM     10  N   UNL     1       2.929   6.009  19.009  0.00  0.00    +0.000 N 
ATOM     11  C   UNL     1       3.858   4.979  18.892  0.00  0.00    +0.000 C 
ATOM     12  O   UNL     1       3.945   4.072  19.715  0.00  0.00    +0.000 OA
ATOM     13  C   UNL     1       2.511   6.959  17.965  0.00  0.00    +0.000 C 
ATOM     14  C   UNL     1       2.441   8.384  18.537  0.00  0.00    +0.000 C 
ATOM     15  N   UNL     1       0.118   9.775  21.050  0.00  0.00    +0.000 NA
ATOM     16  C   UNL     1      -0.663  10.847  20.690  0.00  0.00    +0.000 A 
ATOM     17  C   UNL     1      -1.566  11.631  21.421  0.00  0.00    +0.000 A 
ENDROOT
BRANCH  11  18
ATOM     18  C   UNL     1       4.804   4.937  17.737  0.00  0.00    +0.000 A 
ATOM     19  C   UNL     1       4.632   4.063  16.657  0.00  0.00    +0.000 A 
ATOM     20  C   UNL     1       5.583   4.008  15.636  0.00  0.00    +0.000 A 
ATOM     21  C   UNL     1       6.664   4.887  15.650  0.00  0.00    +0.000 A 
ATOM     22  C   UNL     1       6.775   5.820  16.674  0.00  0.00    +0.000 A 
ATOM     23  F   UNL     1       7.786   6.699  16.654  0.00  0.00    +0.000 F 
ATOM     24  C   UNL     1       5.859   5.855  17.719  0.00  0.00    +0.000 A 
ENDBRANCH  11  18
BRANCH   1  25
ATOM     25  N   UNL     1      -3.257  13.374  21.433  0.00  0.00    +0.000 N 
ATOM     26  H   UNL     1      -3.361  14.339  21.134  0.00  0.00    +0.000 HD
ATOM     27  H   UNL     1      -3.218  13.288  22.444  0.00  0.00    +0.000 HD
ENDBRANCH   1  25
TORSDOF 2
ENDMDL
MODEL 6
REMARK VINA RESULT:      -7.3      3.521      9.287
REMARK  Name = 
REMARK  2 active torsions:
REMARK  status: ('A' for Active; 'I' for Inactive)
REMARK    1  A    between atoms: N_1  and  C_2
REMARK    2  A    between atoms: C_12  and  C_14
REMARK                            x       y       z     vdW  Elec       q    Type
REMARK                         _______ _______ _______ _____ _____    ______ ____
ROOT
ATOM      1  C   UNL     1       5.149   4.709  16.797  0.00  0.00    +0.000 A 
ATOM      2  C   UNL     1       5.310   5.874  16.029  0.00  0.00    +0.000 A 
ATOM      3  C   UNL     1       4.602   7.050  16.304  0.00  0.00    +0.000 A 
ATOM      4  C   UNL     1       3.783   7.002  17.422  0.00  0.00    +0.000 A 
ATOM      5  O   UNL     1       3.014   8.005  17.919  0.00  0.00    +0.000 OA
ATOM      6  C   UNL     1       2.469   7.480  19.061  0.00  0.00    +0.000 A 
ATOM      7  N   UNL     1       1.745   8.326  19.822  0.00  0.00    +0.000 N 
ATOM      8  C   UNL     1       1.182   7.871  21.097  0.00  0.00    +0.000 C 
ATOM      9  C   UNL     1       1.160   9.035  22.113  0.00  0.00    +0.000 C 
ATOM     10  N   UNL     1       0.570  10.258  21.539  0.00  0.00    +0.000 N 
ATOM     11  C   UNL     1      -0.300  11.009  22.324  0.00  0.00    +0.000 C 
ATOM     12  O   UNL     1      -0.572  10.705  23.482  0.00  0.00    +0.000 OA
ATOM     13  C   UNL     1       1.214  10.666  20.279  0.00  0.00    +0.000 C 
ATOM     14  C   UNL     1       1.141   9.528  19.249  0.00  0.00    +0.000 C 
ATOM     15  N   UNL     1       2.803   6.229  19.295  0.00  0.00    +0.000 NA
ATOM     16  C   UNL     1       3.640   5.908  18.254  0.00  0.00    +0.000 A 
ATOM     17  C   UNL     1       4.343   4.734  17.949  0.00  0.00    +0.000 A 
ENDROOT
BRANCH  11  18
ATOM     18  C   UNL     1      -0.949  12.237  21.778  0.00  0.00    +0.000 A 
ATOM     19  C   UNL     1      -0.404  13.515  21.950  0.00  0.00    +0.000 A 
ATOM     20  C   UNL     1      -1.086  14.641  21.484  0.00  0.00    +0.000 A 
ATOM     21  C   UNL     1      -2.272  14.486  20.771  0.00  0.00    +0.000 A 
ATOM     22  C   UNL     1      -2.756  13.207  20.517  0.00  0.00    +0.000 A 
ATOM     23  F   UNL     1      -3.868  13.061  19.785  0.00  0.00    +0.000 F 
ATOM     24  C   UNL     1      -2.111  12.081  21.014  0.00  0.00    +0.000 A 
ENDBRANCH  11  18
BRANCH   1  25
ATOM     25  N   UNL     1       5.974   3.601  16.551  0.00  0.00    +0.000 N 
ATOM     26  H   UNL     1       6.942   3.734  16.828  0.00  0.00    +0.000 HD
ATOM     27  H   UNL     1       5.891   3.228  15.610  0.00  0.00    +0.000 HD
ENDBRANCH   1  25
TORSDOF 2
ENDMDL
MODEL 7
REMARK VINA RESULT:      -7.3      4.060      9.712
REMARK  Name = 
REMARK  2 active torsions:
REMARK  status: ('A' for Active; 'I' for Inactive)
REMARK    1  A    between atoms: N_1  and  C_2
REMARK    2  A    between atoms: C_12  and  C_14
REMARK                            x       y       z     vdW  Elec       q    Type
REMARK                         _______ _______ _______ _____ _____    ______ ____
ROOT
ATOM      1  C   UNL     1       4.517   4.224  17.952  0.00  0.00    +0.000 A 
ATOM      2  C   UNL     1       3.955   3.815  19.173  0.00  0.00    +0.000 A 
ATOM      3  C   UNL     1       3.162   4.667  19.949  0.00  0.00    +0.000 A 
ATOM      4  C   UNL     1       2.918   5.917  19.398  0.00  0.00    +0.000 A 
ATOM      5  O   UNL     1       2.165   6.915  19.929  0.00  0.00    +0.000 OA
ATOM      6  C   UNL     1       2.179   7.895  18.973  0.00  0.00    +0.000 A 
ATOM      7  N   UNL     1       1.395   8.968  19.204  0.00  0.00    +0.000 N 
ATOM      8  C   UNL     1       1.292  10.034  18.202  0.00  0.00    +0.000 C 
ATOM      9  C   UNL     1      -0.127  10.645  18.223  0.00  0.00    +0.000 C 
ATOM     10  N   UNL     1      -0.561  10.990  19.590  0.00  0.00    +0.000 N 
ATOM     11  C   UNL     1      -1.230  12.193  19.792  0.00  0.00    +0.000 C 
ATOM     12  O   UNL     1      -1.496  12.962  18.873  0.00  0.00    +0.000 OA
ATOM     13  C   UNL     1      -0.458   9.856  20.524  0.00  0.00    +0.000 C 
ATOM     14  C   UNL     1       0.983   9.323  20.561  0.00  0.00    +0.000 C 
ATOM     15  N   UNL     1       2.903   7.607  17.912  0.00  0.00    +0.000 NA
ATOM     16  C   UNL     1       3.386   6.347  18.171  0.00  0.00    +0.000 A 
ATOM     17  C   UNL     1       4.195   5.485  17.419  0.00  0.00    +0.000 A 
ENDROOT
BRANCH  11  18
ATOM     18  C   UNL     1      -1.661  12.602  21.162  0.00  0.00    +0.000 A 
ATOM     19  C   UNL     1      -0.783  13.187  22.082  0.00  0.00    +0.000 A 
ATOM     20  C   UNL     1      -1.213  13.485  23.377  0.00  0.00    +0.000 A 
ATOM     21  C   UNL     1      -2.545  13.277  23.727  0.00  0.00    +0.000 A 
ATOM     22  C   UNL     1      -3.436  12.790  22.777  0.00  0.00    +0.000 A 
ATOM     23  F   UNL     1      -4.727  12.643  23.104  0.00  0.00    +0.000 F 
ATOM     24  C   UNL     1      -3.010  12.447  21.500  0.00  0.00    +0.000 A 
ENDBRANCH  11  18
BRANCH   1  25
ATOM     25  N   UNL     1       5.201   3.289  17.160  0.00  0.00    +0.000 N 
ATOM     26  H   UNL     1       4.653   2.917  16.391  0.00  0.00    +0.000 HD
ATOM     27  H   UNL     1       5.661   2.557  17.692  0.00  0.00    +0.000 HD
ENDBRANCH   1  25
TORSDOF 2
ENDMDL
MODEL 8
REMARK VINA RESULT:      -7.3      3.762      9.428
REMARK  Name = 
REMARK  2 active torsions:
REMARK  status: ('A' for Active; 'I' for Inactive)
REMARK    1  A    between atoms: N_1  and  C_2
REMARK    2  A    between atoms: C_12  and  C_14
REMARK                            x       y       z     vdW  Elec       q    Type
REMARK                         _______ _______ _______ _____ _____    ______ ____
ROOT
ATOM      1  C   UNL     1       5.141   4.713  16.807  0.00  0.00    +0.000 A 
ATOM      2  C   UNL     1       5.341   5.893  16.072  0.00  0.00    +0.000 A 
ATOM      3  C   UNL     1       4.642   7.073  16.353  0.00  0.00    +0.000 A 
ATOM      4  C   UNL     1       3.788   7.010  17.445  0.00  0.00    +0.000 A 
ATOM      5  O   UNL     1       3.019   8.013  17.943  0.00  0.00    +0.000 OA
ATOM      6  C   UNL     1       2.433   7.469  19.055  0.00  0.00    +0.000 A 
ATOM      7  N   UNL     1       1.699   8.307  19.815  0.00  0.00    +0.000 N 
ATOM      8  C   UNL     1       1.091   7.831  21.061  0.00  0.00    +0.000 C 
ATOM      9  C   UNL     1       1.055   8.971  22.103  0.00  0.00    +0.000 C 
ATOM     10  N   UNL     1       0.500  10.216  21.542  0.00  0.00    +0.000 N 
ATOM     11  C   UNL     1      -0.382  10.961  22.319  0.00  0.00    +0.000 C 
ATOM     12  O   UNL     1      -0.693  10.634  23.461  0.00  0.00    +0.000 OA
ATOM     13  C   UNL     1       1.188  10.643  20.312  0.00  0.00    +0.000 C 
ATOM     14  C   UNL     1       1.129   9.531  19.253  0.00  0.00    +0.000 C 
ATOM     15  N   UNL     1       2.742   6.208  19.270  0.00  0.00    +0.000 NA
ATOM     16  C   UNL     1       3.606   5.899  18.246  0.00  0.00    +0.000 A 
ATOM     17  C   UNL     1       4.300   4.723  17.934  0.00  0.00    +0.000 A 
ENDROOT
BRANCH  11  18
ATOM     18  C   UNL     1      -0.997  12.211  21.783  0.00  0.00    +0.000 A 
ATOM     19  C   UNL     1      -2.059  12.196  20.871  0.00  0.00    +0.000 A 
ATOM     20  C   UNL     1      -2.551  13.391  20.342  0.00  0.00    +0.000 A 
ATOM     21  C   UNL     1      -2.041  14.607  20.788  0.00  0.00    +0.000 A 
ATOM     22  C   UNL     1      -1.055  14.618  21.768  0.00  0.00    +0.000 A 
ATOM     23  F   UNL     1      -0.605  15.791  22.233  0.00  0.00    +0.000 F 
ATOM     24  C   UNL     1      -0.525  13.435  22.270  0.00  0.00    +0.000 A 
ENDBRANCH  11  18
BRANCH   1  25
ATOM     25  N   UNL     1       5.956   3.599  16.558  0.00  0.00    +0.000 N 
ATOM     26  H   UNL     1       6.309   3.147  17.396  0.00  0.00    +0.000 HD
ATOM     27  H   UNL     1       6.690   3.769  15.877  0.00  0.00    +0.000 HD
ENDBRANCH   1  25
TORSDOF 2
ENDMDL
MODEL 9
REMARK VINA RESULT:      -7.3      4.097      9.405
REMARK  Name = 
REMARK  2 active torsions:
REMARK  status: ('A' for Active; 'I' for Inactive)
REMARK    1  A    between atoms: N_1  and  C_2
REMARK    2  A    between atoms: C_12  and  C_14
REMARK                            x       y       z     vdW  Elec       q    Type
REMARK                         _______ _______ _______ _____ _____    ______ ____
ROOT
ATOM      1  C   UNL     1       3.609   2.609  19.352  0.00  0.00    +0.000 A 
ATOM      2  C   UNL     1       2.902   2.498  20.561  0.00  0.00    +0.000 A 
ATOM      3  C   UNL     1       2.288   3.599  21.168  0.00  0.00    +0.000 A 
ATOM      4  C   UNL     1       2.374   4.790  20.461  0.00  0.00    +0.000 A 
ATOM      5  O   UNL     1       1.847   5.992  20.812  0.00  0.00    +0.000 OA
ATOM      6  C   UNL     1       2.141   6.812  19.755  0.00  0.00    +0.000 A 
ATOM      7  N   UNL     1       1.617   8.054  19.798  0.00  0.00    +0.000 N 
ATOM      8  C   UNL     1       1.820   8.978  18.678  0.00  0.00    +0.000 C 
ATOM      9  C   UNL     1       0.585   9.890  18.512  0.00  0.00    +0.000 C 
ATOM     10  N   UNL     1       0.170  10.497  19.791  0.00  0.00    +0.000 N 
ATOM     11  C   UNL     1      -0.211  11.836  19.800  0.00  0.00    +0.000 C 
ATOM     12  O   UNL     1      -0.239  12.520  18.780  0.00  0.00    +0.000 OA
ATOM     13  C   UNL     1      -0.046   9.499  20.852  0.00  0.00    +0.000 C 
ATOM     14  C   UNL     1       1.226   8.665  21.068  0.00  0.00    +0.000 C 
ATOM     15  N   UNL     1       2.835   6.235  18.797  0.00  0.00    +0.000 NA
ATOM     16  C   UNL     1       2.995   4.942  19.236  0.00  0.00    +0.000 A 
ATOM     17  C   UNL     1       3.620   3.830  18.656  0.00  0.00    +0.000 A 
ENDROOT
BRANCH  11  18
ATOM     18  C   UNL     1      -0.607  12.504  21.074  0.00  0.00    +0.000 A 
ATOM     19  C   UNL     1      -1.582  11.975  21.928  0.00  0.00    +0.000 A 
ATOM     20  C   UNL     1      -1.972  12.675  23.073  0.00  0.00    +0.000 A 
ATOM     21  C   UNL     1      -1.328  13.863  23.409  0.00  0.00    +0.000 A 
ATOM     22  C   UNL     1      -0.292  14.332  22.609  0.00  0.00    +0.000 A 
ATOM     23  F   UNL     1       0.360  15.447  22.966  0.00  0.00    +0.000 F 
ATOM     24  C   UNL     1       0.075  13.668  21.444  0.00  0.00    +0.000 A 
ENDBRANCH  11  18
BRANCH   1  25
ATOM     25  N   UNL     1       4.098   1.450  18.730  0.00  0.00    +0.000 N 
ATOM     26  H   UNL     1       3.768   0.585  19.147  0.00  0.00    +0.000 HD
ATOM     27  H   UNL     1       5.105   1.450  18.593  0.00  0.00    +0.000 HD
ENDBRANCH   1  25
TORSDOF 2
ENDMDL
