MODEL 1
REMARK VINA RESULT:      -7.9      0.000      0.000
REMARK  Name = 
REMARK  6 active torsions:
REMARK  status: ('A' for Active; 'I' for Inactive)
REMARK    1  A    between atoms: C_1  and  N_2
REMARK    2  A    between atoms: C_5  and  C_6
REMARK    3  A    between atoms: C_9  and  O_10
REMARK    4  A    between atoms: O_10  and  C_11
REMARK    5  A    between atoms: N_13  and  C_14
REMARK    6  A    between atoms: N_24  and  C_25
REMARK                            x       y       z     vdW  Elec       q    Type
REMARK                         _______ _______ _______ _____ _____    ______ ____
ROOT
ATOM      1  C   UNL     1      -0.592  14.297  21.617  0.00  0.00    +0.000 C 
ATOM      2  N   UNL     1      -1.039  12.910  21.657  0.00  0.00    +0.000 NA
ATOM      3  C   UNL     1      -1.582  12.604  22.939  0.00  0.00    +0.000 C 
ATOM      4  C   UNL     1      -1.143  11.197  23.192  0.00  0.00    +0.000 C 
ATOM      5  C   UNL     1      -0.497  10.377  21.966  0.00  0.00    +0.000 C 
ATOM      6  C   UNL     1      -0.110   9.301  23.109  0.00  0.00    +0.000 C 
ATOM      7  C   UNL     1       0.571   9.719  20.972  0.00  0.00    +0.000 A 
ATOM      8  C   UNL     1       1.187   8.435  20.966  0.00  0.00    +0.000 A 
ATOM      9  C   UNL     1       1.835   7.924  19.835  0.00  0.00    +0.000 A 
ATOM     10  C   UNL     1       1.881   8.667  18.666  0.00  0.00    +0.000 A 
ATOM     11  C   UNL     1       1.396   9.968  18.682  0.00  0.00    +0.000 A 
ATOM     12  C   UNL     1       0.782  10.483  19.829  0.00  0.00    +0.000 A 
ATOM     13  N   UNL     1       0.411  11.788  20.003  0.00  0.00    +0.000 N 
ATOM     14  C   UNL     1      -0.081  12.613  18.922  0.00  0.00    +0.000 C 
ATOM     15  C   UNL     1       0.016  11.914  21.405  0.00  0.00    +0.000 C 
ENDROOT
BRANCH   9  16
ATOM     16  O   UNL     1       2.345   6.607  19.932  0.00  0.00    +0.000 OA
BRANCH  16  17
ATOM     17  C   UNL     1       2.625   5.947  18.742  0.00  0.00    +0.000 C 
ATOM     18  O   UNL     1       1.808   5.262  18.133  0.00  0.00    +0.000 OA
ATOM     19  N   UNL     1       3.940   6.140  18.363  0.00  0.00    +0.000 N 
ATOM     20  H   UNL     1       4.549   6.538  19.062  0.00  0.00    +0.000 HD
BRANCH  19  21
ATOM     21  C   UNL     1       4.491   5.632  17.165  0.00  0.00    +0.000 A 
ATOM     22  C   UNL     1       4.716   4.261  16.991  0.00  0.00    +0.000 A 
ATOM     23  C   UNL     1       5.391   3.776  15.872  0.00  0.00    +0.000 A 
ATOM     24  C   UNL     1       5.819   4.663  14.899  0.00  0.00    +0.000 A 
ATOM     25 BR   UNL     1       6.823   4.016  13.437  0.00  0.00    +0.000 Br
ATOM     26  C   UNL     1       5.531   6.024  15.013  0.00  0.00    +0.000 A 
ATOM     27  C   UNL     1       4.850   6.510  16.138  0.00  0.00    +0.000 A 
ENDBRANCH  19  21
ENDBRANCH  16  17
ENDBRANCH   9  16
TORSDOF 3
ENDMDL
MODEL 2
REMARK VINA RESULT:      -7.9      5.601      8.194
REMARK  Name = 
REMARK  6 active torsions:
REMARK  status: ('A' for Active; 'I' for Inactive)
REMARK    1  A    between atoms: C_1  and  N_2
REMARK    2  A    between atoms: C_5  and  C_6
REMARK    3  A    between atoms: C_9  and  O_10
REMARK    4  A    between atoms: O_10  and  C_11
REMARK    5  A    between atoms: N_13  and  C_14
REMARK    6  A    between atoms: N_24  and  C_25
REMARK                            x       y       z     vdW  Elec       q    Type
REMARK                         _______ _______ _______ _____ _____    ______ ____
ROOT
ATOM      1  C   UNL     1       1.214   2.205  19.474  0.00  0.00    +0.000 C 
ATOM      2  N   UNL     1       1.960   3.361  19.955  0.00  0.00    +0.000 NA
ATOM      3  C   UNL     1       1.066   4.359  20.440  0.00  0.00    +0.000 C 
ATOM      4  C   UNL     1       1.702   5.647  20.026  0.00  0.00    +0.000 C 
ATOM      5  C   UNL     1       3.210   5.597  19.465  0.00  0.00    +0.000 C 
ATOM      6  C   UNL     1       2.929   7.133  19.050  0.00  0.00    +0.000 C 
ATOM      7  C   UNL     1       4.462   5.546  18.467  0.00  0.00    +0.000 A 
ATOM      8  C   UNL     1       5.246   6.583  17.887  0.00  0.00    +0.000 A 
ATOM      9  C   UNL     1       6.499   6.335  17.312  0.00  0.00    +0.000 A 
ATOM     10  C   UNL     1       7.020   5.051  17.306  0.00  0.00    +0.000 A 
ATOM     11  C   UNL     1       6.224   4.006  17.754  0.00  0.00    +0.000 A 
ATOM     12  C   UNL     1       4.958   4.258  18.295  0.00  0.00    +0.000 A 
ATOM     13  N   UNL     1       4.038   3.300  18.622  0.00  0.00    +0.000 N 
ATOM     14  C   UNL     1       4.409   2.004  19.147  0.00  0.00    +0.000 C 
ATOM     15  C   UNL     1       2.804   4.016  18.941  0.00  0.00    +0.000 C 
ENDROOT
BRANCH   9  16
ATOM     16  O   UNL     1       7.213   7.460  16.833  0.00  0.00    +0.000 OA
BRANCH  16  17
ATOM     17  C   UNL     1       7.946   8.187  17.762  0.00  0.00    +0.000 C 
ATOM     18  O   UNL     1       8.523   7.684  18.722  0.00  0.00    +0.000 OA
ATOM     19  N   UNL     1       7.909   9.540  17.478  0.00  0.00    +0.000 N 
ATOM     20  H   UNL     1       7.226   9.831  16.795  0.00  0.00    +0.000 HD
BRANCH  19  21
ATOM     21  C   UNL     1       8.611  10.515  18.222  0.00  0.00    +0.000 A 
ATOM     22  C   UNL     1       9.226  10.198  19.439  0.00  0.00    +0.000 A 
ATOM     23  C   UNL     1       9.792  11.188  20.241  0.00  0.00    +0.000 A 
ATOM     24  C   UNL     1       9.773  12.505  19.812  0.00  0.00    +0.000 A 
ATOM     25 BR   UNL     1      10.446  13.856  20.946  0.00  0.00    +0.000 Br
ATOM     26  C   UNL     1       9.240  12.829  18.564  0.00  0.00    +0.000 A 
ATOM     27  C   UNL     1       8.674  11.831  17.757  0.00  0.00    +0.000 A 
ENDBRANCH  19  21
ENDBRANCH  16  17
ENDBRANCH   9  16
TORSDOF 3
ENDMDL
MODEL 3
REMARK VINA RESULT:      -7.8      4.180      8.461
REMARK  Name = 
REMARK  6 active torsions:
REMARK  status: ('A' for Active; 'I' for Inactive)
REMARK    1  A    between atoms: C_1  and  N_2
REMARK    2  A    between atoms: C_5  and  C_6
REMARK    3  A    between atoms: C_9  and  O_10
REMARK    4  A    between atoms: O_10  and  C_11
REMARK    5  A    between atoms: N_13  and  C_14
REMARK    6  A    between atoms: N_24  and  C_25
REMARK                            x       y       z     vdW  Elec       q    Type
REMARK                         _______ _______ _______ _____ _____    ______ ____
ROOT
ATOM      1  C   UNL     1       3.559   1.511  19.176  0.00  0.00    +0.000 C 
ATOM      2  N   UNL     1       3.574   2.755  19.936  0.00  0.00    +0.000 NA
ATOM      3  C   UNL     1       2.789   2.622  21.118  0.00  0.00    +0.000 C 
ATOM      4  C   UNL     1       2.131   3.956  21.268  0.00  0.00    +0.000 C 
ATOM      5  C   UNL     1       2.647   5.161  20.334  0.00  0.00    +0.000 C 
ATOM      6  C   UNL     1       1.342   5.932  20.894  0.00  0.00    +0.000 C 
ATOM      7  C   UNL     1       2.762   6.211  19.131  0.00  0.00    +0.000 A 
ATOM      8  C   UNL     1       2.234   7.523  18.972  0.00  0.00    +0.000 A 
ATOM      9  C   UNL     1       2.718   8.409  18.001  0.00  0.00    +0.000 A 
ATOM     10  C   UNL     1       3.753   8.025  17.164  0.00  0.00    +0.000 A 
ATOM     11  C   UNL     1       4.202   6.712  17.217  0.00  0.00    +0.000 A 
ATOM     12  C   UNL     1       3.687   5.822  18.167  0.00  0.00    +0.000 A 
ATOM     13  N   UNL     1       3.945   4.480  18.207  0.00  0.00    +0.000 N 
ATOM     14  C   UNL     1       5.222   3.915  17.832  0.00  0.00    +0.000 C 
ATOM     15  C   UNL     1       3.042   3.924  19.214  0.00  0.00    +0.000 C 
ENDROOT
BRANCH   9  16
ATOM     16  O   UNL     1       2.160   9.710  17.990  0.00  0.00    +0.000 OA
BRANCH  16  17
ATOM     17  C   UNL     1       0.905   9.865  18.567  0.00  0.00    +0.000 C 
ATOM     18  O   UNL     1       0.667   9.654  19.752  0.00  0.00    +0.000 OA
ATOM     19  N   UNL     1      -0.031  10.254  17.626  0.00  0.00    +0.000 N 
ATOM     20  H   UNL     1       0.253  10.179  16.661  0.00  0.00    +0.000 HD
BRANCH  19  21
ATOM     21  C   UNL     1      -1.379  10.541  17.936  0.00  0.00    +0.000 A 
ATOM     22  C   UNL     1      -2.429   9.821  17.353  0.00  0.00    +0.000 A 
ATOM     23  C   UNL     1      -3.757  10.197  17.546  0.00  0.00    +0.000 A 
ATOM     24  C   UNL     1      -4.045  11.283  18.355  0.00  0.00    +0.000 A 
ATOM     25 BR   UNL     1      -5.837  11.854  18.532  0.00  0.00    +0.000 Br
ATOM     26  C   UNL     1      -3.019  11.962  19.013  0.00  0.00    +0.000 A 
ATOM     27  C   UNL     1      -1.683  11.580  18.819  0.00  0.00    +0.000 A 
ENDBRANCH  19  21
ENDBRANCH  16  17
ENDBRANCH   9  16
TORSDOF 3
ENDMDL
MODEL 4
REMARK VINA RESULT:      -7.8      4.138      8.766
REMARK  Name = 
REMARK  6 active torsions:
REMARK  status: ('A' for Active; 'I' for Inactive)
REMARK    1  A    between atoms: C_1  and  N_2
REMARK    2  A    between atoms: C_5  and  C_6
REMARK    3  A    between atoms: C_9  and  O_10
REMARK    4  A    between atoms: O_10  and  C_11
REMARK    5  A    between atoms: N_13  and  C_14
REMARK    6  A    between atoms: N_24  and  C_25
REMARK                            x       y       z     vdW  Elec       q    Type
REMARK                         _______ _______ _______ _____ _____    ______ ____
ROOT
ATOM      1  C   UNL     1       4.413   2.199  20.161  0.00  0.00    +0.000 C 
ATOM      2  N   UNL     1       3.723   2.931  19.105  0.00  0.00    +0.000 NA
ATOM      3  C   UNL     1       4.343   2.683  17.846  0.00  0.00    +0.000 C 
ATOM      4  C   UNL     1       4.264   3.997  17.138  0.00  0.00    +0.000 C 
ATOM      5  C   UNL     1       3.339   5.147  17.782  0.00  0.00    +0.000 C 
ATOM      6  C   UNL     1       4.048   6.098  16.686  0.00  0.00    +0.000 C 
ATOM      7  C   UNL     1       2.867   6.434  18.609  0.00  0.00    +0.000 A 
ATOM      8  C   UNL     1       2.719   7.797  18.226  0.00  0.00    +0.000 A 
ATOM      9  C   UNL     1       1.979   8.709  18.989  0.00  0.00    +0.000 A 
ATOM     10  C   UNL     1       1.350   8.294  20.152  0.00  0.00    +0.000 A 
ATOM     11  C   UNL     1       1.580   7.003  20.610  0.00  0.00    +0.000 A 
ATOM     12  C   UNL     1       2.351   6.109  19.859  0.00  0.00    +0.000 A 
ATOM     13  N   UNL     1       2.763   4.876  20.286  0.00  0.00    +0.000 N 
ATOM     14  C   UNL     1       1.959   4.035  21.145  0.00  0.00    +0.000 C 
ATOM     15  C   UNL     1       3.707   4.394  19.278  0.00  0.00    +0.000 C 
ENDROOT
BRANCH   9  16
ATOM     16  O   UNL     1       1.845  10.017  18.465  0.00  0.00    +0.000 OA
BRANCH  16  17
ATOM     17  C   UNL     1       0.610  10.637  18.615  0.00  0.00    +0.000 C 
ATOM     18  O   UNL     1       0.410  11.588  19.365  0.00  0.00    +0.000 OA
ATOM     19  N   UNL     1      -0.354  10.021  17.838  0.00  0.00    +0.000 N 
ATOM     20  H   UNL     1      -0.102   9.127  17.445  0.00  0.00    +0.000 HD
BRANCH  19  21
ATOM     21  C   UNL     1      -1.690  10.471  17.748  0.00  0.00    +0.000 A 
ATOM     22  C   UNL     1      -2.482  10.181  16.631  0.00  0.00    +0.000 A 
ATOM     23  C   UNL     1      -3.748  10.744  16.477  0.00  0.00    +0.000 A 
ATOM     24  C   UNL     1      -4.243  11.583  17.461  0.00  0.00    +0.000 A 
ATOM     25 BR   UNL     1      -5.912  12.427  17.202  0.00  0.00    +0.000 Br
ATOM     26  C   UNL     1      -3.504  11.818  18.622  0.00  0.00    +0.000 A 
ATOM     27  C   UNL     1      -2.232  11.247  18.776  0.00  0.00    +0.000 A 
ENDBRANCH  19  21
ENDBRANCH  16  17
ENDBRANCH   9  16
TORSDOF 3
ENDMDL
MODEL 5
REMARK VINA RESULT:      -7.7      3.176      4.391
REMARK  Name = 
REMARK  6 active torsions:
REMARK  status: ('A' for Active; 'I' for Inactive)
REMARK    1  A    between atoms: C_1  and  N_2
REMARK    2  A    between atoms: C_5  and  C_6
REMARK    3  A    between atoms: C_9  and  O_10
REMARK    4  A    between atoms: O_10  and  C_11
REMARK    5  A    between atoms: N_13  and  C_14
REMARK    6  A    between atoms: N_24  and  C_25
REMARK                            x       y       z     vdW  Elec       q    Type
REMARK                         _______ _______ _______ _____ _____    ______ ____
ROOT
ATOM      1  C   UNL     1      -6.002  12.247  19.369  0.00  0.00    +0.000 C 
ATOM      2  N   UNL     1      -4.930  12.307  18.383  0.00  0.00    +0.000 NA
ATOM      3  C   UNL     1      -5.401  11.857  17.115  0.00  0.00    +0.000 C 
ATOM      4  C   UNL     1      -4.239  11.109  16.542  0.00  0.00    +0.000 C 
ATOM      5  C   UNL     1      -2.818  11.240  17.285  0.00  0.00    +0.000 C 
ATOM      6  C   UNL     1      -2.381  10.034  16.302  0.00  0.00    +0.000 C 
ATOM      7  C   UNL     1      -1.562  10.936  18.230  0.00  0.00    +0.000 A 
ATOM      8  C   UNL     1      -0.344  10.240  17.985  0.00  0.00    +0.000 A 
ATOM      9  C   UNL     1       0.769  10.367  18.824  0.00  0.00    +0.000 A 
ATOM     10  C   UNL     1       0.715  11.202  19.929  0.00  0.00    +0.000 A 
ATOM     11  C   UNL     1      -0.496  11.796  20.259  0.00  0.00    +0.000 A 
ATOM     12  C   UNL     1      -1.615  11.634  19.433  0.00  0.00    +0.000 A 
ATOM     13  N   UNL     1      -2.883  12.044  19.739  0.00  0.00    +0.000 N 
ATOM     14  C   UNL     1      -3.157  13.246  20.495  0.00  0.00    +0.000 C 
ATOM     15  C   UNL     1      -3.750  11.485  18.703  0.00  0.00    +0.000 C 
ENDROOT
BRANCH   9  16
ATOM     16  O   UNL     1       1.943   9.680  18.434  0.00  0.00    +0.000 OA
BRANCH  16  17
ATOM     17  C   UNL     1       2.100   8.380  18.899  0.00  0.00    +0.000 C 
ATOM     18  O   UNL     1       1.773   8.013  20.024  0.00  0.00    +0.000 OA
ATOM     19  N   UNL     1       2.696   7.577  17.944  0.00  0.00    +0.000 N 
ATOM     20  H   UNL     1       3.106   8.055  17.156  0.00  0.00    +0.000 HD
BRANCH  19  21
ATOM     21  C   UNL     1       2.929   6.194  18.119  0.00  0.00    +0.000 A 
ATOM     22  C   UNL     1       4.208   5.646  17.962  0.00  0.00    +0.000 A 
ATOM     23  C   UNL     1       4.411   4.268  17.991  0.00  0.00    +0.000 A 
ATOM     24  C   UNL     1       3.334   3.426  18.212  0.00  0.00    +0.000 A 
ATOM     25 BR   UNL     1       3.594   1.557  18.148  0.00  0.00    +0.000 Br
ATOM     26  C   UNL     1       2.066   3.956  18.455  0.00  0.00    +0.000 A 
ATOM     27  C   UNL     1       1.864   5.344  18.427  0.00  0.00    +0.000 A 
ENDBRANCH  19  21
ENDBRANCH  16  17
ENDBRANCH   9  16
TORSDOF 3
ENDMDL
MODEL 6
REMARK VINA RESULT:      -7.6      3.161      4.280
REMARK  Name = 
REMARK  6 active torsions:
REMARK  status: ('A' for Active; 'I' for Inactive)
REMARK    1  A    between atoms: C_1  and  N_2
REMARK    2  A    between atoms: C_5  and  C_6
REMARK    3  A    between atoms: C_9  and  O_10
REMARK    4  A    between atoms: O_10  and  C_11
REMARK    5  A    between atoms: N_13  and  C_14
REMARK    6  A    between atoms: N_24  and  C_25
REMARK                            x       y       z     vdW  Elec       q    Type
REMARK                         _______ _______ _______ _____ _____    ______ ____
ROOT
ATOM      1  C   UNL     1      -5.910  12.359  20.059  0.00  0.00    +0.000 C 
ATOM      2  N   UNL     1      -4.973  12.349  18.942  0.00  0.00    +0.000 NA
ATOM      3  C   UNL     1      -5.591  11.791  17.785  0.00  0.00    +0.000 C 
ATOM      4  C   UNL     1      -4.496  11.012  17.130  0.00  0.00    +0.000 C 
ATOM      5  C   UNL     1      -2.994  11.218  17.672  0.00  0.00    +0.000 C 
ATOM      6  C   UNL     1      -2.661   9.941  16.741  0.00  0.00    +0.000 C 
ATOM      7  C   UNL     1      -1.623  11.007  18.471  0.00  0.00    +0.000 A 
ATOM      8  C   UNL     1      -0.432  10.305  18.129  0.00  0.00    +0.000 A 
ATOM      9  C   UNL     1       0.776  10.513  18.806  0.00  0.00    +0.000 A 
ATOM     10  C   UNL     1       0.844  11.435  19.839  0.00  0.00    +0.000 A 
ATOM     11  C   UNL     1      -0.328  12.041  20.271  0.00  0.00    +0.000 A 
ATOM     12  C   UNL     1      -1.538  11.800  19.611  0.00  0.00    +0.000 A 
ATOM     13  N   UNL     1      -2.766  12.220  20.042  0.00  0.00    +0.000 N 
ATOM     14  C   UNL     1      -2.968  13.477  20.729  0.00  0.00    +0.000 C 
ATOM     15  C   UNL     1      -3.745  11.568  19.173  0.00  0.00    +0.000 C 
ENDROOT
BRANCH   9  16
ATOM     16  O   UNL     1       1.905   9.808  18.325  0.00  0.00    +0.000 OA
BRANCH  16  17
ATOM     17  C   UNL     1       2.063   8.496  18.754  0.00  0.00    +0.000 C 
ATOM     18  O   UNL     1       1.737   8.098  19.869  0.00  0.00    +0.000 OA
ATOM     19  N   UNL     1       2.659   7.721  17.777  0.00  0.00    +0.000 N 
ATOM     20  H   UNL     1       3.068   8.221  17.002  0.00  0.00    +0.000 HD
BRANCH  19  21
ATOM     21  C   UNL     1       2.893   6.333  17.914  0.00  0.00    +0.000 A 
ATOM     22  C   UNL     1       1.834   5.422  18.003  0.00  0.00    +0.000 A 
ATOM     23  C   UNL     1       2.062   4.076  18.282  0.00  0.00    +0.000 A 
ATOM     24  C   UNL     1       3.361   3.626  18.445  0.00  0.00    +0.000 A 
ATOM     25 BR   UNL     1       3.661   1.824  18.926  0.00  0.00    +0.000 Br
ATOM     26  C   UNL     1       4.435   4.501  18.277  0.00  0.00    +0.000 A 
ATOM     27  C   UNL     1       4.203   5.855  17.992  0.00  0.00    +0.000 A 
ENDBRANCH  19  21
ENDBRANCH  16  17
ENDBRANCH   9  16
TORSDOF 3
ENDMDL
MODEL 7
REMARK VINA RESULT:      -7.5      3.892      8.543
REMARK  Name = 
REMARK  6 active torsions:
REMARK  status: ('A' for Active; 'I' for Inactive)
REMARK    1  A    between atoms: C_1  and  N_2
REMARK    2  A    between atoms: C_5  and  C_6
REMARK    3  A    between atoms: C_9  and  O_10
REMARK    4  A    between atoms: O_10  and  C_11
REMARK    5  A    between atoms: N_13  and  C_14
REMARK    6  A    between atoms: N_24  and  C_25
REMARK                            x       y       z     vdW  Elec       q    Type
REMARK                         _______ _______ _______ _____ _____    ______ ____
ROOT
ATOM      1  C   UNL     1       3.905   1.694  19.523  0.00  0.00    +0.000 C 
ATOM      2  N   UNL     1       3.732   2.981  20.188  0.00  0.00    +0.000 NA
ATOM      3  C   UNL     1       2.802   2.860  21.261  0.00  0.00    +0.000 C 
ATOM      4  C   UNL     1       2.042   4.148  21.227  0.00  0.00    +0.000 C 
ATOM      5  C   UNL     1       2.600   5.329  20.287  0.00  0.00    +0.000 C 
ATOM      6  C   UNL     1       1.182   6.032  20.613  0.00  0.00    +0.000 C 
ATOM      7  C   UNL     1       2.811   6.309  19.039  0.00  0.00    +0.000 A 
ATOM      8  C   UNL     1       2.223   7.566  18.718  0.00  0.00    +0.000 A 
ATOM      9  C   UNL     1       2.776   8.424  17.761  0.00  0.00    +0.000 A 
ATOM     10  C   UNL     1       3.940   8.070  17.098  0.00  0.00    +0.000 A 
ATOM     11  C   UNL     1       4.464   6.800  17.304  0.00  0.00    +0.000 A 
ATOM     12  C   UNL     1       3.884   5.934  18.237  0.00  0.00    +0.000 A 
ATOM     13  N   UNL     1       4.222   4.619  18.407  0.00  0.00    +0.000 N 
ATOM     14  C   UNL     1       5.574   4.131  18.246  0.00  0.00    +0.000 C 
ATOM     15  C   UNL     1       3.227   4.060  19.321  0.00  0.00    +0.000 C 
ENDROOT
BRANCH   9  16
ATOM     16  O   UNL     1       2.139   9.676  17.583  0.00  0.00    +0.000 OA
BRANCH  16  17
ATOM     17  C   UNL     1       0.937   9.875  18.251  0.00  0.00    +0.000 C 
ATOM     18  O   UNL     1      -0.140   9.426  17.868  0.00  0.00    +0.000 OA
ATOM     19  N   UNL     1       1.115  10.663  19.373  0.00  0.00    +0.000 N 
ATOM     20  H   UNL     1       2.002  11.137  19.446  0.00  0.00    +0.000 HD
BRANCH  19  21
ATOM     21  C   UNL     1       0.076  10.985  20.276  0.00  0.00    +0.000 A 
ATOM     22  C   UNL     1      -0.928  11.899  19.934  0.00  0.00    +0.000 A 
ATOM     23  C   UNL     1      -1.867  12.324  20.872  0.00  0.00    +0.000 A 
ATOM     24  C   UNL     1      -1.825  11.810  22.157  0.00  0.00    +0.000 A 
ATOM     25 BR   UNL     1      -3.032  12.465  23.454  0.00  0.00    +0.000 Br
ATOM     26  C   UNL     1      -0.885  10.836  22.494  0.00  0.00    +0.000 A 
ATOM     27  C   UNL     1       0.057  10.406  21.548  0.00  0.00    +0.000 A 
ENDBRANCH  19  21
ENDBRANCH  16  17
ENDBRANCH   9  16
TORSDOF 3
ENDMDL
MODEL 8
REMARK VINA RESULT:      -7.5      3.922      9.109
REMARK  Name = 
REMARK  6 active torsions:
REMARK  status: ('A' for Active; 'I' for Inactive)
REMARK    1  A    between atoms: C_1  and  N_2
REMARK    2  A    between atoms: C_5  and  C_6
REMARK    3  A    between atoms: C_9  and  O_10
REMARK    4  A    between atoms: O_10  and  C_11
REMARK    5  A    between atoms: N_13  and  C_14
REMARK    6  A    between atoms: N_24  and  C_25
REMARK                            x       y       z     vdW  Elec       q    Type
REMARK                         _______ _______ _______ _____ _____    ______ ____
ROOT
ATOM      1  C   UNL     1       4.570   3.668  16.725  0.00  0.00    +0.000 C 
ATOM      2  N   UNL     1       4.458   4.003  18.140  0.00  0.00    +0.000 NA
ATOM      3  C   UNL     1       4.412   2.816  18.927  0.00  0.00    +0.000 C 
ATOM      4  C   UNL     1       3.447   3.144  20.021  0.00  0.00    +0.000 C 
ATOM      5  C   UNL     1       2.986   4.677  20.185  0.00  0.00    +0.000 C 
ATOM      6  C   UNL     1       1.897   4.065  21.210  0.00  0.00    +0.000 C 
ATOM      7  C   UNL     1       2.138   6.031  20.077  0.00  0.00    +0.000 A 
ATOM      8  C   UNL     1       1.145   6.591  20.930  0.00  0.00    +0.000 A 
ATOM      9  C   UNL     1       0.762   7.935  20.844  0.00  0.00    +0.000 A 
ATOM     10  C   UNL     1       1.362   8.772  19.917  0.00  0.00    +0.000 A 
ATOM     11  C   UNL     1       2.243   8.223  18.994  0.00  0.00    +0.000 A 
ATOM     12  C   UNL     1       2.593   6.870  19.064  0.00  0.00    +0.000 A 
ATOM     13  N   UNL     1       3.324   6.197  18.124  0.00  0.00    +0.000 N 
ATOM     14  C   UNL     1       4.398   6.815  17.378  0.00  0.00    +0.000 C 
ATOM     15  C   UNL     1       3.261   4.784  18.497  0.00  0.00    +0.000 C 
ENDROOT
BRANCH   9  16
ATOM     16  O   UNL     1      -0.183   8.390  21.795  0.00  0.00    +0.000 OA
BRANCH  16  17
ATOM     17  C   UNL     1       0.030   9.647  22.348  0.00  0.00    +0.000 C 
ATOM     18  O   UNL     1       0.793   9.860  23.286  0.00  0.00    +0.000 OA
ATOM     19  N   UNL     1      -0.750  10.604  21.725  0.00  0.00    +0.000 N 
ATOM     20  H   UNL     1      -1.482  10.257  21.125  0.00  0.00    +0.000 HD
BRANCH  19  21
ATOM     21  C   UNL     1      -0.700  11.981  22.042  0.00  0.00    +0.000 A 
ATOM     22  C   UNL     1       0.196  12.844  21.401  0.00  0.00    +0.000 A 
ATOM     23  C   UNL     1       0.346  14.166  21.814  0.00  0.00    +0.000 A 
ATOM     24  C   UNL     1      -0.429  14.645  22.857  0.00  0.00    +0.000 A 
ATOM     25 BR   UNL     1      -0.152  16.405  23.482  0.00  0.00    +0.000 Br
ATOM     26  C   UNL     1      -1.389  13.825  23.454  0.00  0.00    +0.000 A 
ATOM     27  C   UNL     1      -1.539  12.495  23.034  0.00  0.00    +0.000 A 
ENDBRANCH  19  21
ENDBRANCH  16  17
ENDBRANCH   9  16
TORSDOF 3
ENDMDL
MODEL 9
REMARK VINA RESULT:      -7.5      4.192      9.506
REMARK  Name = 
REMARK  6 active torsions:
REMARK  status: ('A' for Active; 'I' for Inactive)
REMARK    1  A    between atoms: C_1  and  N_2
REMARK    2  A    between atoms: C_5  and  C_6
REMARK    3  A    between atoms: C_9  and  O_10
REMARK    4  A    between atoms: O_10  and  C_11
REMARK    5  A    between atoms: N_13  and  C_14
REMARK    6  A    between atoms: N_24  and  C_25
REMARK                            x       y       z     vdW  Elec       q    Type
REMARK                         _______ _______ _______ _____ _____    ______ ____
ROOT
ATOM      1  C   UNL     1       4.354   2.284  19.915  0.00  0.00    +0.000 C 
ATOM      2  N   UNL     1       3.605   3.145  19.007  0.00  0.00    +0.000 NA
ATOM      3  C   UNL     1       4.224   3.167  17.724  0.00  0.00    +0.000 C 
ATOM      4  C   UNL     1       4.050   4.578  17.262  0.00  0.00    +0.000 C 
ATOM      5  C   UNL     1       3.060   5.530  18.101  0.00  0.00    +0.000 C 
ATOM      6  C   UNL     1       3.691   6.707  17.192  0.00  0.00    +0.000 C 
ATOM      7  C   UNL     1       2.515   6.615  19.145  0.00  0.00    +0.000 A 
ATOM      8  C   UNL     1       2.273   8.012  19.011  0.00  0.00    +0.000 A 
ATOM      9  C   UNL     1       1.484   8.721  19.925  0.00  0.00    +0.000 A 
ATOM     10  C   UNL     1       0.898   8.065  20.996  0.00  0.00    +0.000 A 
ATOM     11  C   UNL     1       1.218   6.732  21.216  0.00  0.00    +0.000 A 
ATOM     12  C   UNL     1       2.037   6.039  20.317  0.00  0.00    +0.000 A 
ATOM     13  N   UNL     1       2.534   4.780  20.517  0.00  0.00    +0.000 N 
ATOM     14  C   UNL     1       1.798   3.748  21.212  0.00  0.00    +0.000 C 
ATOM     15  C   UNL     1       3.495   4.549  19.439  0.00  0.00    +0.000 C 
ENDROOT
BRANCH   9  16
ATOM     16  O   UNL     1       1.259  10.090  19.643  0.00  0.00    +0.000 OA
BRANCH  16  17
ATOM     17  C   UNL     1      -0.003  10.597  19.930  0.00  0.00    +0.000 C 
ATOM     18  O   UNL     1      -1.007  10.342  19.271  0.00  0.00    +0.000 OA
ATOM     19  N   UNL     1       0.035  11.438  21.027  0.00  0.00    +0.000 N 
ATOM     20  H   UNL     1       0.952  11.725  21.333  0.00  0.00    +0.000 HD
BRANCH  19  21
ATOM     21  C   UNL     1      -1.111  12.054  21.580  0.00  0.00    +0.000 A 
ATOM     22  C   UNL     1      -1.664  13.206  21.011  0.00  0.00    +0.000 A 
ATOM     23  C   UNL     1      -2.702  13.894  21.638  0.00  0.00    +0.000 A 
ATOM     24  C   UNL     1      -3.216  13.411  22.829  0.00  0.00    +0.000 A 
ATOM     25 BR   UNL     1      -4.550  14.400  23.729  0.00  0.00    +0.000 Br
ATOM     26  C   UNL     1      -2.735  12.217  23.370  0.00  0.00    +0.000 A 
ATOM     27  C   UNL     1      -1.692  11.525  22.736  0.00  0.00    +0.000 A 
ENDBRANCH  19  21
ENDBRANCH  16  17
ENDBRANCH   9  16
TORSDOF 3
ENDMDL
