MODEL 1
REMARK VINA RESULT:      -7.5      0.000      0.000
REMARK  Name = 
REMARK  10 active torsions:
REMARK  status: ('A' for Active; 'I' for Inactive)
REMARK    1  A    between atoms: C_1  and  C_2
REMARK    2  A    between atoms: C_2  and  O_3
REMARK    3  A    between atoms: O_3  and  C_4
REMARK    4  A    between atoms: C_9  and  O_10
REMARK    5  A    between atoms: O_10  and  C_11
REMARK    6  A    between atoms: C_11  and  C_12
REMARK    7  A    between atoms: N_14  and  C_15
REMARK    8  A    between atoms: N_19  and  C_20
REMARK    9  A    between atoms: C_24  and  C_25
REMARK   10  A    between atoms: N_29  and  C_30
REMARK                            x       y       z     vdW  Elec       q    Type
REMARK                         _______ _______ _______ _____ _____    ______ ____
ROOT
ATOM      1  C   UNL     1       5.434   5.050  17.494  0.00  0.00    +0.000 A 
ATOM      2  C   UNL     1       4.819   6.152  16.837  0.00  0.00    +0.000 A 
ATOM      3  C   UNL     1       3.837   6.877  17.485  0.00  0.00    +0.000 A 
ATOM      4  C   UNL     1       3.462   6.482  18.775  0.00  0.00    +0.000 A 
ATOM      5  C   UNL     1       3.994   5.404  19.425  0.00  0.00    +0.000 A 
ATOM      6  C   UNL     1       4.970   4.632  18.778  0.00  0.00    +0.000 A 
ATOM      7  C   UNL     1       2.488   7.407  19.190  0.00  0.00    +0.000 A 
ATOM      8  C   UNL     1       2.253   8.351  18.231  0.00  0.00    +0.000 A 
ATOM      9  C   UNL     1       1.254   9.166  18.793  0.00  0.00    +0.000 A 
ATOM     10  N   UNL     1       0.706  10.234  18.167  0.00  0.00    +0.000 N 
ATOM     11  N   UNL     1       0.935   8.735  20.030  0.00  0.00    +0.000 NA
ATOM     12  N   UNL     1       1.688   7.642  20.237  0.00  0.00    +0.000 N 
ATOM     13  C   UNL     1       1.565   6.883  21.453  0.00  0.00    +0.000 C 
ATOM     14  C   UNL     1       3.078   8.135  17.000  0.00  0.00    +0.000 C 
ATOM     15  H   UNL     1       1.205  10.646  17.391  0.00  0.00    +0.000 HD
ENDROOT
BRANCH  10  16
ATOM     16  C   UNL     1      -0.515  10.886  18.463  0.00  0.00    +0.000 A 
ATOM     17  C   UNL     1      -1.693  10.469  17.831  0.00  0.00    +0.000 A 
ATOM     18  C   UNL     1      -2.909  11.118  18.076  0.00  0.00    +0.000 A 
ATOM     19  C   UNL     1      -2.964  12.203  18.952  0.00  0.00    +0.000 A 
ATOM     20  C   UNL     1      -1.805  12.636  19.595  0.00  0.00    +0.000 A 
ATOM     21  C   UNL     1      -0.598  11.971  19.355  0.00  0.00    +0.000 A 
BRANCH  20  22
ATOM     22  C   UNL     1      -1.843  13.746  20.498  0.00  0.00    +0.000 C 
ATOM     23  N   UNL     1      -1.879  14.650  21.229  0.00  0.00    +0.000 NA
ENDBRANCH  20  22
ENDBRANCH  10  16
BRANCH   1  24
ATOM     24  O   UNL     1       6.486   4.357  16.913  0.00  0.00    +0.000 OA
BRANCH  24  26
ATOM     25  C   UNL     1       6.365   3.933  14.497  0.00  0.00    +0.000 C 
ATOM     26  C   UNL     1       6.854   4.844  15.608  0.00  0.00    +0.000 C 
ENDBRANCH  24  26
ENDBRANCH   1  24
BRANCH   6  27
ATOM     27  O   UNL     1       5.470   3.483  19.381  0.00  0.00    +0.000 OA
BRANCH  27  28
ATOM     28  C   UNL     1       4.442   2.621  19.890  0.00  0.00    +0.000 C 
BRANCH  28  29
ATOM     29  C   UNL     1       3.290   2.182  18.993  0.00  0.00    +0.000 C 
ATOM     30  O   UNL     1       3.494   1.558  17.951  0.00  0.00    +0.000 OA
ATOM     31  N   UNL     1       2.045   2.555  19.424  0.00  0.00    +0.000 N 
ATOM     32  C   UNL     1       0.854   2.187  18.706  0.00  0.00    +0.000 C 
ATOM     33  H   UNL     1       1.982   3.100  20.277  0.00  0.00    +0.000 HD
ENDBRANCH  28  29
ENDBRANCH  27  28
ENDBRANCH   6  27
TORSDOF 7
ENDMDL
MODEL 2
REMARK VINA RESULT:      -7.5      4.758     10.419
REMARK  Name = 
REMARK  10 active torsions:
REMARK  status: ('A' for Active; 'I' for Inactive)
REMARK    1  A    between atoms: C_1  and  C_2
REMARK    2  A    between atoms: C_2  and  O_3
REMARK    3  A    between atoms: O_3  and  C_4
REMARK    4  A    between atoms: C_9  and  O_10
REMARK    5  A    between atoms: O_10  and  C_11
REMARK    6  A    between atoms: C_11  and  C_12
REMARK    7  A    between atoms: N_14  and  C_15
REMARK    8  A    between atoms: N_19  and  C_20
REMARK    9  A    between atoms: C_24  and  C_25
REMARK   10  A    between atoms: N_29  and  C_30
REMARK                            x       y       z     vdW  Elec       q    Type
REMARK                         _______ _______ _______ _____ _____    ______ ____
ROOT
ATOM      1  C   UNL     1      -1.564  12.427  22.762  0.00  0.00    +0.000 A 
ATOM      2  C   UNL     1      -1.301  11.084  23.153  0.00  0.00    +0.000 A 
ATOM      3  C   UNL     1      -0.541  10.268  22.336  0.00  0.00    +0.000 A 
ATOM      4  C   UNL     1      -0.069  10.793  21.127  0.00  0.00    +0.000 A 
ATOM      5  C   UNL     1      -0.336  12.062  20.693  0.00  0.00    +0.000 A 
ATOM      6  C   UNL     1      -1.131  12.900  21.488  0.00  0.00    +0.000 A 
ATOM      7  C   UNL     1       0.689   9.767  20.535  0.00  0.00    +0.000 A 
ATOM      8  C   UNL     1       0.715   8.649  21.317  0.00  0.00    +0.000 A 
ATOM      9  C   UNL     1       1.481   7.732  20.576  0.00  0.00    +0.000 A 
ATOM     10  N   UNL     1       1.753   6.469  20.980  0.00  0.00    +0.000 N 
ATOM     11  N   UNL     1       1.904   8.294  19.425  0.00  0.00    +0.000 NA
ATOM     12  N   UNL     1       1.382   9.531  19.415  0.00  0.00    +0.000 N 
ATOM     13  C   UNL     1       1.588  10.408  18.292  0.00  0.00    +0.000 C 
ATOM     14  C   UNL     1      -0.080   8.812  22.576  0.00  0.00    +0.000 C 
ATOM     15  H   UNL     1       1.652   6.244  21.960  0.00  0.00    +0.000 HD
ENDROOT
BRANCH  10  16
ATOM     16  C   UNL     1       2.184   5.376  20.191  0.00  0.00    +0.000 A 
ATOM     17  C   UNL     1       1.339   4.272  20.017  0.00  0.00    +0.000 A 
ATOM     18  C   UNL     1       1.752   3.160  19.273  0.00  0.00    +0.000 A 
ATOM     19  C   UNL     1       3.024   3.131  18.699  0.00  0.00    +0.000 A 
ATOM     20  C   UNL     1       3.883   4.217  18.857  0.00  0.00    +0.000 A 
ATOM     21  C   UNL     1       3.455   5.329  19.589  0.00  0.00    +0.000 A 
BRANCH  20  22
ATOM     22  C   UNL     1       5.190   4.204  18.274  0.00  0.00    +0.000 C 
ATOM     23  N   UNL     1       6.251   4.190  17.796  0.00  0.00    +0.000 NA
ENDBRANCH  20  22
ENDBRANCH  10  16
BRANCH   1  24
ATOM     24  O   UNL     1      -2.243  13.302  23.598  0.00  0.00    +0.000 OA
BRANCH  24  26
ATOM     25  C   UNL     1      -4.281  12.437  24.663  0.00  0.00    +0.000 C 
ATOM     26  C   UNL     1      -3.677  13.207  23.502  0.00  0.00    +0.000 C 
ENDBRANCH  24  26
ENDBRANCH   1  24
BRANCH   6  27
ATOM     27  O   UNL     1      -1.487  14.166  21.035  0.00  0.00    +0.000 OA
BRANCH  27  28
ATOM     28  C   UNL     1      -0.416  15.118  21.123  0.00  0.00    +0.000 C 
BRANCH  28  29
ATOM     29  C   UNL     1       0.119  15.552  22.484  0.00  0.00    +0.000 C 
ATOM     30  O   UNL     1       1.317  15.464  22.755  0.00  0.00    +0.000 OA
ATOM     31  N   UNL     1      -0.828  16.010  23.360  0.00  0.00    +0.000 N 
ATOM     32  C   UNL     1      -0.476  16.489  24.670  0.00  0.00    +0.000 C 
ATOM     33  H   UNL     1      -1.795  16.009  23.056  0.00  0.00    +0.000 HD
ENDBRANCH  28  29
ENDBRANCH  27  28
ENDBRANCH   6  27
TORSDOF 7
ENDMDL
MODEL 3
REMARK VINA RESULT:      -7.5      4.875     10.304
REMARK  Name = 
REMARK  10 active torsions:
REMARK  status: ('A' for Active; 'I' for Inactive)
REMARK    1  A    between atoms: C_1  and  C_2
REMARK    2  A    between atoms: C_2  and  O_3
REMARK    3  A    between atoms: O_3  and  C_4
REMARK    4  A    between atoms: C_9  and  O_10
REMARK    5  A    between atoms: O_10  and  C_11
REMARK    6  A    between atoms: C_11  and  C_12
REMARK    7  A    between atoms: N_14  and  C_15
REMARK    8  A    between atoms: N_19  and  C_20
REMARK    9  A    between atoms: C_24  and  C_25
REMARK   10  A    between atoms: N_29  and  C_30
REMARK                            x       y       z     vdW  Elec       q    Type
REMARK                         _______ _______ _______ _____ _____    ______ ____
ROOT
ATOM      1  C   UNL     1      -1.713  12.048  22.782  0.00  0.00    +0.000 A 
ATOM      2  C   UNL     1      -1.045  10.854  23.173  0.00  0.00    +0.000 A 
ATOM      3  C   UNL     1      -0.343  10.122  22.234  0.00  0.00    +0.000 A 
ATOM      4  C   UNL     1      -0.332  10.576  20.910  0.00  0.00    +0.000 A 
ATOM      5  C   UNL     1      -0.997  11.692  20.483  0.00  0.00    +0.000 A 
ATOM      6  C   UNL     1      -1.743  12.436  21.408  0.00  0.00    +0.000 A 
ATOM      7  C   UNL     1       0.475   9.669  20.202  0.00  0.00    +0.000 A 
ATOM      8  C   UNL     1       0.967   8.692  21.019  0.00  0.00    +0.000 A 
ATOM      9  C   UNL     1       1.718   7.873  20.158  0.00  0.00    +0.000 A 
ATOM     10  N   UNL     1       2.379   6.760  20.554  0.00  0.00    +0.000 N 
ATOM     11  N   UNL     1       1.689   8.359  18.900  0.00  0.00    +0.000 NA
ATOM     12  N   UNL     1       0.900   9.444  18.952  0.00  0.00    +0.000 N 
ATOM     13  C   UNL     1       0.597  10.193  17.760  0.00  0.00    +0.000 C 
ATOM     14  C   UNL     1       0.501   8.841  22.434  0.00  0.00    +0.000 C 
ATOM     15  H   UNL     1       2.586   6.646  21.537  0.00  0.00    +0.000 HD
ENDROOT
BRANCH  10  16
ATOM     16  C   UNL     1       2.847   5.692  19.752  0.00  0.00    +0.000 A 
ATOM     17  C   UNL     1       2.014   4.593  19.508  0.00  0.00    +0.000 A 
ATOM     18  C   UNL     1       2.462   3.505  18.749  0.00  0.00    +0.000 A 
ATOM     19  C   UNL     1       3.757   3.496  18.228  0.00  0.00    +0.000 A 
ATOM     20  C   UNL     1       4.605   4.578  18.456  0.00  0.00    +0.000 A 
ATOM     21  C   UNL     1       4.143   5.666  19.203  0.00  0.00    +0.000 A 
BRANCH  20  22
ATOM     22  C   UNL     1       5.936   4.585  17.930  0.00  0.00    +0.000 C 
ATOM     23  N   UNL     1       7.020   4.589  17.507  0.00  0.00    +0.000 NA
ENDBRANCH  20  22
ENDBRANCH  10  16
BRANCH   1  24
ATOM     24  O   UNL     1      -2.349  12.858  23.713  0.00  0.00    +0.000 OA
BRANCH  24  26
ATOM     25  C   UNL     1      -2.402  14.967  24.969  0.00  0.00    +0.000 C 
ATOM     26  C   UNL     1      -1.627  14.063  24.028  0.00  0.00    +0.000 C 
ENDBRANCH  24  26
ENDBRANCH   1  24
BRANCH   6  27
ATOM     27  O   UNL     1      -2.495  13.527  20.989  0.00  0.00    +0.000 OA
BRANCH  27  28
ATOM     28  C   UNL     1      -3.809  13.167  20.540  0.00  0.00    +0.000 C 
BRANCH  28  29
ATOM     29  C   UNL     1      -4.943  12.980  21.544  0.00  0.00    +0.000 C 
ATOM     30  O   UNL     1      -5.744  12.053  21.436  0.00  0.00    +0.000 OA
ATOM     31  N   UNL     1      -5.001  13.925  22.533  0.00  0.00    +0.000 N 
ATOM     32  C   UNL     1      -5.991  13.868  23.575  0.00  0.00    +0.000 C 
ATOM     33  H   UNL     1      -4.317  14.674  22.516  0.00  0.00    +0.000 HD
ENDBRANCH  28  29
ENDBRANCH  27  28
ENDBRANCH   6  27
TORSDOF 7
ENDMDL
MODEL 4
REMARK VINA RESULT:      -7.4      4.671     10.216
REMARK  Name = 
REMARK  10 active torsions:
REMARK  status: ('A' for Active; 'I' for Inactive)
REMARK    1  A    between atoms: C_1  and  C_2
REMARK    2  A    between atoms: C_2  and  O_3
REMARK    3  A    between atoms: O_3  and  C_4
REMARK    4  A    between atoms: C_9  and  O_10
REMARK    5  A    between atoms: O_10  and  C_11
REMARK    6  A    between atoms: C_11  and  C_12
REMARK    7  A    between atoms: N_14  and  C_15
REMARK    8  A    between atoms: N_19  and  C_20
REMARK    9  A    between atoms: C_24  and  C_25
REMARK   10  A    between atoms: N_29  and  C_30
REMARK                            x       y       z     vdW  Elec       q    Type
REMARK                         _______ _______ _______ _____ _____    ______ ____
ROOT
ATOM      1  C   UNL     1      -1.286  12.046  22.644  0.00  0.00    +0.000 A 
ATOM      2  C   UNL     1      -0.963  10.681  22.881  0.00  0.00    +0.000 A 
ATOM      3  C   UNL     1      -0.194   9.989  21.964  0.00  0.00    +0.000 A 
ATOM      4  C   UNL     1       0.226  10.659  20.809  0.00  0.00    +0.000 A 
ATOM      5  C   UNL     1      -0.099  11.955  20.520  0.00  0.00    +0.000 A 
ATOM      6  C   UNL     1      -0.904  12.671  21.418  0.00  0.00    +0.000 A 
ATOM      7  C   UNL     1       1.007   9.733  20.094  0.00  0.00    +0.000 A 
ATOM      8  C   UNL     1       1.095   8.539  20.750  0.00  0.00    +0.000 A 
ATOM      9  C   UNL     1       1.876   7.739  19.897  0.00  0.00    +0.000 A 
ATOM     10  N   UNL     1       2.206   6.451  20.156  0.00  0.00    +0.000 N 
ATOM     11  N   UNL     1       2.248   8.437  18.805  0.00  0.00    +0.000 NA
ATOM     12  N   UNL     1       1.680   9.646  18.940  0.00  0.00    +0.000 N 
ATOM     13  C   UNL     1       1.823  10.646  17.914  0.00  0.00    +0.000 C 
ATOM     14  C   UNL     1       0.328   8.534  22.036  0.00  0.00    +0.000 C 
ATOM     15  H   UNL     1       2.138   6.119  21.108  0.00  0.00    +0.000 HD
ENDROOT
BRANCH  10  16
ATOM     16  C   UNL     1       2.657   5.467  19.245  0.00  0.00    +0.000 A 
ATOM     17  C   UNL     1       1.787   4.446  18.842  0.00  0.00    +0.000 A 
ATOM     18  C   UNL     1       2.216   3.437  17.971  0.00  0.00    +0.000 A 
ATOM     19  C   UNL     1       3.528   3.430  17.495  0.00  0.00    +0.000 A 
ATOM     20  C   UNL     1       4.412   4.435  17.881  0.00  0.00    +0.000 A 
ATOM     21  C   UNL     1       3.970   5.446  18.739  0.00  0.00    +0.000 A 
BRANCH  20  22
ATOM     22  C   UNL     1       5.761   4.443  17.402  0.00  0.00    +0.000 C 
ATOM     23  N   UNL     1       6.856   4.451  17.007  0.00  0.00    +0.000 NA
ENDBRANCH  20  22
ENDBRANCH  10  16
BRANCH   1  24
ATOM     24  O   UNL     1      -1.976  12.799  23.584  0.00  0.00    +0.000 OA
BRANCH  24  26
ATOM     25  C   UNL     1      -4.274  12.890  22.722  0.00  0.00    +0.000 C 
ATOM     26  C   UNL     1      -3.334  12.368  23.793  0.00  0.00    +0.000 C 
ENDBRANCH  24  26
ENDBRANCH   1  24
BRANCH   6  27
ATOM     27  O   UNL     1      -1.318  13.962  21.113  0.00  0.00    +0.000 OA
BRANCH  27  28
ATOM     28  C   UNL     1      -1.074  14.325  19.747  0.00  0.00    +0.000 C 
BRANCH  28  29
ATOM     29  C   UNL     1      -0.274  15.580  19.414  0.00  0.00    +0.000 C 
ATOM     30  O   UNL     1       0.780  15.838  19.996  0.00  0.00    +0.000 OA
ATOM     31  N   UNL     1      -0.830  16.385  18.456  0.00  0.00    +0.000 N 
ATOM     32  C   UNL     1      -0.180  17.587  18.007  0.00  0.00    +0.000 C 
ATOM     33  H   UNL     1      -1.722  16.105  18.060  0.00  0.00    +0.000 HD
ENDBRANCH  28  29
ENDBRANCH  27  28
ENDBRANCH   6  27
TORSDOF 7
ENDMDL
MODEL 5
REMARK VINA RESULT:      -7.4      2.373      3.592
REMARK  Name = 
REMARK  10 active torsions:
REMARK  status: ('A' for Active; 'I' for Inactive)
REMARK    1  A    between atoms: C_1  and  C_2
REMARK    2  A    between atoms: C_2  and  O_3
REMARK    3  A    between atoms: O_3  and  C_4
REMARK    4  A    between atoms: C_9  and  O_10
REMARK    5  A    between atoms: O_10  and  C_11
REMARK    6  A    between atoms: C_11  and  C_12
REMARK    7  A    between atoms: N_14  and  C_15
REMARK    8  A    between atoms: N_19  and  C_20
REMARK    9  A    between atoms: C_24  and  C_25
REMARK   10  A    between atoms: N_29  and  C_30
REMARK                            x       y       z     vdW  Elec       q    Type
REMARK                         _______ _______ _______ _____ _____    ______ ____
ROOT
ATOM      1  C   UNL     1       2.738   7.037  18.354  0.00  0.00    +0.000 A 
ATOM      2  C   UNL     1       2.098   8.187  17.815  0.00  0.00    +0.000 A 
ATOM      3  C   UNL     1       1.365   9.017  18.643  0.00  0.00    +0.000 A 
ATOM      4  C   UNL     1       1.259   8.678  19.997  0.00  0.00    +0.000 A 
ATOM      5  C   UNL     1       1.820   7.559  20.548  0.00  0.00    +0.000 A 
ATOM      6  C   UNL     1       2.543   6.684  19.724  0.00  0.00    +0.000 A 
ATOM      7  C   UNL     1       0.500   9.703  20.589  0.00  0.00    +0.000 A 
ATOM      8  C   UNL     1       0.143  10.653  19.676  0.00  0.00    +0.000 A 
ATOM      9  C   UNL     1      -0.617  11.573  20.420  0.00  0.00    +0.000 A 
ATOM     10  N   UNL     1      -1.189  12.683  19.897  0.00  0.00    +0.000 N 
ATOM     11  N   UNL     1      -0.684  11.192  21.712  0.00  0.00    +0.000 NA
ATOM     12  N   UNL     1      -0.013  10.031  21.781  0.00  0.00    +0.000 N 
ATOM     13  C   UNL     1       0.074   9.303  23.020  0.00  0.00    +0.000 C 
ATOM     14  C   UNL     1       0.640  10.339  18.298  0.00  0.00    +0.000 C 
ATOM     15  H   UNL     1      -0.844  13.032  19.014  0.00  0.00    +0.000 HD
ENDROOT
BRANCH  10  16
ATOM     16  C   UNL     1      -2.241  13.459  20.439  0.00  0.00    +0.000 A 
ATOM     17  C   UNL     1      -2.013  14.802  20.766  0.00  0.00    +0.000 A 
ATOM     18  C   UNL     1      -3.022  15.585  21.338  0.00  0.00    +0.000 A 
ATOM     19  C   UNL     1      -4.277  15.033  21.601  0.00  0.00    +0.000 A 
ATOM     20  C   UNL     1      -4.529  13.699  21.285  0.00  0.00    +0.000 A 
ATOM     21  C   UNL     1      -3.518  12.930  20.700  0.00  0.00    +0.000 A 
BRANCH  20  22
ATOM     22  C   UNL     1      -5.810  13.116  21.549  0.00  0.00    +0.000 C 
ATOM     23  N   UNL     1      -6.850  12.640  21.757  0.00  0.00    +0.000 NA
ENDBRANCH  20  22
ENDBRANCH  10  16
BRANCH   1  24
ATOM     24  O   UNL     1       3.558   6.234  17.574  0.00  0.00    +0.000 OA
BRANCH  24  26
ATOM     25  C   UNL     1       5.405   6.128  15.959  0.00  0.00    +0.000 C 
ATOM     26  C   UNL     1       4.726   6.908  17.071  0.00  0.00    +0.000 C 
ENDBRANCH  24  26
ENDBRANCH   1  24
BRANCH   6  27
ATOM     27  O   UNL     1       3.055   5.499  20.238  0.00  0.00    +0.000 OA
BRANCH  27  28
ATOM     28  C   UNL     1       2.133   4.811  21.096  0.00  0.00    +0.000 C 
BRANCH  28  29
ATOM     29  C   UNL     1       1.544   3.468  20.676  0.00  0.00    +0.000 C 
ATOM     30  O   UNL     1       1.397   2.554  21.488  0.00  0.00    +0.000 OA
ATOM     31  N   UNL     1       1.226   3.365  19.349  0.00  0.00    +0.000 N 
ATOM     32  C   UNL     1       0.629   2.174  18.805  0.00  0.00    +0.000 C 
ATOM     33  H   UNL     1       1.419   4.161  18.751  0.00  0.00    +0.000 HD
ENDBRANCH  28  29
ENDBRANCH  27  28
ENDBRANCH   6  27
TORSDOF 7
ENDMDL
MODEL 6
REMARK VINA RESULT:      -7.4      1.447      1.899
REMARK  Name = 
REMARK  10 active torsions:
REMARK  status: ('A' for Active; 'I' for Inactive)
REMARK    1  A    between atoms: C_1  and  C_2
REMARK    2  A    between atoms: C_2  and  O_3
REMARK    3  A    between atoms: O_3  and  C_4
REMARK    4  A    between atoms: C_9  and  O_10
REMARK    5  A    between atoms: O_10  and  C_11
REMARK    6  A    between atoms: C_11  and  C_12
REMARK    7  A    between atoms: N_14  and  C_15
REMARK    8  A    between atoms: N_19  and  C_20
REMARK    9  A    between atoms: C_24  and  C_25
REMARK   10  A    between atoms: N_29  and  C_30
REMARK                            x       y       z     vdW  Elec       q    Type
REMARK                         _______ _______ _______ _____ _____    ______ ____
ROOT
ATOM      1  C   UNL     1       5.301   5.386  17.292  0.00  0.00    +0.000 A 
ATOM      2  C   UNL     1       4.723   6.574  16.763  0.00  0.00    +0.000 A 
ATOM      3  C   UNL     1       3.746   7.240  17.479  0.00  0.00    +0.000 A 
ATOM      4  C   UNL     1       3.338   6.701  18.705  0.00  0.00    +0.000 A 
ATOM      5  C   UNL     1       3.834   5.540  19.229  0.00  0.00    +0.000 A 
ATOM      6  C   UNL     1       4.805   4.828  18.508  0.00  0.00    +0.000 A 
ATOM      7  C   UNL     1       2.378   7.594  19.213  0.00  0.00    +0.000 A 
ATOM      8  C   UNL     1       2.182   8.651  18.372  0.00  0.00    +0.000 A 
ATOM      9  C   UNL     1       1.191   9.417  19.012  0.00  0.00    +0.000 A 
ATOM     10  N   UNL     1       0.678  10.565  18.512  0.00  0.00    +0.000 N 
ATOM     11  N   UNL     1       0.839   8.848  20.184  0.00  0.00    +0.000 NA
ATOM     12  N   UNL     1       1.563   7.720  20.268  0.00  0.00    +0.000 N 
ATOM     13  C   UNL     1       1.401   6.823  21.382  0.00  0.00    +0.000 C 
ATOM     14  C   UNL     1       3.024   8.565  17.138  0.00  0.00    +0.000 C 
ATOM     15  H   UNL     1       1.201  11.056  17.799  0.00  0.00    +0.000 HD
ENDROOT
BRANCH  10  16
ATOM     16  C   UNL     1      -0.533  11.206  18.866  0.00  0.00    +0.000 A 
ATOM     17  C   UNL     1      -0.592  11.979  20.033  0.00  0.00    +0.000 A 
ATOM     18  C   UNL     1      -1.785  12.595  20.428  0.00  0.00    +0.000 A 
ATOM     19  C   UNL     1      -2.944  12.439  19.666  0.00  0.00    +0.000 A 
ATOM     20  C   UNL     1      -2.911  11.676  18.500  0.00  0.00    +0.000 A 
ATOM     21  C   UNL     1      -1.710  11.077  18.105  0.00  0.00    +0.000 A 
BRANCH  20  22
ATOM     22  C   UNL     1      -4.089  11.506  17.705  0.00  0.00    +0.000 C 
ATOM     23  N   UNL     1      -5.045  11.373  17.056  0.00  0.00    +0.000 NA
ENDBRANCH  20  22
ENDBRANCH  10  16
BRANCH   1  24
ATOM     24  O   UNL     1       6.349   4.744  16.648  0.00  0.00    +0.000 OA
BRANCH  24  26
ATOM     25  C   UNL     1       5.916   4.298  14.271  0.00  0.00    +0.000 C 
ATOM     26  C   UNL     1       5.926   3.756  15.689  0.00  0.00    +0.000 C 
ENDBRANCH  24  26
ENDBRANCH   1  24
BRANCH   6  27
ATOM     27  O   UNL     1       5.267   3.604  18.976  0.00  0.00    +0.000 OA
BRANCH  27  28
ATOM     28  C   UNL     1       4.229   2.624  19.114  0.00  0.00    +0.000 C 
BRANCH  28  29
ATOM     29  C   UNL     1       3.537   2.419  20.459  0.00  0.00    +0.000 C 
ATOM     30  O   UNL     1       4.151   1.980  21.431  0.00  0.00    +0.000 OA
ATOM     31  N   UNL     1       2.205   2.734  20.479  0.00  0.00    +0.000 N 
ATOM     32  C   UNL     1       1.421   2.628  21.680  0.00  0.00    +0.000 C 
ATOM     33  H   UNL     1       1.780   3.053  19.615  0.00  0.00    +0.000 HD
ENDBRANCH  28  29
ENDBRANCH  27  28
ENDBRANCH   6  27
TORSDOF 7
ENDMDL
MODEL 7
REMARK VINA RESULT:      -7.4      2.154      3.425
REMARK  Name = 
REMARK  10 active torsions:
REMARK  status: ('A' for Active; 'I' for Inactive)
REMARK    1  A    between atoms: C_1  and  C_2
REMARK    2  A    between atoms: C_2  and  O_3
REMARK    3  A    between atoms: O_3  and  C_4
REMARK    4  A    between atoms: C_9  and  O_10
REMARK    5  A    between atoms: O_10  and  C_11
REMARK    6  A    between atoms: C_11  and  C_12
REMARK    7  A    between atoms: N_14  and  C_15
REMARK    8  A    between atoms: N_19  and  C_20
REMARK    9  A    between atoms: C_24  and  C_25
REMARK   10  A    between atoms: N_29  and  C_30
REMARK                            x       y       z     vdW  Elec       q    Type
REMARK                         _______ _______ _______ _____ _____    ______ ____
ROOT
ATOM      1  C   UNL     1       2.753   6.747  18.519  0.00  0.00    +0.000 A 
ATOM      2  C   UNL     1       2.330   7.976  17.940  0.00  0.00    +0.000 A 
ATOM      3  C   UNL     1       1.664   8.906  18.715  0.00  0.00    +0.000 A 
ATOM      4  C   UNL     1       1.407   8.592  20.055  0.00  0.00    +0.000 A 
ATOM      5  C   UNL     1       1.755   7.406  20.639  0.00  0.00    +0.000 A 
ATOM      6  C   UNL     1       2.405   6.432  19.867  0.00  0.00    +0.000 A 
ATOM      7  C   UNL     1       0.761   9.719  20.594  0.00  0.00    +0.000 A 
ATOM      8  C   UNL     1       0.617  10.707  19.663  0.00  0.00    +0.000 A 
ATOM      9  C   UNL     1      -0.057  11.730  20.353  0.00  0.00    +0.000 A 
ATOM     10  N   UNL     1      -0.420  12.910  19.796  0.00  0.00    +0.000 N 
ATOM     11  N   UNL     1      -0.277  11.369  21.633  0.00  0.00    +0.000 NA
ATOM     12  N   UNL     1       0.211  10.123  21.745  0.00  0.00    +0.000 N 
ATOM     13  C   UNL     1       0.096   9.396  22.982  0.00  0.00    +0.000 C 
ATOM     14  C   UNL     1       1.167  10.318  18.325  0.00  0.00    +0.000 C 
ATOM     15  H   UNL     1       0.040  13.202  18.944  0.00  0.00    +0.000 HD
ENDROOT
BRANCH  10  16
ATOM     16  C   UNL     1      -1.386  13.833  20.261  0.00  0.00    +0.000 A 
ATOM     17  C   UNL     1      -0.999  15.143  20.570  0.00  0.00    +0.000 A 
ATOM     18  C   UNL     1      -1.924  16.068  21.068  0.00  0.00    +0.000 A 
ATOM     19  C   UNL     1      -3.253  15.693  21.273  0.00  0.00    +0.000 A 
ATOM     20  C   UNL     1      -3.663  14.396  20.972  0.00  0.00    +0.000 A 
ATOM     21  C   UNL     1      -2.734  13.484  20.461  0.00  0.00    +0.000 A 
BRANCH  20  22
ATOM     22  C   UNL     1      -5.022  13.994  21.176  0.00  0.00    +0.000 C 
ATOM     23  N   UNL     1      -6.128  13.674  21.343  0.00  0.00    +0.000 NA
ENDBRANCH  20  22
ENDBRANCH  10  16
BRANCH   1  24
ATOM     24  O   UNL     1       3.505   5.830  17.798  0.00  0.00    +0.000 OA
BRANCH  24  26
ATOM     25  C   UNL     1       5.203   6.348  16.101  0.00  0.00    +0.000 C 
ATOM     26  C   UNL     1       4.868   6.238  17.578  0.00  0.00    +0.000 C 
ENDBRANCH  24  26
ENDBRANCH   1  24
BRANCH   6  27
ATOM     27  O   UNL     1       2.698   5.187  20.410  0.00  0.00    +0.000 OA
BRANCH  27  28
ATOM     28  C   UNL     1       1.649   4.227  20.219  0.00  0.00    +0.000 C 
BRANCH  28  29
ATOM     29  C   UNL     1       1.844   3.052  19.265  0.00  0.00    +0.000 C 
ATOM     30  O   UNL     1       0.895   2.352  18.912  0.00  0.00    +0.000 OA
ATOM     31  N   UNL     1       3.136   2.838  18.867  0.00  0.00    +0.000 N 
ATOM     32  C   UNL     1       3.478   1.791  17.941  0.00  0.00    +0.000 C 
ATOM     33  H   UNL     1       3.855   3.447  19.241  0.00  0.00    +0.000 HD
ENDBRANCH  28  29
ENDBRANCH  27  28
ENDBRANCH   6  27
TORSDOF 7
ENDMDL
MODEL 8
REMARK VINA RESULT:      -7.3      4.730     10.094
REMARK  Name = 
REMARK  10 active torsions:
REMARK  status: ('A' for Active; 'I' for Inactive)
REMARK    1  A    between atoms: C_1  and  C_2
REMARK    2  A    between atoms: C_2  and  O_3
REMARK    3  A    between atoms: O_3  and  C_4
REMARK    4  A    between atoms: C_9  and  O_10
REMARK    5  A    between atoms: O_10  and  C_11
REMARK    6  A    between atoms: C_11  and  C_12
REMARK    7  A    between atoms: N_14  and  C_15
REMARK    8  A    between atoms: N_19  and  C_20
REMARK    9  A    between atoms: C_24  and  C_25
REMARK   10  A    between atoms: N_29  and  C_30
REMARK                            x       y       z     vdW  Elec       q    Type
REMARK                         _______ _______ _______ _____ _____    ______ ____
ROOT
ATOM      1  C   UNL     1      -1.122  12.555  22.367  0.00  0.00    +0.000 A 
ATOM      2  C   UNL     1      -0.921  11.242  22.879  0.00  0.00    +0.000 A 
ATOM      3  C   UNL     1      -0.251  10.304  22.117  0.00  0.00    +0.000 A 
ATOM      4  C   UNL     1       0.191  10.677  20.842  0.00  0.00    +0.000 A 
ATOM      5  C   UNL     1      -0.020  11.911  20.294  0.00  0.00    +0.000 A 
ATOM      6  C   UNL     1      -0.724  12.872  21.033  0.00  0.00    +0.000 A 
ATOM      7  C   UNL     1       0.857   9.551  20.325  0.00  0.00    +0.000 A 
ATOM      8  C   UNL     1       0.855   8.515  21.214  0.00  0.00    +0.000 A 
ATOM      9  C   UNL     1       1.528   7.483  20.537  0.00  0.00    +0.000 A 
ATOM     10  N   UNL     1       1.744   6.251  21.054  0.00  0.00    +0.000 N 
ATOM     11  N   UNL     1       1.927   7.901  19.318  0.00  0.00    +0.000 NA
ATOM     12  N   UNL     1       1.480   9.162  19.205  0.00  0.00    +0.000 N 
ATOM     13  C   UNL     1       1.682   9.910  17.992  0.00  0.00    +0.000 C 
ATOM     14  C   UNL     1       0.134   8.851  22.483  0.00  0.00    +0.000 C 
ATOM     15  H   UNL     1       1.677   6.130  22.055  0.00  0.00    +0.000 HD
ENDROOT
BRANCH  10  16
ATOM     16  C   UNL     1       2.070   5.060  20.362  0.00  0.00    +0.000 A 
ATOM     17  C   UNL     1       1.458   3.855  20.731  0.00  0.00    +0.000 A 
ATOM     18  C   UNL     1       1.788   2.655  20.090  0.00  0.00    +0.000 A 
ATOM     19  C   UNL     1       2.744   2.640  19.073  0.00  0.00    +0.000 A 
ATOM     20  C   UNL     1       3.366   3.826  18.687  0.00  0.00    +0.000 A 
ATOM     21  C   UNL     1       3.019   5.022  19.323  0.00  0.00    +0.000 A 
BRANCH  20  22
ATOM     22  C   UNL     1       4.348   3.829  17.646  0.00  0.00    +0.000 C 
ATOM     23  N   UNL     1       5.147   3.837  16.801  0.00  0.00    +0.000 NA
ENDBRANCH  20  22
ENDBRANCH  10  16
BRANCH   1  24
ATOM     24  O   UNL     1      -1.707  13.549  23.139  0.00  0.00    +0.000 OA
BRANCH  24  26
ATOM     25  C   UNL     1      -4.056  13.063  22.613  0.00  0.00    +0.000 C 
ATOM     26  C   UNL     1      -2.988  13.186  23.685  0.00  0.00    +0.000 C 
ENDBRANCH  24  26
ENDBRANCH   1  24
BRANCH   6  27
ATOM     27  O   UNL     1      -1.026  14.107  20.472  0.00  0.00    +0.000 OA
BRANCH  27  28
ATOM     28  C   UNL     1      -0.473  14.280  19.159  0.00  0.00    +0.000 C 
BRANCH  28  29
ATOM     29  C   UNL     1       0.602  15.333  18.908  0.00  0.00    +0.000 C 
ATOM     30  O   UNL     1       0.310  16.519  18.752  0.00  0.00    +0.000 OA
ATOM     31  N   UNL     1       1.882  14.851  18.849  0.00  0.00    +0.000 N 
ATOM     32  C   UNL     1       3.010  15.723  18.654  0.00  0.00    +0.000 C 
ATOM     33  H   UNL     1       2.019  13.851  18.953  0.00  0.00    +0.000 HD
ENDBRANCH  28  29
ENDBRANCH  27  28
ENDBRANCH   6  27
TORSDOF 7
ENDMDL
MODEL 9
REMARK VINA RESULT:      -7.3      2.587      4.488
REMARK  Name = 
REMARK  10 active torsions:
REMARK  status: ('A' for Active; 'I' for Inactive)
REMARK    1  A    between atoms: C_1  and  C_2
REMARK    2  A    between atoms: C_2  and  O_3
REMARK    3  A    between atoms: O_3  and  C_4
REMARK    4  A    between atoms: C_9  and  O_10
REMARK    5  A    between atoms: O_10  and  C_11
REMARK    6  A    between atoms: C_11  and  C_12
REMARK    7  A    between atoms: N_14  and  C_15
REMARK    8  A    between atoms: N_19  and  C_20
REMARK    9  A    between atoms: C_24  and  C_25
REMARK   10  A    between atoms: N_29  and  C_30
REMARK                            x       y       z     vdW  Elec       q    Type
REMARK                         _______ _______ _______ _____ _____    ______ ____
ROOT
ATOM      1  C   UNL     1       3.662   4.809  18.941  0.00  0.00    +0.000 A 
ATOM      2  C   UNL     1       2.865   5.173  20.063  0.00  0.00    +0.000 A 
ATOM      3  C   UNL     1       2.266   6.418  20.105  0.00  0.00    +0.000 A 
ATOM      4  C   UNL     1       2.485   7.296  19.037  0.00  0.00    +0.000 A 
ATOM      5  C   UNL     1       3.278   7.005  17.962  0.00  0.00    +0.000 A 
ATOM      6  C   UNL     1       3.923   5.760  17.910  0.00  0.00    +0.000 A 
ATOM      7  C   UNL     1       1.736   8.449  19.331  0.00  0.00    +0.000 A 
ATOM      8  C   UNL     1       1.064   8.322  20.513  0.00  0.00    +0.000 A 
ATOM      9  C   UNL     1       0.399   9.552  20.661  0.00  0.00    +0.000 A 
ATOM     10  N   UNL     1      -0.385   9.868  21.719  0.00  0.00    +0.000 N 
ATOM     11  N   UNL     1       0.649  10.353  19.606  0.00  0.00    +0.000 NA
ATOM     12  N   UNL     1       1.491   9.662  18.820  0.00  0.00    +0.000 N 
ATOM     13  C   UNL     1       2.018  10.244  17.613  0.00  0.00    +0.000 C 
ATOM     14  C   UNL     1       1.320   7.005  21.178  0.00  0.00    +0.000 C 
ATOM     15  H   UNL     1      -0.745   9.118  22.293  0.00  0.00    +0.000 HD
ENDROOT
BRANCH  10  16
ATOM     16  C   UNL     1      -0.796  11.152  22.146  0.00  0.00    +0.000 A 
ATOM     17  C   UNL     1      -0.002  12.268  21.847  0.00  0.00    +0.000 A 
ATOM     18  C   UNL     1      -0.363  13.547  22.288  0.00  0.00    +0.000 A 
ATOM     19  C   UNL     1      -1.522  13.729  23.045  0.00  0.00    +0.000 A 
ATOM     20  C   UNL     1      -2.328  12.635  23.355  0.00  0.00    +0.000 A 
ATOM     21  C   UNL     1      -1.967  11.364  22.896  0.00  0.00    +0.000 A 
BRANCH  20  22
ATOM     22  C   UNL     1      -3.521  12.804  24.129  0.00  0.00    +0.000 C 
ATOM     23  N   UNL     1      -4.490  12.935  24.759  0.00  0.00    +0.000 NA
ENDBRANCH  20  22
ENDBRANCH  10  16
BRANCH   1  24
ATOM     24  O   UNL     1       4.201   3.536  18.821  0.00  0.00    +0.000 OA
BRANCH  24  26
ATOM     25  C   UNL     1       2.435   2.214  17.743  0.00  0.00    +0.000 C 
ATOM     26  C   UNL     1       3.243   2.477  19.001  0.00  0.00    +0.000 C 
ENDBRANCH  24  26
ENDBRANCH   1  24
BRANCH   6  27
ATOM     27  O   UNL     1       4.800   5.468  16.872  0.00  0.00    +0.000 OA
BRANCH  27  28
ATOM     28  C   UNL     1       5.632   6.578  16.506  0.00  0.00    +0.000 C 
BRANCH  28  29
ATOM     29  C   UNL     1       6.856   6.932  17.345  0.00  0.00    +0.000 C 
ATOM     30  O   UNL     1       7.452   6.075  17.997  0.00  0.00    +0.000 OA
ATOM     31  N   UNL     1       7.205   8.256  17.329  0.00  0.00    +0.000 N 
ATOM     32  C   UNL     1       8.356   8.742  18.042  0.00  0.00    +0.000 C 
ATOM     33  H   UNL     1       6.629   8.893  16.790  0.00  0.00    +0.000 HD
ENDBRANCH  28  29
ENDBRANCH  27  28
ENDBRANCH   6  27
TORSDOF 7
ENDMDL
