MODEL 1
REMARK VINA RESULT:      -7.7      0.000      0.000
REMARK  Name = 
REMARK  3 active torsions:
REMARK  status: ('A' for Active; 'I' for Inactive)
REMARK    1  A    between atoms: C_2  and  C_3
REMARK    2  A    between atoms: N_7  and  C_8
REMARK    3  A    between atoms: C_8  and  C_9
REMARK                            x       y       z     vdW  Elec       q    Type
REMARK                         _______ _______ _______ _____ _____    ______ ____
ROOT
ATOM      1  C   UNL     1       3.225   2.680  18.974  0.00  0.00    +0.000 C 
ATOM      2  C   UNL     1       2.013   1.752  19.107  0.00  0.00    +0.000 C 
ATOM      3  C   UNL     1       0.695   2.513  19.195  0.00  0.00    +0.000 C 
ATOM      4  C   UNL     1       0.743   3.660  20.206  0.00  0.00    +0.000 C 
ATOM      5  N   UNL     1       1.893   4.550  19.988  0.00  0.00    +0.000 NA
ATOM      6  C   UNL     1       3.157   3.796  20.029  0.00  0.00    +0.000 C 
ENDROOT
BRANCH   1   8
ATOM      7  O   UNL     1       2.482   3.147  16.722  0.00  0.00    +0.000 OA
ATOM      8  C   UNL     1       3.374   3.270  17.565  0.00  0.00    +0.000 C 
ATOM      9  N   UNL     1       4.539   3.971  17.266  0.00  0.00    +0.000 N 
ATOM     10  C   UNL     1       4.594   4.652  15.964  0.00  0.00    +0.000 C 
ATOM     11  C   UNL     1       5.994   5.089  15.521  0.00  0.00    +0.000 C 
ATOM     12  C   UNL     1       6.692   5.794  16.652  0.00  0.00    +0.000 A 
ATOM     13  C   UNL     1       7.481   6.928  16.455  0.00  0.00    +0.000 A 
ATOM     14  C   UNL     1       8.093   7.543  17.547  0.00  0.00    +0.000 A 
ATOM     15  C   UNL     1       7.930   7.023  18.831  0.00  0.00    +0.000 A 
ATOM     16  C   UNL     1       7.161   5.877  19.030  0.00  0.00    +0.000 A 
ATOM     17  C   UNL     1       6.539   5.258  17.941  0.00  0.00    +0.000 A 
ATOM     18  C   UNL     1       5.741   3.992  18.102  0.00  0.00    +0.000 C 
ENDBRANCH   1   8
BRANCH   5  19
ATOM     19  C   UNL     1       1.937   5.657  20.959  0.00  0.00    +0.000 C 
BRANCH  19  20
ATOM     20  C   UNL     1       1.746   7.023  20.341  0.00  0.00    +0.000 A 
ATOM     21  C   UNL     1       2.191   7.283  19.041  0.00  0.00    +0.000 A 
ATOM     22  C   UNL     1       2.005   8.552  18.517  0.00  0.00    +0.000 A 
ATOM     23  N   UNL     1       1.410   9.563  19.185  0.00  0.00    +0.000 NA
ATOM     24  C   UNL     1       0.987   9.290  20.438  0.00  0.00    +0.000 A 
ATOM     25  C   UNL     1       1.127   8.055  21.051  0.00  0.00    +0.000 A 
ENDBRANCH  19  20
ENDBRANCH   5  19
TORSDOF 3
ENDMDL
MODEL 2
REMARK VINA RESULT:      -6.9      2.259      6.353
REMARK  Name = 
REMARK  3 active torsions:
REMARK  status: ('A' for Active; 'I' for Inactive)
REMARK    1  A    between atoms: C_2  and  C_3
REMARK    2  A    between atoms: N_7  and  C_8
REMARK    3  A    between atoms: C_8  and  C_9
REMARK                            x       y       z     vdW  Elec       q    Type
REMARK                         _______ _______ _______ _____ _____    ______ ____
ROOT
ATOM      1  C   UNL     1       2.287   6.153  18.416  0.00  0.00    +0.000 C 
ATOM      2  C   UNL     1       1.482   4.921  17.990  0.00  0.00    +0.000 C 
ATOM      3  C   UNL     1       1.907   3.655  18.727  0.00  0.00    +0.000 C 
ATOM      4  C   UNL     1       3.424   3.461  18.738  0.00  0.00    +0.000 C 
ATOM      5  N   UNL     1       4.137   4.656  19.215  0.00  0.00    +0.000 NA
ATOM      6  C   UNL     1       3.791   5.834  18.403  0.00  0.00    +0.000 C 
ENDROOT
BRANCH   1   8
ATOM      7  O   UNL     1       1.865   5.989  20.791  0.00  0.00    +0.000 OA
ATOM      8  C   UNL     1       1.859   6.703  19.784  0.00  0.00    +0.000 C 
ATOM      9  N   UNL     1       1.482   8.040  19.866  0.00  0.00    +0.000 N 
ATOM     10  C   UNL     1       1.221   8.581  21.208  0.00  0.00    +0.000 C 
ATOM     11  C   UNL     1       0.467   9.913  21.233  0.00  0.00    +0.000 C 
ATOM     12  C   UNL     1       1.091  10.874  20.258  0.00  0.00    +0.000 A 
ATOM     13  C   UNL     1       1.260  12.229  20.544  0.00  0.00    +0.000 A 
ATOM     14  C   UNL     1       1.857  13.066  19.602  0.00  0.00    +0.000 A 
ATOM     15  C   UNL     1       2.274  12.557  18.372  0.00  0.00    +0.000 A 
ATOM     16  C   UNL     1       2.088  11.208  18.072  0.00  0.00    +0.000 A 
ATOM     17  C   UNL     1       1.496  10.361  19.014  0.00  0.00    +0.000 A 
ATOM     18  C   UNL     1       1.230   8.910  18.715  0.00  0.00    +0.000 C 
ENDBRANCH   1   8
BRANCH   5  19
ATOM     19  C   UNL     1       5.598   4.469  19.230  0.00  0.00    +0.000 C 
BRANCH  19  20
ATOM     20  C   UNL     1       6.296   4.999  17.999  0.00  0.00    +0.000 A 
ATOM     21  C   UNL     1       6.355   4.234  16.830  0.00  0.00    +0.000 A 
ATOM     22  C   UNL     1       7.014   4.753  15.728  0.00  0.00    +0.000 A 
ATOM     23  N   UNL     1       7.606   5.967  15.707  0.00  0.00    +0.000 NA
ATOM     24  C   UNL     1       7.537   6.690  16.846  0.00  0.00    +0.000 A 
ATOM     25  C   UNL     1       6.903   6.258  18.000  0.00  0.00    +0.000 A 
ENDBRANCH  19  20
ENDBRANCH   5  19
TORSDOF 3
ENDMDL
MODEL 3
REMARK VINA RESULT:      -6.5      8.498     10.955
REMARK  Name = 
REMARK  3 active torsions:
REMARK  status: ('A' for Active; 'I' for Inactive)
REMARK    1  A    between atoms: C_2  and  C_3
REMARK    2  A    between atoms: N_7  and  C_8
REMARK    3  A    between atoms: C_8  and  C_9
REMARK                            x       y       z     vdW  Elec       q    Type
REMARK                         _______ _______ _______ _____ _____    ______ ____
ROOT
ATOM      1  C   UNL     1      -2.329  10.757  18.355  0.00  0.00    +0.000 C 
ATOM      2  C   UNL     1      -1.982  10.044  17.044  0.00  0.00    +0.000 C 
ATOM      3  C   UNL     1      -2.610  10.713  15.825  0.00  0.00    +0.000 C 
ATOM      4  C   UNL     1      -4.096  11.017  16.020  0.00  0.00    +0.000 C 
ATOM      5  N   UNL     1      -4.357  11.756  17.264  0.00  0.00    +0.000 NA
ATOM      6  C   UNL     1      -3.841  11.021  18.431  0.00  0.00    +0.000 C 
ENDROOT
BRANCH   1   8
ATOM      7  O   UNL     1      -1.053  12.665  17.597  0.00  0.00    +0.000 OA
ATOM      8  C   UNL     1      -1.538  12.058  18.555  0.00  0.00    +0.000 C 
ATOM      9  N   UNL     1      -1.400  12.550  19.849  0.00  0.00    +0.000 N 
ATOM     10  C   UNL     1      -0.770  13.870  19.999  0.00  0.00    +0.000 C 
ATOM     11  C   UNL     1      -0.305  14.208  21.419  0.00  0.00    +0.000 C 
ATOM     12  C   UNL     1      -1.400  13.897  22.403  0.00  0.00    +0.000 A 
ATOM     13  C   UNL     1      -1.690  14.725  23.488  0.00  0.00    +0.000 A 
ATOM     14  C   UNL     1      -2.726  14.387  24.359  0.00  0.00    +0.000 A 
ATOM     15  C   UNL     1      -3.464  13.221  24.156  0.00  0.00    +0.000 A 
ATOM     16  C   UNL     1      -3.164  12.379  23.087  0.00  0.00    +0.000 A 
ATOM     17  C   UNL     1      -2.131  12.714  22.205  0.00  0.00    +0.000 A 
ATOM     18  C   UNL     1      -1.740  11.811  21.066  0.00  0.00    +0.000 C 
ENDBRANCH   1   8
BRANCH   5  19
ATOM     19  C   UNL     1      -5.788  12.053  17.450  0.00  0.00    +0.000 C 
BRANCH  19  20
ATOM     20  C   UNL     1      -6.357  11.535  18.751  0.00  0.00    +0.000 A 
ATOM     21  C   UNL     1      -6.768  10.204  18.867  0.00  0.00    +0.000 A 
ATOM     22  C   UNL     1      -7.294   9.773  20.074  0.00  0.00    +0.000 A 
ATOM     23  N   UNL     1      -7.432  10.563  21.161  0.00  0.00    +0.000 NA
ATOM     24  C   UNL     1      -7.028  11.845  21.027  0.00  0.00    +0.000 A 
ATOM     25  C   UNL     1      -6.490  12.371  19.864  0.00  0.00    +0.000 A 
ENDBRANCH  19  20
ENDBRANCH   5  19
TORSDOF 3
ENDMDL
MODEL 4
REMARK VINA RESULT:      -6.5      5.305      9.031
REMARK  Name = 
REMARK  3 active torsions:
REMARK  status: ('A' for Active; 'I' for Inactive)
REMARK    1  A    between atoms: C_2  and  C_3
REMARK    2  A    between atoms: N_7  and  C_8
REMARK    3  A    between atoms: C_8  and  C_9
REMARK                            x       y       z     vdW  Elec       q    Type
REMARK                         _______ _______ _______ _____ _____    ______ ____
ROOT
ATOM      1  C   UNL     1      -1.854  13.061  20.767  0.00  0.00    +0.000 C 
ATOM      2  C   UNL     1      -2.497  14.257  21.476  0.00  0.00    +0.000 C 
ATOM      3  C   UNL     1      -3.968  14.026  21.805  0.00  0.00    +0.000 C 
ATOM      4  C   UNL     1      -4.759  13.480  20.616  0.00  0.00    +0.000 C 
ATOM      5  N   UNL     1      -4.125  12.297  20.018  0.00  0.00    +0.000 NA
ATOM      6  C   UNL     1      -2.743  12.594  19.604  0.00  0.00    +0.000 C 
ENDROOT
BRANCH   1   8
ATOM      7  O   UNL     1      -2.210  11.716  22.744  0.00  0.00    +0.000 OA
ATOM      8  C   UNL     1      -1.547  11.897  21.719  0.00  0.00    +0.000 C 
ATOM      9  N   UNL     1      -0.509  11.032  21.386  0.00  0.00    +0.000 N 
ATOM     10  C   UNL     1      -0.330   9.843  22.232  0.00  0.00    +0.000 C 
ATOM     11  C   UNL     1       1.015   9.128  22.069  0.00  0.00    +0.000 C 
ATOM     12  C   UNL     1       1.319   8.935  20.608  0.00  0.00    +0.000 A 
ATOM     13  C   UNL     1       1.890   7.764  20.109  0.00  0.00    +0.000 A 
ATOM     14  C   UNL     1       2.136   7.642  18.742  0.00  0.00    +0.000 A 
ATOM     15  C   UNL     1       1.825   8.690  17.874  0.00  0.00    +0.000 A 
ATOM     16  C   UNL     1       1.276   9.870  18.371  0.00  0.00    +0.000 A 
ATOM     17  C   UNL     1       1.019   9.998  19.739  0.00  0.00    +0.000 A 
ATOM     18  C   UNL     1       0.473  11.272  20.326  0.00  0.00    +0.000 C 
ENDBRANCH   1   8
BRANCH   5  19
ATOM     19  C   UNL     1      -4.888  11.768  18.874  0.00  0.00    +0.000 C 
BRANCH  19  20
ATOM     20  C   UNL     1      -4.027  11.173  17.784  0.00  0.00    +0.000 A 
ATOM     21  C   UNL     1      -3.018  10.258  18.096  0.00  0.00    +0.000 A 
ATOM     22  C   UNL     1      -2.244   9.745  17.068  0.00  0.00    +0.000 A 
ATOM     23  N   UNL     1      -2.407  10.071  15.768  0.00  0.00    +0.000 NA
ATOM     24  C   UNL     1      -3.388  10.956  15.488  0.00  0.00    +0.000 A 
ATOM     25  C   UNL     1      -4.214  11.525  16.444  0.00  0.00    +0.000 A 
ENDBRANCH  19  20
ENDBRANCH   5  19
TORSDOF 3
ENDMDL
MODEL 5
REMARK VINA RESULT:      -6.4      1.774      5.262
REMARK  Name = 
REMARK  3 active torsions:
REMARK  status: ('A' for Active; 'I' for Inactive)
REMARK    1  A    between atoms: C_2  and  C_3
REMARK    2  A    between atoms: N_7  and  C_8
REMARK    3  A    between atoms: C_8  and  C_9
REMARK                            x       y       z     vdW  Elec       q    Type
REMARK                         _______ _______ _______ _____ _____    ______ ____
ROOT
ATOM      1  C   UNL     1       6.523   5.297  16.814  0.00  0.00    +0.000 C 
ATOM      2  C   UNL     1       7.566   6.416  16.731  0.00  0.00    +0.000 C 
ATOM      3  C   UNL     1       7.144   7.672  17.485  0.00  0.00    +0.000 C 
ATOM      4  C   UNL     1       5.712   8.101  17.162  0.00  0.00    +0.000 C 
ATOM      5  N   UNL     1       4.750   7.000  17.320  0.00  0.00    +0.000 NA
ATOM      6  C   UNL     1       5.127   5.848  16.484  0.00  0.00    +0.000 C 
ENDROOT
BRANCH   1   8
ATOM      7  O   UNL     1       7.477   4.675  18.947  0.00  0.00    +0.000 OA
ATOM      8  C   UNL     1       6.520   4.583  18.173  0.00  0.00    +0.000 C 
ATOM      9  N   UNL     1       5.395   3.842  18.523  0.00  0.00    +0.000 N 
ATOM     10  C   UNL     1       5.353   3.293  19.887  0.00  0.00    +0.000 C 
ATOM     11  C   UNL     1       4.304   2.199  20.112  0.00  0.00    +0.000 C 
ATOM     12  C   UNL     1       2.980   2.636  19.548  0.00  0.00    +0.000 A 
ATOM     13  C   UNL     1       1.770   2.389  20.198  0.00  0.00    +0.000 A 
ATOM     14  C   UNL     1       0.576   2.830  19.629  0.00  0.00    +0.000 A 
ATOM     15  C   UNL     1       0.585   3.507  18.409  0.00  0.00    +0.000 A 
ATOM     16  C   UNL     1       1.788   3.738  17.745  0.00  0.00    +0.000 A 
ATOM     17  C   UNL     1       2.991   3.304  18.312  0.00  0.00    +0.000 A 
ATOM     18  C   UNL     1       4.308   3.488  17.608  0.00  0.00    +0.000 C 
ENDBRANCH   1   8
BRANCH   5  19
ATOM     19  C   UNL     1       3.370   7.413  17.012  0.00  0.00    +0.000 C 
BRANCH  19  20
ATOM     20  C   UNL     1       2.580   7.860  18.220  0.00  0.00    +0.000 A 
ATOM     21  C   UNL     1       2.522   7.063  19.366  0.00  0.00    +0.000 A 
ATOM     22  C   UNL     1       1.778   7.505  20.447  0.00  0.00    +0.000 A 
ATOM     23  N   UNL     1       1.101   8.674  20.469  0.00  0.00    +0.000 NA
ATOM     24  C   UNL     1       1.171   9.430  19.351  0.00  0.00    +0.000 A 
ATOM     25  C   UNL     1       1.887   9.074  18.219  0.00  0.00    +0.000 A 
ENDBRANCH  19  20
ENDBRANCH   5  19
TORSDOF 3
ENDMDL
MODEL 6
REMARK VINA RESULT:      -6.4      6.187      9.956
REMARK  Name = 
REMARK  3 active torsions:
REMARK  status: ('A' for Active; 'I' for Inactive)
REMARK    1  A    between atoms: C_2  and  C_3
REMARK    2  A    between atoms: N_7  and  C_8
REMARK    3  A    between atoms: C_8  and  C_9
REMARK                            x       y       z     vdW  Elec       q    Type
REMARK                         _______ _______ _______ _____ _____    ______ ____
ROOT
ATOM      1  C   UNL     1      -1.563  13.110  20.634  0.00  0.00    +0.000 C 
ATOM      2  C   UNL     1      -0.936  14.416  21.133  0.00  0.00    +0.000 C 
ATOM      3  C   UNL     1      -1.748  15.071  22.245  0.00  0.00    +0.000 C 
ATOM      4  C   UNL     1      -3.239  15.156  21.915  0.00  0.00    +0.000 C 
ATOM      5  N   UNL     1      -3.795  13.859  21.503  0.00  0.00    +0.000 NA
ATOM      6  C   UNL     1      -3.059  13.314  20.350  0.00  0.00    +0.000 C 
ENDROOT
BRANCH   1   8
ATOM      7  O   UNL     1      -2.049  11.797  22.605  0.00  0.00    +0.000 OA
ATOM      8  C   UNL     1      -1.347  11.936  21.599  0.00  0.00    +0.000 C 
ATOM      9  N   UNL     1      -0.348  11.015  21.300  0.00  0.00    +0.000 N 
ATOM     10  C   UNL     1      -0.259   9.822  22.156  0.00  0.00    +0.000 C 
ATOM     11  C   UNL     1       1.049   9.035  22.036  0.00  0.00    +0.000 C 
ATOM     12  C   UNL     1       1.384   8.818  20.586  0.00  0.00    +0.000 A 
ATOM     13  C   UNL     1       1.905   7.614  20.108  0.00  0.00    +0.000 A 
ATOM     14  C   UNL     1       2.184   7.471  18.750  0.00  0.00    +0.000 A 
ATOM     15  C   UNL     1       1.956   8.529  17.869  0.00  0.00    +0.000 A 
ATOM     16  C   UNL     1       1.457   9.741  18.344  0.00  0.00    +0.000 A 
ATOM     17  C   UNL     1       1.168   9.890  19.704  0.00  0.00    +0.000 A 
ATOM     18  C   UNL     1       0.675  11.195  20.268  0.00  0.00    +0.000 C 
ENDBRANCH   1   8
BRANCH   5  19
ATOM     19  C   UNL     1      -5.232  13.940  21.188  0.00  0.00    +0.000 C 
BRANCH  19  20
ATOM     20  C   UNL     1      -6.104  13.092  22.085  0.00  0.00    +0.000 A 
ATOM     21  C   UNL     1      -7.134  12.314  21.546  0.00  0.00    +0.000 A 
ATOM     22  C   UNL     1      -7.917  11.560  22.405  0.00  0.00    +0.000 A 
ATOM     23  N   UNL     1      -7.744  11.521  23.744  0.00  0.00    +0.000 NA
ATOM     24  C   UNL     1      -6.743  12.279  24.244  0.00  0.00    +0.000 A 
ATOM     25  C   UNL     1      -5.907  13.067  23.469  0.00  0.00    +0.000 A 
ENDBRANCH  19  20
ENDBRANCH   5  19
TORSDOF 3
ENDMDL
MODEL 7
REMARK VINA RESULT:      -6.4      1.777      5.316
REMARK  Name = 
REMARK  3 active torsions:
REMARK  status: ('A' for Active; 'I' for Inactive)
REMARK    1  A    between atoms: C_2  and  C_3
REMARK    2  A    between atoms: N_7  and  C_8
REMARK    3  A    between atoms: C_8  and  C_9
REMARK                            x       y       z     vdW  Elec       q    Type
REMARK                         _______ _______ _______ _____ _____    ______ ____
ROOT
ATOM      1  C   UNL     1       6.198   5.106  16.776  0.00  0.00    +0.000 C 
ATOM      2  C   UNL     1       7.342   6.095  16.524  0.00  0.00    +0.000 C 
ATOM      3  C   UNL     1       7.150   7.418  17.259  0.00  0.00    +0.000 C 
ATOM      4  C   UNL     1       5.746   7.995  17.076  0.00  0.00    +0.000 C 
ATOM      5  N   UNL     1       4.693   7.018  17.393  0.00  0.00    +0.000 NA
ATOM      6  C   UNL     1       4.842   5.802  16.576  0.00  0.00    +0.000 C 
ENDROOT
BRANCH   1   8
ATOM      7  O   UNL     1       7.271   4.574  18.876  0.00  0.00    +0.000 OA
ATOM      8  C   UNL     1       6.274   4.446  18.160  0.00  0.00    +0.000 C 
ATOM      9  N   UNL     1       5.176   3.713  18.599  0.00  0.00    +0.000 N 
ATOM     10  C   UNL     1       5.212   3.217  19.982  0.00  0.00    +0.000 C 
ATOM     11  C   UNL     1       4.186   2.126  20.306  0.00  0.00    +0.000 C 
ATOM     12  C   UNL     1       2.830   2.533  19.799  0.00  0.00    +0.000 A 
ATOM     13  C   UNL     1       1.659   2.303  20.522  0.00  0.00    +0.000 A 
ATOM     14  C   UNL     1       0.432   2.715  20.002  0.00  0.00    +0.000 A 
ATOM     15  C   UNL     1       0.370   3.344  18.758  0.00  0.00    +0.000 A 
ATOM     16  C   UNL     1       1.534   3.556  18.022  0.00  0.00    +0.000 A 
ATOM     17  C   UNL     1       2.769   3.152  18.539  0.00  0.00    +0.000 A 
ATOM     18  C   UNL     1       4.045   3.316  17.758  0.00  0.00    +0.000 C 
ENDBRANCH   1   8
BRANCH   5  19
ATOM     19  C   UNL     1       3.340   7.575  17.220  0.00  0.00    +0.000 C 
BRANCH  19  20
ATOM     20  C   UNL     1       2.564   7.709  18.510  0.00  0.00    +0.000 A 
ATOM     21  C   UNL     1       1.795   8.849  18.761  0.00  0.00    +0.000 A 
ATOM     22  C   UNL     1       1.108   8.937  19.961  0.00  0.00    +0.000 A 
ATOM     23  N   UNL     1       1.127   7.978  20.912  0.00  0.00    +0.000 NA
ATOM     24  C   UNL     1       1.875   6.885  20.649  0.00  0.00    +0.000 A 
ATOM     25  C   UNL     1       2.599   6.704  19.481  0.00  0.00    +0.000 A 
ENDBRANCH  19  20
ENDBRANCH   5  19
TORSDOF 3
ENDMDL
MODEL 8
REMARK VINA RESULT:      -6.2      3.055      5.282
REMARK  Name = 
REMARK  3 active torsions:
REMARK  status: ('A' for Active; 'I' for Inactive)
REMARK    1  A    between atoms: C_2  and  C_3
REMARK    2  A    between atoms: N_7  and  C_8
REMARK    3  A    between atoms: C_8  and  C_9
REMARK                            x       y       z     vdW  Elec       q    Type
REMARK                         _______ _______ _______ _____ _____    ______ ____
ROOT
ATOM      1  C   UNL     1       1.931   8.280  20.710  0.00  0.00    +0.000 C 
ATOM      2  C   UNL     1       1.366   8.792  22.040  0.00  0.00    +0.000 C 
ATOM      3  C   UNL     1      -0.125   9.102  21.967  0.00  0.00    +0.000 C 
ATOM      4  C   UNL     1      -0.493   9.943  20.743  0.00  0.00    +0.000 C 
ATOM      5  N   UNL     1       0.023   9.367  19.493  0.00  0.00    +0.000 NA
ATOM      6  C   UNL     1       1.484   9.194  19.558  0.00  0.00    +0.000 C 
ENDROOT
BRANCH   1   8
ATOM      7  O   UNL     1       0.510   6.330  20.863  0.00  0.00    +0.000 OA
ATOM      8  C   UNL     1       1.554   6.819  20.425  0.00  0.00    +0.000 C 
ATOM      9  N   UNL     1       2.415   6.061  19.637  0.00  0.00    +0.000 N 
ATOM     10  C   UNL     1       1.962   4.715  19.255  0.00  0.00    +0.000 C 
ATOM     11  C   UNL     1       3.060   3.792  18.718  0.00  0.00    +0.000 C 
ATOM     12  C   UNL     1       3.879   4.517  17.686  0.00  0.00    +0.000 A 
ATOM     13  C   UNL     1       4.325   3.902  16.515  0.00  0.00    +0.000 A 
ATOM     14  C   UNL     1       5.072   4.633  15.591  0.00  0.00    +0.000 A 
ATOM     15  C   UNL     1       5.385   5.969  15.838  0.00  0.00    +0.000 A 
ATOM     16  C   UNL     1       4.961   6.582  17.016  0.00  0.00    +0.000 A 
ATOM     17  C   UNL     1       4.206   5.858  17.944  0.00  0.00    +0.000 A 
ATOM     18  C   UNL     1       3.770   6.464  19.251  0.00  0.00    +0.000 C 
ENDBRANCH   1   8
BRANCH   5  19
ATOM     19  C   UNL     1      -0.334  10.174  18.313  0.00  0.00    +0.000 C 
BRANCH  19  20
ATOM     20  C   UNL     1      -1.793  10.565  18.258  0.00  0.00    +0.000 A 
ATOM     21  C   UNL     1      -2.249  11.707  18.923  0.00  0.00    +0.000 A 
ATOM     22  C   UNL     1      -3.596  12.023  18.855  0.00  0.00    +0.000 A 
ATOM     23  N   UNL     1      -4.507  11.295  18.175  0.00  0.00    +0.000 NA
ATOM     24  C   UNL     1      -4.046  10.196  17.539  0.00  0.00    +0.000 A 
ATOM     25  C   UNL     1      -2.719   9.796  17.547  0.00  0.00    +0.000 A 
ENDBRANCH  19  20
ENDBRANCH   5  19
TORSDOF 3
ENDMDL
MODEL 9
REMARK VINA RESULT:      -6.2      8.199      9.845
REMARK  Name = 
REMARK  3 active torsions:
REMARK  status: ('A' for Active; 'I' for Inactive)
REMARK    1  A    between atoms: C_2  and  C_3
REMARK    2  A    between atoms: N_7  and  C_8
REMARK    3  A    between atoms: C_8  and  C_9
REMARK                            x       y       z     vdW  Elec       q    Type
REMARK                         _______ _______ _______ _____ _____    ______ ____
ROOT
ATOM      1  C   UNL     1       6.052  15.528  18.709  0.00  0.00    +0.000 C 
ATOM      2  C   UNL     1       5.434  16.923  18.847  0.00  0.00    +0.000 C 
ATOM      3  C   UNL     1       4.050  16.894  19.487  0.00  0.00    +0.000 C 
ATOM      4  C   UNL     1       3.133  15.841  18.861  0.00  0.00    +0.000 C 
ATOM      5  N   UNL     1       3.759  14.512  18.814  0.00  0.00    +0.000 NA
ATOM      6  C   UNL     1       5.037  14.557  18.084  0.00  0.00    +0.000 C 
ENDROOT
BRANCH   1   8
ATOM      7  O   UNL     1       5.882  14.960  21.053  0.00  0.00    +0.000 OA
ATOM      8  C   UNL     1       6.585  14.976  20.039  0.00  0.00    +0.000 C 
ATOM      9  N   UNL     1       7.881  14.472  20.069  0.00  0.00    +0.000 N 
ATOM     10  C   UNL     1       8.316  13.815  21.311  0.00  0.00    +0.000 C 
ATOM     11  C   UNL     1       9.828  13.610  21.440  0.00  0.00    +0.000 C 
ATOM     12  C   UNL     1      10.375  13.019  20.169  0.00  0.00    +0.000 A 
ATOM     13  C   UNL     1      11.355  12.025  20.165  0.00  0.00    +0.000 A 
ATOM     14  C   UNL     1      11.812  11.510  18.953  0.00  0.00    +0.000 A 
ATOM     15  C   UNL     1      11.303  11.990  17.746  0.00  0.00    +0.000 A 
ATOM     16  C   UNL     1      10.339  12.997  17.744  0.00  0.00    +0.000 A 
ATOM     17  C   UNL     1       9.871  13.515  18.955  0.00  0.00    +0.000 A 
ATOM     18  C   UNL     1       8.868  14.637  19.000  0.00  0.00    +0.000 C 
ENDBRANCH   1   8
BRANCH   5  19
ATOM     19  C   UNL     1       2.875  13.496  18.214  0.00  0.00    +0.000 C 
BRANCH  19  20
ATOM     20  C   UNL     1       1.626  13.220  19.019  0.00  0.00    +0.000 A 
ATOM     21  C   UNL     1       1.716  12.757  20.335  0.00  0.00    +0.000 A 
ATOM     22  C   UNL     1       0.546  12.506  21.032  0.00  0.00    +0.000 A 
ATOM     23  N   UNL     1      -0.690  12.686  20.520  0.00  0.00    +0.000 NA
ATOM     24  C   UNL     1      -0.755  13.134  19.247  0.00  0.00    +0.000 A 
ATOM     25  C   UNL     1       0.356  13.414  18.468  0.00  0.00    +0.000 A 
ENDBRANCH  19  20
ENDBRANCH   5  19
TORSDOF 3
ENDMDL
