MODEL 1
REMARK VINA RESULT:      -8.6      0.000      0.000
REMARK  Name = 
REMARK  9 active torsions:
REMARK  status: ('A' for Active; 'I' for Inactive)
REMARK    1  A    between atoms: C_1  and  C_2
REMARK    2  A    between atoms: C_2  and  C_3
REMARK    3  A    between atoms: C_6  and  C_7
REMARK    4  A    between atoms: C_6  and  C_8
REMARK    5  A    between atoms: C_11  and  C_12
REMARK    6  A    between atoms: C_12  and  O_13
REMARK    7  A    between atoms: C_12  and  C_14
REMARK    8  A    between atoms: C_19  and  C_20
REMARK    9  A    between atoms: C_20  and  O_22
REMARK                            x       y       z     vdW  Elec       q    Type
REMARK                         _______ _______ _______ _____ _____    ______ ____
ROOT
ATOM      1  C   UNL     1       0.681  10.978  19.345  0.00  0.00    +0.000 C 
ENDROOT
BRANCH   1  12
ATOM      2  C   UNL     1      -5.877  10.484  18.720  0.00  0.00    +0.000 C 
ATOM      3  C   UNL     1      -5.096  11.784  18.432  0.00  0.00    +0.000 C 
ATOM      4  C   UNL     1      -5.280  12.151  16.939  0.00  0.00    +0.000 C 
ATOM      5  C   UNL     1      -5.693  12.964  19.235  0.00  0.00    +0.000 C 
ATOM      6  C   UNL     1      -5.261  12.979  20.690  0.00  0.00    +0.000 C 
ATOM      7  C   UNL     1      -3.725  13.026  20.876  0.00  0.00    +0.000 C 
ATOM      8  C   UNL     1      -3.224  14.483  20.764  0.00  0.00    +0.000 C 
ATOM      9  C   UNL     1      -3.456  12.524  22.317  0.00  0.00    +0.000 C 
ATOM     10  C   UNL     1      -2.981  12.154  19.857  0.00  0.00    +0.000 A 
ATOM     11  C   UNL     1      -1.590  11.953  20.018  0.00  0.00    +0.000 A 
ATOM     12  C   UNL     1      -0.825  11.148  19.157  0.00  0.00    +0.000 A 
ATOM     13  C   UNL     1      -1.506  10.448  18.162  0.00  0.00    +0.000 A 
ATOM     14  C   UNL     1      -2.870  10.661  17.957  0.00  0.00    +0.000 A 
ATOM     15  C   UNL     1      -3.619  11.549  18.759  0.00  0.00    +0.000 A 
ENDBRANCH   1  12
BRANCH   1  16
ATOM     16  C   UNL     1       1.151   9.537  19.464  0.00  0.00    +0.000 A 
ATOM     17  C   UNL     1       0.907   8.808  20.634  0.00  0.00    +0.000 A 
ATOM     18  C   UNL     1       1.422   7.515  20.788  0.00  0.00    +0.000 A 
ATOM     19  C   UNL     1       2.198   6.929  19.776  0.00  0.00    +0.000 A 
ATOM     20  C   UNL     1       2.765   5.656  19.942  0.00  0.00    +0.000 A 
ATOM     21  C   UNL     1       3.555   5.091  18.934  0.00  0.00    +0.000 A 
ATOM     22  C   UNL     1       3.792   5.799  17.752  0.00  0.00    +0.000 A 
ATOM     23  C   UNL     1       3.223   7.062  17.574  0.00  0.00    +0.000 A 
ATOM     24  C   UNL     1       2.430   7.641  18.578  0.00  0.00    +0.000 A 
ATOM     25  C   UNL     1       1.890   8.929  18.433  0.00  0.00    +0.000 A 
BRANCH  21  26
ATOM     26  C   UNL     1       4.164   3.763  19.192  0.00  0.00    +0.000 C 
ATOM     27  O   UNL     1       3.504   2.760  19.401  0.00  0.00    +0.000 OA
BRANCH  26  28
ATOM     28  O   UNL     1       5.513   3.759  19.131  0.00  0.00    +0.000 OA
ATOM     29  H   UNL     1       5.891   4.259  18.385  0.00  0.00    +0.000 HD
ENDBRANCH  26  28
ENDBRANCH  21  26
ENDBRANCH   1  16
BRANCH   1  30
ATOM     30  O   UNL     1       1.150  11.647  20.518  0.00  0.00    +0.000 OA
ATOM     31  H   UNL     1       2.113  11.534  20.543  0.00  0.00    +0.000 HD
ENDBRANCH   1  30
TORSDOF 5
ENDMDL
MODEL 2
REMARK VINA RESULT:      -8.5      2.933      9.442
REMARK  Name = 
REMARK  9 active torsions:
REMARK  status: ('A' for Active; 'I' for Inactive)
REMARK    1  A    between atoms: C_1  and  C_2
REMARK    2  A    between atoms: C_2  and  C_3
REMARK    3  A    between atoms: C_6  and  C_7
REMARK    4  A    between atoms: C_6  and  C_8
REMARK    5  A    between atoms: C_11  and  C_12
REMARK    6  A    between atoms: C_12  and  O_13
REMARK    7  A    between atoms: C_12  and  C_14
REMARK    8  A    between atoms: C_19  and  C_20
REMARK    9  A    between atoms: C_20  and  O_22
REMARK                            x       y       z     vdW  Elec       q    Type
REMARK                         _______ _______ _______ _____ _____    ______ ____
ROOT
ATOM      1  C   UNL     1       1.877   8.894  19.557  0.00  0.00    +0.000 C 
ENDROOT
BRANCH   1  12
ATOM      2  C   UNL     1       1.345   2.310  19.649  0.00  0.00    +0.000 C 
ATOM      3  C   UNL     1       2.472   3.077  20.372  0.00  0.00    +0.000 C 
ATOM      4  C   UNL     1       2.355   2.810  21.893  0.00  0.00    +0.000 C 
ATOM      5  C   UNL     1       3.856   2.529  19.952  0.00  0.00    +0.000 C 
ATOM      6  C   UNL     1       4.319   3.043  18.600  0.00  0.00    +0.000 C 
ATOM      7  C   UNL     1       4.391   4.586  18.519  0.00  0.00    +0.000 C 
ATOM      8  C   UNL     1       5.729   5.085  19.111  0.00  0.00    +0.000 C 
ATOM      9  C   UNL     1       4.363   4.935  17.010  0.00  0.00    +0.000 C 
ATOM     10  C   UNL     1       3.228   5.270  19.249  0.00  0.00    +0.000 A 
ATOM     11  C   UNL     1       3.060   6.668  19.107  0.00  0.00    +0.000 A 
ATOM     12  C   UNL     1       2.009   7.381  19.709  0.00  0.00    +0.000 A 
ATOM     13  C   UNL     1       1.047   6.642  20.396  0.00  0.00    +0.000 A 
ATOM     14  C   UNL     1       1.211   5.270  20.585  0.00  0.00    +0.000 A 
ATOM     15  C   UNL     1       2.321   4.569  20.066  0.00  0.00    +0.000 A 
ENDBRANCH   1  12
BRANCH   1  16
ATOM     16  C   UNL     1       0.988   9.564  20.592  0.00  0.00    +0.000 A 
ATOM     17  C   UNL     1       0.999   9.129  21.922  0.00  0.00    +0.000 A 
ATOM     18  C   UNL     1       0.112   9.677  22.858  0.00  0.00    +0.000 A 
ATOM     19  C   UNL     1      -0.807  10.666  22.478  0.00  0.00    +0.000 A 
ATOM     20  C   UNL     1      -1.737  11.182  23.394  0.00  0.00    +0.000 A 
ATOM     21  C   UNL     1      -2.663  12.154  22.999  0.00  0.00    +0.000 A 
ATOM     22  C   UNL     1      -2.674  12.613  21.678  0.00  0.00    +0.000 A 
ATOM     23  C   UNL     1      -1.746  12.112  20.762  0.00  0.00    +0.000 A 
ATOM     24  C   UNL     1      -0.812  11.136  21.146  0.00  0.00    +0.000 A 
ATOM     25  C   UNL     1       0.097  10.590  20.226  0.00  0.00    +0.000 A 
BRANCH  21  26
ATOM     26  C   UNL     1      -3.649  12.623  24.003  0.00  0.00    +0.000 C 
ATOM     27  O   UNL     1      -4.499  11.896  24.487  0.00  0.00    +0.000 OA
BRANCH  26  28
ATOM     28  O   UNL     1      -3.491  13.914  24.363  0.00  0.00    +0.000 OA
ATOM     29  H   UNL     1      -4.066  14.212  25.091  0.00  0.00    +0.000 HD
ENDBRANCH  26  28
ENDBRANCH  21  26
ENDBRANCH   1  16
BRANCH   1  30
ATOM     30  O   UNL     1       1.342   9.256  18.281  0.00  0.00    +0.000 OA
ATOM     31  H   UNL     1       2.095   9.375  17.681  0.00  0.00    +0.000 HD
ENDBRANCH   1  30
TORSDOF 5
ENDMDL
MODEL 3
REMARK VINA RESULT:      -8.5      2.549      9.236
REMARK  Name = 
REMARK  9 active torsions:
REMARK  status: ('A' for Active; 'I' for Inactive)
REMARK    1  A    between atoms: C_1  and  C_2
REMARK    2  A    between atoms: C_2  and  C_3
REMARK    3  A    between atoms: C_6  and  C_7
REMARK    4  A    between atoms: C_6  and  C_8
REMARK    5  A    between atoms: C_11  and  C_12
REMARK    6  A    between atoms: C_12  and  O_13
REMARK    7  A    between atoms: C_12  and  C_14
REMARK    8  A    between atoms: C_19  and  C_20
REMARK    9  A    between atoms: C_20  and  O_22
REMARK                            x       y       z     vdW  Elec       q    Type
REMARK                         _______ _______ _______ _____ _____    ______ ____
ROOT
ATOM      1  C   UNL     1       2.287   8.968  18.744  0.00  0.00    +0.000 C 
ENDROOT
BRANCH   1  12
ATOM      2  C   UNL     1       1.007   2.599  19.940  0.00  0.00    +0.000 C 
ATOM      3  C   UNL     1       2.281   3.313  20.439  0.00  0.00    +0.000 C 
ATOM      4  C   UNL     1       2.282   3.296  21.988  0.00  0.00    +0.000 C 
ATOM      5  C   UNL     1       3.544   2.534  20.006  0.00  0.00    +0.000 C 
ATOM      6  C   UNL     1       3.930   2.773  18.558  0.00  0.00    +0.000 C 
ATOM      7  C   UNL     1       4.172   4.264  18.223  0.00  0.00    +0.000 C 
ATOM      8  C   UNL     1       5.610   4.668  18.620  0.00  0.00    +0.000 C 
ATOM      9  C   UNL     1       4.038   4.382  16.684  0.00  0.00    +0.000 C 
ATOM     10  C   UNL     1       3.173   5.195  18.921  0.00  0.00    +0.000 A 
ATOM     11  C   UNL     1       3.155   6.565  18.568  0.00  0.00    +0.000 A 
ATOM     12  C   UNL     1       2.258   7.491  19.128  0.00  0.00    +0.000 A 
ATOM     13  C   UNL     1       1.288   6.996  19.998  0.00  0.00    +0.000 A 
ATOM     14  C   UNL     1       1.310   5.658  20.393  0.00  0.00    +0.000 A 
ATOM     15  C   UNL     1       2.275   4.749  19.909  0.00  0.00    +0.000 A 
ENDBRANCH   1  12
BRANCH   1  16
ATOM     16  C   UNL     1       0.931   9.653  18.738  0.00  0.00    +0.000 A 
ATOM     17  C   UNL     1       0.498  10.378  19.855  0.00  0.00    +0.000 A 
ATOM     18  C   UNL     1      -0.790  10.928  19.892  0.00  0.00    +0.000 A 
ATOM     19  C   UNL     1      -1.672  10.758  18.814  0.00  0.00    +0.000 A 
ATOM     20  C   UNL     1      -2.982  11.258  18.864  0.00  0.00    +0.000 A 
ATOM     21  C   UNL     1      -3.859  11.064  17.791  0.00  0.00    +0.000 A 
ATOM     22  C   UNL     1      -3.436  10.360  16.659  0.00  0.00    +0.000 A 
ATOM     23  C   UNL     1      -2.131   9.867  16.598  0.00  0.00    +0.000 A 
ATOM     24  C   UNL     1      -1.241  10.054  17.668  0.00  0.00    +0.000 A 
ATOM     25  C   UNL     1       0.060   9.525  17.639  0.00  0.00    +0.000 A 
BRANCH  21  26
ATOM     26  C   UNL     1      -5.246  11.576  17.927  0.00  0.00    +0.000 C 
ATOM     27  O   UNL     1      -6.195  10.858  18.188  0.00  0.00    +0.000 OA
BRANCH  26  28
ATOM     28  O   UNL     1      -5.351  12.913  17.778  0.00  0.00    +0.000 OA
ATOM     29  H   UNL     1      -5.234  13.236  16.867  0.00  0.00    +0.000 HD
ENDBRANCH  26  28
ENDBRANCH  21  26
ENDBRANCH   1  16
BRANCH   1  30
ATOM     30  O   UNL     1       2.839   9.169  17.440  0.00  0.00    +0.000 OA
ATOM     31  H   UNL     1       2.433   9.973  17.081  0.00  0.00    +0.000 HD
ENDBRANCH   1  30
TORSDOF 5
ENDMDL
MODEL 4
REMARK VINA RESULT:      -8.3      2.964      9.445
REMARK  Name = 
REMARK  9 active torsions:
REMARK  status: ('A' for Active; 'I' for Inactive)
REMARK    1  A    between atoms: C_1  and  C_2
REMARK    2  A    between atoms: C_2  and  C_3
REMARK    3  A    between atoms: C_6  and  C_7
REMARK    4  A    between atoms: C_6  and  C_8
REMARK    5  A    between atoms: C_11  and  C_12
REMARK    6  A    between atoms: C_12  and  O_13
REMARK    7  A    between atoms: C_12  and  C_14
REMARK    8  A    between atoms: C_19  and  C_20
REMARK    9  A    between atoms: C_20  and  O_22
REMARK                            x       y       z     vdW  Elec       q    Type
REMARK                         _______ _______ _______ _____ _____    ______ ____
ROOT
ATOM      1  C   UNL     1       2.355   8.630  18.671  0.00  0.00    +0.000 C 
ENDROOT
BRANCH   1  12
ATOM      2  C   UNL     1       1.320   2.171  19.596  0.00  0.00    +0.000 C 
ATOM      3  C   UNL     1       2.557   2.916  20.141  0.00  0.00    +0.000 C 
ATOM      4  C   UNL     1       2.540   2.837  21.688  0.00  0.00    +0.000 C 
ATOM      5  C   UNL     1       3.857   2.206  19.696  0.00  0.00    +0.000 C 
ATOM      6  C   UNL     1       4.250   2.518  18.263  0.00  0.00    +0.000 C 
ATOM      7  C   UNL     1       4.436   4.030  17.992  0.00  0.00    +0.000 C 
ATOM      8  C   UNL     1       5.851   4.475  18.424  0.00  0.00    +0.000 C 
ATOM      9  C   UNL     1       4.316   4.204  16.456  0.00  0.00    +0.000 C 
ATOM     10  C   UNL     1       3.391   4.891  18.712  0.00  0.00    +0.000 A 
ATOM     11  C   UNL     1       3.322   6.273  18.413  0.00  0.00    +0.000 A 
ATOM     12  C   UNL     1       2.381   7.139  18.996  0.00  0.00    +0.000 A 
ATOM     13  C   UNL     1       1.421   6.571  19.832  0.00  0.00    +0.000 A 
ATOM     14  C   UNL     1       1.492   5.220  20.174  0.00  0.00    +0.000 A 
ATOM     15  C   UNL     1       2.500   4.371  19.668  0.00  0.00    +0.000 A 
ENDBRANCH   1  12
BRANCH   1  16
ATOM     16  C   UNL     1       1.208   9.401  19.302  0.00  0.00    +0.000 A 
ATOM     17  C   UNL     1       0.439  10.283  18.533  0.00  0.00    +0.000 A 
ATOM     18  C   UNL     1      -0.554  11.068  19.131  0.00  0.00    +0.000 A 
ATOM     19  C   UNL     1      -0.794  10.992  20.511  0.00  0.00    +0.000 A 
ATOM     20  C   UNL     1      -1.749  11.814  21.128  0.00  0.00    +0.000 A 
ATOM     21  C   UNL     1      -1.965  11.743  22.509  0.00  0.00    +0.000 A 
ATOM     22  C   UNL     1      -1.218  10.854  23.289  0.00  0.00    +0.000 A 
ATOM     23  C   UNL     1      -0.273  10.025  22.681  0.00  0.00    +0.000 A 
ATOM     24  C   UNL     1      -0.046  10.087  21.296  0.00  0.00    +0.000 A 
ATOM     25  C   UNL     1       0.933   9.293  20.679  0.00  0.00    +0.000 A 
BRANCH  21  26
ATOM     26  C   UNL     1      -2.955  12.673  23.106  0.00  0.00    +0.000 C 
ATOM     27  O   UNL     1      -2.967  13.869  22.871  0.00  0.00    +0.000 OA
BRANCH  26  28
ATOM     28  O   UNL     1      -3.865  12.068  23.897  0.00  0.00    +0.000 OA
ATOM     29  H   UNL     1      -4.231  11.237  23.542  0.00  0.00    +0.000 HD
ENDBRANCH  26  28
ENDBRANCH  21  26
ENDBRANCH   1  16
BRANCH   1  30
ATOM     30  O   UNL     1       2.266   8.867  17.264  0.00  0.00    +0.000 OA
ATOM     31  H   UNL     1       1.387   9.243  17.095  0.00  0.00    +0.000 HD
ENDBRANCH   1  30
TORSDOF 5
ENDMDL
MODEL 5
REMARK VINA RESULT:      -8.3      1.614      2.574
REMARK  Name = 
REMARK  9 active torsions:
REMARK  status: ('A' for Active; 'I' for Inactive)
REMARK    1  A    between atoms: C_1  and  C_2
REMARK    2  A    between atoms: C_2  and  C_3
REMARK    3  A    between atoms: C_6  and  C_7
REMARK    4  A    between atoms: C_6  and  C_8
REMARK    5  A    between atoms: C_11  and  C_12
REMARK    6  A    between atoms: C_12  and  O_13
REMARK    7  A    between atoms: C_12  and  C_14
REMARK    8  A    between atoms: C_19  and  C_20
REMARK    9  A    between atoms: C_20  and  O_22
REMARK                            x       y       z     vdW  Elec       q    Type
REMARK                         _______ _______ _______ _____ _____    ______ ____
ROOT
ATOM      1  C   UNL     1      -0.560  12.452  20.854  0.00  0.00    +0.000 C 
ENDROOT
BRANCH   1  12
ATOM      2  C   UNL     1      -7.095  11.496  20.699  0.00  0.00    +0.000 C 
ATOM      3  C   UNL     1      -6.448  12.886  20.874  0.00  0.00    +0.000 C 
ATOM      4  C   UNL     1      -6.848  13.773  19.669  0.00  0.00    +0.000 C 
ATOM      5  C   UNL     1      -7.014  13.594  22.127  0.00  0.00    +0.000 C 
ATOM      6  C   UNL     1      -6.399  13.101  23.424  0.00  0.00    +0.000 C 
ATOM      7  C   UNL     1      -4.859  13.247  23.469  0.00  0.00    +0.000 C 
ATOM      8  C   UNL     1      -4.476  14.683  23.893  0.00  0.00    +0.000 C 
ATOM      9  C   UNL     1      -4.371  12.267  24.566  0.00  0.00    +0.000 C 
ATOM     10  C   UNL     1      -4.196  12.920  22.126  0.00  0.00    +0.000 A 
ATOM     11  C   UNL     1      -2.785  12.832  22.065  0.00  0.00    +0.000 A 
ATOM     12  C   UNL     1      -2.085  12.509  20.890  0.00  0.00    +0.000 A 
ATOM     13  C   UNL     1      -2.841  12.171  19.768  0.00  0.00    +0.000 A 
ATOM     14  C   UNL     1      -4.231  12.289  19.791  0.00  0.00    +0.000 A 
ATOM     15  C   UNL     1      -4.928  12.713  20.942  0.00  0.00    +0.000 A 
ENDBRANCH   1  12
BRANCH   1  16
ATOM     16  C   UNL     1       0.022  11.068  20.618  0.00  0.00    +0.000 A 
ATOM     17  C   UNL     1       0.034  10.119  21.648  0.00  0.00    +0.000 A 
ATOM     18  C   UNL     1       0.656   8.878  21.466  0.00  0.00    +0.000 A 
ATOM     19  C   UNL     1       1.285   8.564  20.252  0.00  0.00    +0.000 A 
ATOM     20  C   UNL     1       1.958   7.345  20.078  0.00  0.00    +0.000 A 
ATOM     21  C   UNL     1       2.600   7.052  18.869  0.00  0.00    +0.000 A 
ATOM     22  C   UNL     1       2.581   7.981  17.824  0.00  0.00    +0.000 A 
ATOM     23  C   UNL     1       1.904   9.192  17.985  0.00  0.00    +0.000 A 
ATOM     24  C   UNL     1       1.258   9.499  19.194  0.00  0.00    +0.000 A 
ATOM     25  C   UNL     1       0.612  10.731  19.386  0.00  0.00    +0.000 A 
BRANCH  21  26
ATOM     26  C   UNL     1       3.335   5.767  18.767  0.00  0.00    +0.000 C 
ATOM     27  O   UNL     1       3.227   5.016  17.813  0.00  0.00    +0.000 OA
BRANCH  26  28
ATOM     28  O   UNL     1       4.164   5.528  19.805  0.00  0.00    +0.000 OA
ATOM     29  H   UNL     1       4.480   4.609  19.876  0.00  0.00    +0.000 HD
ENDBRANCH  26  28
ENDBRANCH  21  26
ENDBRANCH   1  16
BRANCH   1  30
ATOM     30  O   UNL     1       0.019  12.923  22.074  0.00  0.00    +0.000 OA
ATOM     31  H   UNL     1      -0.440  12.469  22.799  0.00  0.00    +0.000 HD
ENDBRANCH   1  30
TORSDOF 5
ENDMDL
MODEL 6
REMARK VINA RESULT:      -8.3      0.917      1.174
REMARK  Name = 
REMARK  9 active torsions:
REMARK  status: ('A' for Active; 'I' for Inactive)
REMARK    1  A    between atoms: C_1  and  C_2
REMARK    2  A    between atoms: C_2  and  C_3
REMARK    3  A    between atoms: C_6  and  C_7
REMARK    4  A    between atoms: C_6  and  C_8
REMARK    5  A    between atoms: C_11  and  C_12
REMARK    6  A    between atoms: C_12  and  O_13
REMARK    7  A    between atoms: C_12  and  C_14
REMARK    8  A    between atoms: C_19  and  C_20
REMARK    9  A    between atoms: C_20  and  O_22
REMARK                            x       y       z     vdW  Elec       q    Type
REMARK                         _______ _______ _______ _____ _____    ______ ____
ROOT
ATOM      1  C   UNL     1      -0.035  11.754  18.825  0.00  0.00    +0.000 C 
ENDROOT
BRANCH   1  12
ATOM      2  C   UNL     1      -6.568  10.775  18.839  0.00  0.00    +0.000 C 
ATOM      3  C   UNL     1      -5.921  12.160  18.627  0.00  0.00    +0.000 C 
ATOM      4  C   UNL     1      -6.301  12.672  17.215  0.00  0.00    +0.000 C 
ATOM      5  C   UNL     1      -6.506  13.190  19.621  0.00  0.00    +0.000 C 
ATOM      6  C   UNL     1      -5.913  13.082  21.014  0.00  0.00    +0.000 C 
ATOM      7  C   UNL     1      -4.374  13.239  21.042  0.00  0.00    +0.000 C 
ATOM      8  C   UNL     1      -3.995  14.737  21.052  0.00  0.00    +0.000 C 
ATOM      9  C   UNL     1      -3.906  12.608  22.378  0.00  0.00    +0.000 C 
ATOM     10  C   UNL     1      -3.690  12.551  19.855  0.00  0.00    +0.000 A 
ATOM     11  C   UNL     1      -2.278  12.453  19.844  0.00  0.00    +0.000 A 
ATOM     12  C   UNL     1      -1.560  11.814  18.818  0.00  0.00    +0.000 A 
ATOM     13  C   UNL     1      -2.298  11.173  17.824  0.00  0.00    +0.000 A 
ATOM     14  C   UNL     1      -3.688  11.289  17.791  0.00  0.00    +0.000 A 
ATOM     15  C   UNL     1      -4.403  12.017  18.766  0.00  0.00    +0.000 A 
ENDBRANCH   1  12
BRANCH   1  16
ATOM     16  C   UNL     1       0.548  10.380  19.112  0.00  0.00    +0.000 A 
ATOM     17  C   UNL     1       0.349   9.772  20.357  0.00  0.00    +0.000 A 
ATOM     18  C   UNL     1       0.966   8.552  20.660  0.00  0.00    +0.000 A 
ATOM     19  C   UNL     1       1.799   7.919  19.726  0.00  0.00    +0.000 A 
ATOM     20  C   UNL     1       2.465   6.724  20.039  0.00  0.00    +0.000 A 
ATOM     21  C   UNL     1       3.310   6.113  19.106  0.00  0.00    +0.000 A 
ATOM     22  C   UNL     1       3.504   6.697  17.851  0.00  0.00    +0.000 A 
ATOM     23  C   UNL     1       2.838   7.881  17.526  0.00  0.00    +0.000 A 
ATOM     24  C   UNL     1       1.988   8.505  18.455  0.00  0.00    +0.000 A 
ATOM     25  C   UNL     1       1.347   9.719  18.160  0.00  0.00    +0.000 A 
BRANCH  21  26
ATOM     26  C   UNL     1       4.021   4.877  19.518  0.00  0.00    +0.000 C 
ATOM     27  O   UNL     1       5.207   4.694  19.308  0.00  0.00    +0.000 OA
BRANCH  26  28
ATOM     28  O   UNL     1       3.245   3.996  20.184  0.00  0.00    +0.000 OA
ATOM     29  H   UNL     1       2.847   3.299  19.631  0.00  0.00    +0.000 HD
ENDBRANCH  26  28
ENDBRANCH  21  26
ENDBRANCH   1  16
BRANCH   1  30
ATOM     30  O   UNL     1       0.529  12.635  19.800  0.00  0.00    +0.000 OA
ATOM     31  H   UNL     1       1.097  12.097  20.374  0.00  0.00    +0.000 HD
ENDBRANCH   1  30
TORSDOF 5
ENDMDL
MODEL 7
REMARK VINA RESULT:      -8.2      0.717      1.448
REMARK  Name = 
REMARK  9 active torsions:
REMARK  status: ('A' for Active; 'I' for Inactive)
REMARK    1  A    between atoms: C_1  and  C_2
REMARK    2  A    between atoms: C_2  and  C_3
REMARK    3  A    between atoms: C_6  and  C_7
REMARK    4  A    between atoms: C_6  and  C_8
REMARK    5  A    between atoms: C_11  and  C_12
REMARK    6  A    between atoms: C_12  and  O_13
REMARK    7  A    between atoms: C_12  and  C_14
REMARK    8  A    between atoms: C_19  and  C_20
REMARK    9  A    between atoms: C_20  and  O_22
REMARK                            x       y       z     vdW  Elec       q    Type
REMARK                         _______ _______ _______ _____ _____    ______ ____
ROOT
ATOM      1  C   UNL     1       0.777  11.065  19.743  0.00  0.00    +0.000 C 
ENDROOT
BRANCH   1  12
ATOM      2  C   UNL     1      -5.699  10.387  18.629  0.00  0.00    +0.000 C 
ATOM      3  C   UNL     1      -4.928  11.698  18.363  0.00  0.00    +0.000 C 
ATOM      4  C   UNL     1      -5.003  12.018  16.850  0.00  0.00    +0.000 C 
ATOM      5  C   UNL     1      -5.613  12.884  19.081  0.00  0.00    +0.000 C 
ATOM      6  C   UNL     1      -5.295  12.951  20.564  0.00  0.00    +0.000 C 
ATOM      7  C   UNL     1      -3.781  13.042  20.867  0.00  0.00    +0.000 C 
ATOM      8  C   UNL     1      -3.306  14.508  20.751  0.00  0.00    +0.000 C 
ATOM      9  C   UNL     1      -3.613  12.589  22.339  0.00  0.00    +0.000 C 
ATOM     10  C   UNL     1      -2.940  12.161  19.936  0.00  0.00    +0.000 A 
ATOM     11  C   UNL     1      -1.561  12.001  20.210  0.00  0.00    +0.000 A 
ATOM     12  C   UNL     1      -0.712  11.191  19.435  0.00  0.00    +0.000 A 
ATOM     13  C   UNL     1      -1.298  10.447  18.411  0.00  0.00    +0.000 A 
ATOM     14  C   UNL     1      -2.646  10.618  18.096  0.00  0.00    +0.000 A 
ATOM     15  C   UNL     1      -3.476  11.509  18.810  0.00  0.00    +0.000 A 
ENDBRANCH   1  12
BRANCH   1  16
ATOM     16  C   UNL     1       1.405   9.743  19.331  0.00  0.00    +0.000 A 
ATOM     17  C   UNL     1       1.952   9.588  18.052  0.00  0.00    +0.000 A 
ATOM     18  C   UNL     1       2.443   8.344  17.634  0.00  0.00    +0.000 A 
ATOM     19  C   UNL     1       2.389   7.231  18.485  0.00  0.00    +0.000 A 
ATOM     20  C   UNL     1       2.828   5.968  18.056  0.00  0.00    +0.000 A 
ATOM     21  C   UNL     1       2.750   4.860  18.907  0.00  0.00    +0.000 A 
ATOM     22  C   UNL     1       2.223   5.003  20.195  0.00  0.00    +0.000 A 
ATOM     23  C   UNL     1       1.794   6.257  20.633  0.00  0.00    +0.000 A 
ATOM     24  C   UNL     1       1.865   7.377  19.788  0.00  0.00    +0.000 A 
ATOM     25  C   UNL     1       1.396   8.635  20.199  0.00  0.00    +0.000 A 
BRANCH  21  26
ATOM     26  C   UNL     1       3.185   3.545  18.376  0.00  0.00    +0.000 C 
ATOM     27  O   UNL     1       2.403   2.700  17.975  0.00  0.00    +0.000 OA
BRANCH  26  28
ATOM     28  O   UNL     1       4.525   3.387  18.338  0.00  0.00    +0.000 OA
ATOM     29  H   UNL     1       5.006   4.074  17.842  0.00  0.00    +0.000 HD
ENDBRANCH  26  28
ENDBRANCH  21  26
ENDBRANCH   1  16
BRANCH   1  30
ATOM     30  O   UNL     1       1.046  11.213  21.139  0.00  0.00    +0.000 OA
ATOM     31  H   UNL     1       1.609  10.467  21.401  0.00  0.00    +0.000 HD
ENDBRANCH   1  30
TORSDOF 5
ENDMDL
MODEL 8
REMARK VINA RESULT:      -8.2      1.225      2.996
REMARK  Name = 
REMARK  9 active torsions:
REMARK  status: ('A' for Active; 'I' for Inactive)
REMARK    1  A    between atoms: C_1  and  C_2
REMARK    2  A    between atoms: C_2  and  C_3
REMARK    3  A    between atoms: C_6  and  C_7
REMARK    4  A    between atoms: C_6  and  C_8
REMARK    5  A    between atoms: C_11  and  C_12
REMARK    6  A    between atoms: C_12  and  O_13
REMARK    7  A    between atoms: C_12  and  C_14
REMARK    8  A    between atoms: C_19  and  C_20
REMARK    9  A    between atoms: C_20  and  O_22
REMARK                            x       y       z     vdW  Elec       q    Type
REMARK                         _______ _______ _______ _____ _____    ______ ____
ROOT
ATOM      1  C   UNL     1       0.156  11.977  20.545  0.00  0.00    +0.000 C 
ENDROOT
BRANCH   1  12
ATOM      2  C   UNL     1      -6.007  13.767  18.976  0.00  0.00    +0.000 C 
ATOM      3  C   UNL     1      -5.618  12.326  19.366  0.00  0.00    +0.000 C 
ATOM      4  C   UNL     1      -6.377  11.942  20.661  0.00  0.00    +0.000 C 
ATOM      5  C   UNL     1      -6.093  11.326  18.286  0.00  0.00    +0.000 C 
ATOM      6  C   UNL     1      -5.187  11.283  17.069  0.00  0.00    +0.000 C 
ATOM      7  C   UNL     1      -3.719  10.932  17.406  0.00  0.00    +0.000 C 
ATOM      8  C   UNL     1      -3.554   9.400  17.520  0.00  0.00    +0.000 C 
ATOM      9  C   UNL     1      -2.876  11.427  16.204  0.00  0.00    +0.000 C 
ATOM     10  C   UNL     1      -3.238  11.592  18.705  0.00  0.00    +0.000 A 
ATOM     11  C   UNL     1      -1.867  11.512  19.044  0.00  0.00    +0.000 A 
ATOM     12  C   UNL     1      -1.324  12.109  20.195  0.00  0.00    +0.000 A 
ATOM     13  C   UNL     1      -2.177  12.891  20.973  0.00  0.00    +0.000 A 
ATOM     14  C   UNL     1      -3.541  12.952  20.682  0.00  0.00    +0.000 A 
ATOM     15  C   UNL     1      -4.104  12.269  19.584  0.00  0.00    +0.000 A 
ENDBRANCH   1  12
BRANCH   1  16
ATOM     16  C   UNL     1       0.858  10.787  19.910  0.00  0.00    +0.000 A 
ATOM     17  C   UNL     1       1.343  10.868  18.599  0.00  0.00    +0.000 A 
ATOM     18  C   UNL     1       1.902   9.745  17.977  0.00  0.00    +0.000 A 
ATOM     19  C   UNL     1       1.981   8.517  18.652  0.00  0.00    +0.000 A 
ATOM     20  C   UNL     1       2.489   7.373  18.018  0.00  0.00    +0.000 A 
ATOM     21  C   UNL     1       2.543   6.149  18.694  0.00  0.00    +0.000 A 
ATOM     22  C   UNL     1       2.081   6.056  20.011  0.00  0.00    +0.000 A 
ATOM     23  C   UNL     1       1.583   7.193  20.652  0.00  0.00    +0.000 A 
ATOM     24  C   UNL     1       1.522   8.427  19.984  0.00  0.00    +0.000 A 
ATOM     25  C   UNL     1       0.982   9.567  20.600  0.00  0.00    +0.000 A 
BRANCH  21  26
ATOM     26  C   UNL     1       3.047   4.967  17.952  0.00  0.00    +0.000 C 
ATOM     27  O   UNL     1       2.409   3.935  17.838  0.00  0.00    +0.000 OA
BRANCH  26  28
ATOM     28  O   UNL     1       4.254   5.156  17.378  0.00  0.00    +0.000 OA
ATOM     29  H   UNL     1       4.239   5.248  16.409  0.00  0.00    +0.000 HD
ENDBRANCH  26  28
ENDBRANCH  21  26
ENDBRANCH   1  16
BRANCH   1  30
ATOM     30  O   UNL     1       0.361  11.853  21.954  0.00  0.00    +0.000 OA
ATOM     31  H   UNL     1      -0.147  11.080  22.248  0.00  0.00    +0.000 HD
ENDBRANCH   1  30
TORSDOF 5
ENDMDL
MODEL 9
REMARK VINA RESULT:      -8.2      1.050      2.663
REMARK  Name = 
REMARK  9 active torsions:
REMARK  status: ('A' for Active; 'I' for Inactive)
REMARK    1  A    between atoms: C_1  and  C_2
REMARK    2  A    between atoms: C_2  and  C_3
REMARK    3  A    between atoms: C_6  and  C_7
REMARK    4  A    between atoms: C_6  and  C_8
REMARK    5  A    between atoms: C_11  and  C_12
REMARK    6  A    between atoms: C_12  and  O_13
REMARK    7  A    between atoms: C_12  and  C_14
REMARK    8  A    between atoms: C_19  and  C_20
REMARK    9  A    between atoms: C_20  and  O_22
REMARK                            x       y       z     vdW  Elec       q    Type
REMARK                         _______ _______ _______ _____ _____    ______ ____
ROOT
ATOM      1  C   UNL     1       0.166  11.824  20.409  0.00  0.00    +0.000 C 
ENDROOT
BRANCH   1  12
ATOM      2  C   UNL     1      -5.970  13.873  19.077  0.00  0.00    +0.000 C 
ATOM      3  C   UNL     1      -5.628  12.414  19.444  0.00  0.00    +0.000 C 
ATOM      4  C   UNL     1      -6.354  12.052  20.763  0.00  0.00    +0.000 C 
ATOM      5  C   UNL     1      -6.182  11.442  18.376  0.00  0.00    +0.000 C 
ATOM      6  C   UNL     1      -5.322  11.372  17.126  0.00  0.00    +0.000 C 
ATOM      7  C   UNL     1      -3.858  10.960  17.408  0.00  0.00    +0.000 C 
ATOM      8  C   UNL     1      -3.752   9.421  17.507  0.00  0.00    +0.000 C 
ATOM      9  C   UNL     1      -3.040  11.429  16.178  0.00  0.00    +0.000 C 
ATOM     10  C   UNL     1      -3.305  11.590  18.692  0.00  0.00    +0.000 A 
ATOM     11  C   UNL     1      -1.926  11.452  18.981  0.00  0.00    +0.000 A 
ATOM     12  C   UNL     1      -1.318  12.018  20.115  0.00  0.00    +0.000 A 
ATOM     13  C   UNL     1      -2.111  12.828  20.928  0.00  0.00    +0.000 A 
ATOM     14  C   UNL     1      -3.480  12.947  20.687  0.00  0.00    +0.000 A 
ATOM     15  C   UNL     1      -4.110  12.295  19.606  0.00  0.00    +0.000 A 
ENDBRANCH   1  12
BRANCH   1  16
ATOM     16  C   UNL     1       0.660  10.391  20.285  0.00  0.00    +0.000 A 
ATOM     17  C   UNL     1       0.534   9.503  21.360  0.00  0.00    +0.000 A 
ATOM     18  C   UNL     1       1.075   8.213  21.285  0.00  0.00    +0.000 A 
ATOM     19  C   UNL     1       1.758   7.790  20.135  0.00  0.00    +0.000 A 
ATOM     20  C   UNL     1       2.350   6.519  20.071  0.00  0.00    +0.000 A 
ATOM     21  C   UNL     1       3.047   6.115  18.926  0.00  0.00    +0.000 A 
ATOM     22  C   UNL     1       3.165   6.983  17.836  0.00  0.00    +0.000 A 
ATOM     23  C   UNL     1       2.569   8.245  17.888  0.00  0.00    +0.000 A 
ATOM     24  C   UNL     1       1.869   8.664  19.031  0.00  0.00    +0.000 A 
ATOM     25  C   UNL     1       1.304   9.946  19.116  0.00  0.00    +0.000 A 
BRANCH  21  26
ATOM     26  C   UNL     1       3.691   4.778  18.941  0.00  0.00    +0.000 C 
ATOM     27  O   UNL     1       4.898   4.625  18.995  0.00  0.00    +0.000 OA
BRANCH  26  28
ATOM     28  O   UNL     1       2.816   3.750  18.934  0.00  0.00    +0.000 OA
ATOM     29  H   UNL     1       3.184   2.895  19.220  0.00  0.00    +0.000 HD
ENDBRANCH  26  28
ENDBRANCH  21  26
ENDBRANCH   1  16
BRANCH   1  30
ATOM     30  O   UNL     1       0.507  12.247  21.732  0.00  0.00    +0.000 OA
ATOM     31  H   UNL     1       0.296  13.192  21.791  0.00  0.00    +0.000 HD
ENDBRANCH   1  30
TORSDOF 5
ENDMDL
