MODEL 1
REMARK VINA RESULT:      -7.8      0.000      0.000
REMARK  Name = 
REMARK  9 active torsions:
REMARK  status: ('A' for Active; 'I' for Inactive)
REMARK    1  A    between atoms: C_2  and  C_3
REMARK    2  A    between atoms: C_2  and  C_17
REMARK    3  A    between atoms: C_6  and  O_7
REMARK    4  A    between atoms: O_7  and  C_8
REMARK    5  A    between atoms: C_8  and  C_9
REMARK    6  A    between atoms: C_9  and  N_10
REMARK    7  A    between atoms: C_18  and  C_19
REMARK    8  A    between atoms: C_22  and  O_23
REMARK    9  A    between atoms: C_29  and  O_30
REMARK                            x       y       z     vdW  Elec       q    Type
REMARK                         _______ _______ _______ _____ _____    ______ ____
ROOT
ATOM      1  C   UNL     1      -0.463  10.178  19.762  0.00  0.00    +0.000 A 
ATOM      2  C   UNL     1      -0.433  11.299  20.434  0.00  0.00    +0.000 A 
ATOM      3  S   UNL     1      -2.024  11.768  20.713  0.00  0.00    +0.000 S 
ATOM      4  C   UNL     1      -2.480  11.236  19.248  0.00  0.00    +0.000 A 
ATOM      5  C   UNL     1      -3.677  11.635  18.686  0.00  0.00    +0.000 A 
ATOM      6  C   UNL     1      -3.771  11.728  17.317  0.00  0.00    +0.000 A 
ATOM      7  C   UNL     1      -2.635  11.387  16.549  0.00  0.00    +0.000 A 
ATOM      8  C   UNL     1      -1.469  10.754  17.169  0.00  0.00    +0.000 A 
ATOM      9  C   UNL     1      -1.397  10.638  18.632  0.00  0.00    +0.000 A 
ENDROOT
BRANCH   2  10
ATOM     10  C   UNL     1       0.619  12.125  19.616  0.00  0.00    +0.000 A 
ATOM     11  C   UNL     1       0.546  13.506  19.572  0.00  0.00    +0.000 A 
ATOM     12  C   UNL     1       1.449  14.242  18.793  0.00  0.00    +0.000 A 
ATOM     13  C   UNL     1       2.448  13.615  18.027  0.00  0.00    +0.000 A 
ATOM     14  C   UNL     1       2.510  12.242  17.977  0.00  0.00    +0.000 A 
ATOM     15  C   UNL     1       1.623  11.508  18.739  0.00  0.00    +0.000 A 
BRANCH  13  16
ATOM     16  O   UNL     1       3.350  14.326  17.330  0.00  0.00    +0.000 OA
ATOM     17  H   UNL     1       4.098  14.741  17.774  0.00  0.00    +0.000 HD
ENDBRANCH  13  16
ENDBRANCH   2  10
BRANCH   1  19
ATOM     18  O   UNL     1       1.049   9.791  21.643  0.00  0.00    +0.000 OA
ATOM     19  C   UNL     1       0.740   9.405  20.529  0.00  0.00    +0.000 C 
BRANCH  19  20
ATOM     20  C   UNL     1       1.669   8.237  19.822  0.00  0.00    +0.000 A 
ATOM     21  C   UNL     1       2.146   8.314  18.443  0.00  0.00    +0.000 A 
ATOM     22  C   UNL     1       2.980   7.366  17.825  0.00  0.00    +0.000 A 
ATOM     23  C   UNL     1       3.454   6.220  18.456  0.00  0.00    +0.000 A 
ATOM     24  C   UNL     1       2.992   6.050  19.795  0.00  0.00    +0.000 A 
ATOM     25  C   UNL     1       2.120   7.004  20.443  0.00  0.00    +0.000 A 
BRANCH  23  26
ATOM     26  O   UNL     1       4.294   5.330  17.822  0.00  0.00    +0.000 OA
BRANCH  26  27
ATOM     27  C   UNL     1       3.871   4.052  17.370  0.00  0.00    +0.000 C 
BRANCH  27  28
ATOM     28  C   UNL     1       2.337   3.769  17.401  0.00  0.00    +0.000 C 
BRANCH  28  29
ATOM     29  N   UNL     1       2.006   2.570  18.239  0.00  0.00    +0.000 NA
ATOM     30  C   UNL     1       0.692   2.539  18.910  0.00  0.00    +0.000 C 
ATOM     31  C   UNL     1       0.910   3.144  20.281  0.00  0.00    +0.000 C 
ATOM     32  C   UNL     1       2.237   2.537  20.672  0.00  0.00    +0.000 C 
ATOM     33  C   UNL     1       2.983   2.390  19.339  0.00  0.00    +0.000 C 
ENDBRANCH  28  29
ENDBRANCH  27  28
ENDBRANCH  26  27
ENDBRANCH  23  26
ENDBRANCH  19  20
ENDBRANCH   1  19
BRANCH   6  34
ATOM     34  O   UNL     1      -4.907  12.235  16.768  0.00  0.00    +0.000 OA
ATOM     35  H   UNL     1      -5.007  12.337  15.800  0.00  0.00    +0.000 HD
ENDBRANCH   6  34
TORSDOF 9
ENDMDL
MODEL 2
REMARK VINA RESULT:      -7.7      0.629      1.155
REMARK  Name = 
REMARK  9 active torsions:
REMARK  status: ('A' for Active; 'I' for Inactive)
REMARK    1  A    between atoms: C_2  and  C_3
REMARK    2  A    between atoms: C_2  and  C_17
REMARK    3  A    between atoms: C_6  and  O_7
REMARK    4  A    between atoms: O_7  and  C_8
REMARK    5  A    between atoms: C_8  and  C_9
REMARK    6  A    between atoms: C_9  and  N_10
REMARK    7  A    between atoms: C_18  and  C_19
REMARK    8  A    between atoms: C_22  and  O_23
REMARK    9  A    between atoms: C_29  and  O_30
REMARK                            x       y       z     vdW  Elec       q    Type
REMARK                         _______ _______ _______ _____ _____    ______ ____
ROOT
ATOM      1  C   UNL     1      -0.574  10.467  19.920  0.00  0.00    +0.000 A 
ATOM      2  C   UNL     1      -0.504  11.624  20.526  0.00  0.00    +0.000 A 
ATOM      3  S   UNL     1      -2.075  12.112  20.875  0.00  0.00    +0.000 S 
ATOM      4  C   UNL     1      -2.618  11.502  19.470  0.00  0.00    +0.000 A 
ATOM      5  C   UNL     1      -3.847  11.873  18.960  0.00  0.00    +0.000 A 
ATOM      6  C   UNL     1      -4.024  11.892  17.597  0.00  0.00    +0.000 A 
ATOM      7  C   UNL     1      -2.935  11.506  16.782  0.00  0.00    +0.000 A 
ATOM      8  C   UNL     1      -1.734  10.904  17.364  0.00  0.00    +0.000 A 
ATOM      9  C   UNL     1      -1.574  10.868  18.824  0.00  0.00    +0.000 A 
ENDROOT
BRANCH   2  10
ATOM     10  C   UNL     1       0.497  12.400  19.603  0.00  0.00    +0.000 A 
ATOM     11  C   UNL     1       1.502  11.723  18.934  0.00  0.00    +0.000 A 
ATOM     12  C   UNL     1       2.434  12.422  18.156  0.00  0.00    +0.000 A 
ATOM     13  C   UNL     1       2.394  13.822  18.031  0.00  0.00    +0.000 A 
ATOM     14  C   UNL     1       1.462  14.545  18.739  0.00  0.00    +0.000 A 
ATOM     15  C   UNL     1       0.540  13.864  19.511  0.00  0.00    +0.000 A 
BRANCH  13  16
ATOM     16  O   UNL     1       3.251  14.483  17.235  0.00  0.00    +0.000 OA
ATOM     17  H   UNL     1       3.395  14.200  16.325  0.00  0.00    +0.000 HD
ENDBRANCH  13  16
ENDBRANCH   2  10
BRANCH   1  19
ATOM     18  O   UNL     1       1.074  10.204  21.705  0.00  0.00    +0.000 OA
ATOM     19  C   UNL     1       0.673   9.734  20.654  0.00  0.00    +0.000 C 
BRANCH  19  20
ATOM     20  C   UNL     1       1.525   8.491  19.979  0.00  0.00    +0.000 A 
ATOM     21  C   UNL     1       1.992   8.496  18.594  0.00  0.00    +0.000 A 
ATOM     22  C   UNL     1       2.763   7.481  18.001  0.00  0.00    +0.000 A 
ATOM     23  C   UNL     1       3.177   6.330  18.665  0.00  0.00    +0.000 A 
ATOM     24  C   UNL     1       2.718   6.231  20.013  0.00  0.00    +0.000 A 
ATOM     25  C   UNL     1       1.910   7.254  20.636  0.00  0.00    +0.000 A 
BRANCH  23  26
ATOM     26  O   UNL     1       3.957   5.372  18.054  0.00  0.00    +0.000 OA
BRANCH  26  27
ATOM     27  C   UNL     1       3.621   3.993  18.038  0.00  0.00    +0.000 C 
BRANCH  27  28
ATOM     28  C   UNL     1       4.166   3.124  19.213  0.00  0.00    +0.000 C 
BRANCH  28  29
ATOM     29  N   UNL     1       3.118   2.201  19.760  0.00  0.00    +0.000 NA
ATOM     30  C   UNL     1       1.812   2.158  19.076  0.00  0.00    +0.000 C 
ATOM     31  C   UNL     1       0.941   3.181  19.776  0.00  0.00    +0.000 C 
ATOM     32  C   UNL     1       1.310   2.952  21.223  0.00  0.00    +0.000 C 
ATOM     33  C   UNL     1       2.785   2.531  21.166  0.00  0.00    +0.000 C 
ENDBRANCH  28  29
ENDBRANCH  27  28
ENDBRANCH  26  27
ENDBRANCH  23  26
ENDBRANCH  19  20
ENDBRANCH   1  19
BRANCH   6  34
ATOM     34  O   UNL     1      -5.190  12.372  17.090  0.00  0.00    +0.000 OA
ATOM     35  H   UNL     1      -5.377  13.332  17.053  0.00  0.00    +0.000 HD
ENDBRANCH   6  34
TORSDOF 9
ENDMDL
MODEL 3
REMARK VINA RESULT:      -7.6      0.569      1.121
REMARK  Name = 
REMARK  9 active torsions:
REMARK  status: ('A' for Active; 'I' for Inactive)
REMARK    1  A    between atoms: C_2  and  C_3
REMARK    2  A    between atoms: C_2  and  C_17
REMARK    3  A    between atoms: C_6  and  O_7
REMARK    4  A    between atoms: O_7  and  C_8
REMARK    5  A    between atoms: C_8  and  C_9
REMARK    6  A    between atoms: C_9  and  N_10
REMARK    7  A    between atoms: C_18  and  C_19
REMARK    8  A    between atoms: C_22  and  O_23
REMARK    9  A    between atoms: C_29  and  O_30
REMARK                            x       y       z     vdW  Elec       q    Type
REMARK                         _______ _______ _______ _____ _____    ______ ____
ROOT
ATOM      1  C   UNL     1      -0.551  10.240  19.752  0.00  0.00    +0.000 A 
ATOM      2  C   UNL     1      -0.512  11.355  20.434  0.00  0.00    +0.000 A 
ATOM      3  S   UNL     1      -2.098  11.825  20.732  0.00  0.00    +0.000 S 
ATOM      4  C   UNL     1      -2.569  11.308  19.265  0.00  0.00    +0.000 A 
ATOM      5  C   UNL     1      -3.770  11.716  18.718  0.00  0.00    +0.000 A 
ATOM      6  C   UNL     1      -3.876  11.822  17.351  0.00  0.00    +0.000 A 
ATOM      7  C   UNL     1      -2.748  11.485  16.570  0.00  0.00    +0.000 A 
ATOM      8  C   UNL     1      -1.577  10.843  17.173  0.00  0.00    +0.000 A 
ATOM      9  C   UNL     1      -1.493  10.713  18.634  0.00  0.00    +0.000 A 
ENDROOT
BRANCH   2  10
ATOM     10  C   UNL     1       0.536  12.185  19.614  0.00  0.00    +0.000 A 
ATOM     11  C   UNL     1       0.415  13.560  19.514  0.00  0.00    +0.000 A 
ATOM     12  C   UNL     1       1.316  14.297  18.733  0.00  0.00    +0.000 A 
ATOM     13  C   UNL     1       2.359  13.678  18.021  0.00  0.00    +0.000 A 
ATOM     14  C   UNL     1       2.471  12.306  18.028  0.00  0.00    +0.000 A 
ATOM     15  C   UNL     1       1.587  11.571  18.793  0.00  0.00    +0.000 A 
BRANCH  13  16
ATOM     16  O   UNL     1       3.257  14.393  17.323  0.00  0.00    +0.000 OA
ATOM     17  H   UNL     1       3.574  14.084  16.468  0.00  0.00    +0.000 HD
ENDBRANCH  13  16
ENDBRANCH   2  10
BRANCH   1  19
ATOM     18  O   UNL     1       0.936   9.792  21.638  0.00  0.00    +0.000 OA
ATOM     19  C   UNL     1       0.657   9.457  20.501  0.00  0.00    +0.000 C 
BRANCH  19  20
ATOM     20  C   UNL     1       1.626   8.349  19.752  0.00  0.00    +0.000 A 
ATOM     21  C   UNL     1       2.093   7.123  20.397  0.00  0.00    +0.000 A 
ATOM     22  C   UNL     1       2.875   6.134  19.777  0.00  0.00    +0.000 A 
ATOM     23  C   UNL     1       3.312   6.203  18.457  0.00  0.00    +0.000 A 
ATOM     24  C   UNL     1       2.934   7.397  17.773  0.00  0.00    +0.000 A 
ATOM     25  C   UNL     1       2.145   8.435  18.399  0.00  0.00    +0.000 A 
BRANCH  23  26
ATOM     26  O   UNL     1       4.054   5.196  17.878  0.00  0.00    +0.000 OA
BRANCH  26  27
ATOM     27  C   UNL     1       3.710   3.822  17.980  0.00  0.00    +0.000 C 
BRANCH  27  28
ATOM     28  C   UNL     1       4.177   3.077  19.268  0.00  0.00    +0.000 C 
BRANCH  28  29
ATOM     29  N   UNL     1       3.101   2.193  19.825  0.00  0.00    +0.000 NA
ATOM     30  C   UNL     1       1.792   2.187  19.144  0.00  0.00    +0.000 C 
ATOM     31  C   UNL     1       0.957   3.244  19.837  0.00  0.00    +0.000 C 
ATOM     32  C   UNL     1       1.321   3.016  21.285  0.00  0.00    +0.000 C 
ATOM     33  C   UNL     1       2.781   2.546  21.229  0.00  0.00    +0.000 C 
ENDBRANCH  28  29
ENDBRANCH  27  28
ENDBRANCH  26  27
ENDBRANCH  23  26
ENDBRANCH  19  20
ENDBRANCH   1  19
BRANCH   6  34
ATOM     34  O   UNL     1      -5.015  12.338  16.817  0.00  0.00    +0.000 OA
ATOM     35  H   UNL     1      -5.747  12.659  17.382  0.00  0.00    +0.000 HD
ENDBRANCH   6  34
TORSDOF 9
ENDMDL
MODEL 4
REMARK VINA RESULT:      -7.6      1.606      2.738
REMARK  Name = 
REMARK  9 active torsions:
REMARK  status: ('A' for Active; 'I' for Inactive)
REMARK    1  A    between atoms: C_2  and  C_3
REMARK    2  A    between atoms: C_2  and  C_17
REMARK    3  A    between atoms: C_6  and  O_7
REMARK    4  A    between atoms: O_7  and  C_8
REMARK    5  A    between atoms: C_8  and  C_9
REMARK    6  A    between atoms: C_9  and  N_10
REMARK    7  A    between atoms: C_18  and  C_19
REMARK    8  A    between atoms: C_22  and  O_23
REMARK    9  A    between atoms: C_29  and  O_30
REMARK                            x       y       z     vdW  Elec       q    Type
REMARK                         _______ _______ _______ _____ _____    ______ ____
ROOT
ATOM      1  C   UNL     1      -0.459  10.273  19.865  0.00  0.00    +0.000 A 
ATOM      2  C   UNL     1      -0.422  11.411  20.508  0.00  0.00    +0.000 A 
ATOM      3  S   UNL     1      -2.010  11.891  20.785  0.00  0.00    +0.000 S 
ATOM      4  C   UNL     1      -2.476  11.323  19.335  0.00  0.00    +0.000 A 
ATOM      5  C   UNL     1      -3.675  11.712  18.770  0.00  0.00    +0.000 A 
ATOM      6  C   UNL     1      -3.777  11.771  17.401  0.00  0.00    +0.000 A 
ATOM      7  C   UNL     1      -2.646  11.407  16.635  0.00  0.00    +0.000 A 
ATOM      8  C   UNL     1      -1.478  10.787  17.264  0.00  0.00    +0.000 A 
ATOM      9  C   UNL     1      -1.398  10.707  18.728  0.00  0.00    +0.000 A 
ENDROOT
BRANCH   2  10
ATOM     10  C   UNL     1       0.628  12.212  19.663  0.00  0.00    +0.000 A 
ATOM     11  C   UNL     1       0.567  13.593  19.599  0.00  0.00    +0.000 A 
ATOM     12  C   UNL     1       1.467  14.308  18.797  0.00  0.00    +0.000 A 
ATOM     13  C   UNL     1       2.450  13.659  18.027  0.00  0.00    +0.000 A 
ATOM     14  C   UNL     1       2.499  12.284  17.999  0.00  0.00    +0.000 A 
ATOM     15  C   UNL     1       1.614  11.572  18.784  0.00  0.00    +0.000 A 
BRANCH  13  16
ATOM     16  O   UNL     1       3.351  14.350  17.308  0.00  0.00    +0.000 OA
ATOM     17  H   UNL     1       3.412  15.308  17.387  0.00  0.00    +0.000 HD
ENDBRANCH  13  16
ENDBRANCH   2  10
BRANCH   1  19
ATOM     18  O   UNL     1       1.124   9.984  21.703  0.00  0.00    +0.000 OA
ATOM     19  C   UNL     1       0.746   9.516  20.644  0.00  0.00    +0.000 C 
BRANCH  19  20
ATOM     20  C   UNL     1       1.590   8.249  20.005  0.00  0.00    +0.000 A 
ATOM     21  C   UNL     1       1.779   6.977  20.699  0.00  0.00    +0.000 A 
ATOM     22  C   UNL     1       2.445   5.859  20.167  0.00  0.00    +0.000 A 
ATOM     23  C   UNL     1       3.020   5.828  18.899  0.00  0.00    +0.000 A 
ATOM     24  C   UNL     1       2.917   7.054  18.176  0.00  0.00    +0.000 A 
ATOM     25  C   UNL     1       2.251   8.220  18.712  0.00  0.00    +0.000 A 
BRANCH  23  26
ATOM     26  O   UNL     1       3.640   4.702  18.404  0.00  0.00    +0.000 OA
BRANCH  26  27
ATOM     27  C   UNL     1       4.068   4.581  17.055  0.00  0.00    +0.000 C 
BRANCH  27  28
ATOM     28  C   UNL     1       5.352   3.733  16.800  0.00  0.00    +0.000 C 
BRANCH  28  29
ATOM     29  N   UNL     1       6.557   4.597  16.572  0.00  0.00    +0.000 NA
ATOM     30  C   UNL     1       7.602   4.612  17.615  0.00  0.00    +0.000 C 
ATOM     31  C   UNL     1       7.248   5.757  18.541  0.00  0.00    +0.000 C 
ATOM     32  C   UNL     1       6.813   6.818  17.559  0.00  0.00    +0.000 C 
ATOM     33  C   UNL     1       6.181   6.021  16.409  0.00  0.00    +0.000 C 
ENDBRANCH  28  29
ENDBRANCH  27  28
ENDBRANCH  26  27
ENDBRANCH  23  26
ENDBRANCH  19  20
ENDBRANCH   1  19
BRANCH   6  34
ATOM     34  O   UNL     1      -4.914  12.267  16.846  0.00  0.00    +0.000 OA
ATOM     35  H   UNL     1      -5.303  13.115  17.143  0.00  0.00    +0.000 HD
ENDBRANCH   6  34
TORSDOF 9
ENDMDL
MODEL 5
REMARK VINA RESULT:      -7.5      2.027      2.943
REMARK  Name = 
REMARK  9 active torsions:
REMARK  status: ('A' for Active; 'I' for Inactive)
REMARK    1  A    between atoms: C_2  and  C_3
REMARK    2  A    between atoms: C_2  and  C_17
REMARK    3  A    between atoms: C_6  and  O_7
REMARK    4  A    between atoms: O_7  and  C_8
REMARK    5  A    between atoms: C_8  and  C_9
REMARK    6  A    between atoms: C_9  and  N_10
REMARK    7  A    between atoms: C_18  and  C_19
REMARK    8  A    between atoms: C_22  and  O_23
REMARK    9  A    between atoms: C_29  and  O_30
REMARK                            x       y       z     vdW  Elec       q    Type
REMARK                         _______ _______ _______ _____ _____    ______ ____
ROOT
ATOM      1  C   UNL     1      -0.192  10.334  19.779  0.00  0.00    +0.000 A 
ATOM      2  C   UNL     1       0.929  10.532  20.421  0.00  0.00    +0.000 A 
ATOM      3  S   UNL     1       0.651  10.201  22.046  0.00  0.00    +0.000 S 
ATOM      4  C   UNL     1      -0.838  10.847  21.963  0.00  0.00    +0.000 A 
ATOM      5  C   UNL     1      -1.525  11.201  23.108  0.00  0.00    +0.000 A 
ATOM      6  C   UNL     1      -2.409  12.253  23.054  0.00  0.00    +0.000 A 
ATOM      7  C   UNL     1      -2.586  12.908  21.815  0.00  0.00    +0.000 A 
ATOM      8  C   UNL     1      -2.014  12.359  20.583  0.00  0.00    +0.000 A 
ATOM      9  C   UNL     1      -1.093  11.217  20.656  0.00  0.00    +0.000 A 
ENDROOT
BRANCH   2  10
ATOM     10  C   UNL     1       1.376  11.921  19.847  0.00  0.00    +0.000 A 
ATOM     11  C   UNL     1       1.864  12.021  18.557  0.00  0.00    +0.000 A 
ATOM     12  C   UNL     1       2.320  13.251  18.063  0.00  0.00    +0.000 A 
ATOM     13  C   UNL     1       2.308  14.417  18.850  0.00  0.00    +0.000 A 
ATOM     14  C   UNL     1       1.905  14.349  20.164  0.00  0.00    +0.000 A 
ATOM     15  C   UNL     1       1.456  13.141  20.661  0.00  0.00    +0.000 A 
BRANCH  13  16
ATOM     16  O   UNL     1       2.688  15.606  18.354  0.00  0.00    +0.000 OA
ATOM     17  H   UNL     1       2.298  16.423  18.684  0.00  0.00    +0.000 HD
ENDBRANCH  13  16
ENDBRANCH   2  10
BRANCH   1  19
ATOM     18  O   UNL     1      -0.156   9.778  17.400  0.00  0.00    +0.000 OA
ATOM     19  C   UNL     1       0.409   9.598  18.464  0.00  0.00    +0.000 C 
BRANCH  19  20
ATOM     20  C   UNL     1       1.640   8.499  18.517  0.00  0.00    +0.000 A 
ATOM     21  C   UNL     1       1.758   7.474  19.553  0.00  0.00    +0.000 A 
ATOM     22  C   UNL     1       2.761   6.491  19.602  0.00  0.00    +0.000 A 
ATOM     23  C   UNL     1       3.782   6.374  18.662  0.00  0.00    +0.000 A 
ATOM     24  C   UNL     1       3.760   7.371  17.643  0.00  0.00    +0.000 A 
ATOM     25  C   UNL     1       2.748   8.402  17.584  0.00  0.00    +0.000 A 
BRANCH  23  26
ATOM     26  O   UNL     1       4.730   5.376  18.732  0.00  0.00    +0.000 OA
BRANCH  26  27
ATOM     27  C   UNL     1       4.507   4.139  19.393  0.00  0.00    +0.000 C 
BRANCH  27  28
ATOM     28  C   UNL     1       3.784   3.026  18.573  0.00  0.00    +0.000 C 
BRANCH  28  29
ATOM     29  N   UNL     1       2.841   2.228  19.422  0.00  0.00    +0.000 NA
ATOM     30  C   UNL     1       1.415   2.213  19.042  0.00  0.00    +0.000 C 
ATOM     31  C   UNL     1       0.769   3.350  19.806  0.00  0.00    +0.000 C 
ATOM     32  C   UNL     1       1.436   3.226  21.156  0.00  0.00    +0.000 C 
ATOM     33  C   UNL     1       2.841   2.702  20.826  0.00  0.00    +0.000 C 
ENDBRANCH  28  29
ENDBRANCH  27  28
ENDBRANCH  26  27
ENDBRANCH  23  26
ENDBRANCH  19  20
ENDBRANCH   1  19
BRANCH   6  34
ATOM     34  O   UNL     1      -2.995  12.680  24.204  0.00  0.00    +0.000 OA
ATOM     35  H   UNL     1      -2.928  13.611  24.499  0.00  0.00    +0.000 HD
ENDBRANCH   6  34
TORSDOF 9
ENDMDL
MODEL 6
REMARK VINA RESULT:      -7.5      1.425      2.593
REMARK  Name = 
REMARK  9 active torsions:
REMARK  status: ('A' for Active; 'I' for Inactive)
REMARK    1  A    between atoms: C_2  and  C_3
REMARK    2  A    between atoms: C_2  and  C_17
REMARK    3  A    between atoms: C_6  and  O_7
REMARK    4  A    between atoms: O_7  and  C_8
REMARK    5  A    between atoms: C_8  and  C_9
REMARK    6  A    between atoms: C_9  and  N_10
REMARK    7  A    between atoms: C_18  and  C_19
REMARK    8  A    between atoms: C_22  and  O_23
REMARK    9  A    between atoms: C_29  and  O_30
REMARK                            x       y       z     vdW  Elec       q    Type
REMARK                         _______ _______ _______ _____ _____    ______ ____
ROOT
ATOM      1  C   UNL     1      -0.500  10.370  20.038  0.00  0.00    +0.000 A 
ATOM      2  C   UNL     1      -0.451  11.534  20.630  0.00  0.00    +0.000 A 
ATOM      3  S   UNL     1      -2.033  12.054  20.863  0.00  0.00    +0.000 S 
ATOM      4  C   UNL     1      -2.489  11.431  19.434  0.00  0.00    +0.000 A 
ATOM      5  C   UNL     1      -3.674  11.816  18.835  0.00  0.00    +0.000 A 
ATOM      6  C   UNL     1      -3.756  11.816  17.463  0.00  0.00    +0.000 A 
ATOM      7  C   UNL     1      -2.622  11.399  16.730  0.00  0.00    +0.000 A 
ATOM      8  C   UNL     1      -1.474  10.786  17.402  0.00  0.00    +0.000 A 
ATOM      9  C   UNL     1      -1.415  10.770  18.870  0.00  0.00    +0.000 A 
ENDROOT
BRANCH   2  10
ATOM     10  C   UNL     1       0.625  12.279  19.766  0.00  0.00    +0.000 A 
ATOM     11  C   UNL     1       0.668  13.661  19.740  0.00  0.00    +0.000 A 
ATOM     12  C   UNL     1       1.589  14.329  18.922  0.00  0.00    +0.000 A 
ATOM     13  C   UNL     1       2.491  13.631  18.098  0.00  0.00    +0.000 A 
ATOM     14  C   UNL     1       2.433  12.258  18.032  0.00  0.00    +0.000 A 
ATOM     15  C   UNL     1       1.526  11.591  18.833  0.00  0.00    +0.000 A 
BRANCH  13  16
ATOM     16  O   UNL     1       3.414  14.272  17.363  0.00  0.00    +0.000 OA
ATOM     17  H   UNL     1       4.266  14.512  17.743  0.00  0.00    +0.000 HD
ENDBRANCH  13  16
ENDBRANCH   2  10
BRANCH   1  19
ATOM     18  O   UNL     1       1.151  10.204  21.831  0.00  0.00    +0.000 OA
ATOM     19  C   UNL     1       0.680   9.627  20.867  0.00  0.00    +0.000 C 
BRANCH  19  20
ATOM     20  C   UNL     1       1.384   8.214  20.381  0.00  0.00    +0.000 A 
ATOM     21  C   UNL     1       1.299   6.970  21.143  0.00  0.00    +0.000 A 
ATOM     22  C   UNL     1       1.840   5.738  20.737  0.00  0.00    +0.000 A 
ATOM     23  C   UNL     1       2.539   5.550  19.548  0.00  0.00    +0.000 A 
ATOM     24  C   UNL     1       2.705   6.734  18.769  0.00  0.00    +0.000 A 
ATOM     25  C   UNL     1       2.171   8.014  19.177  0.00  0.00    +0.000 A 
BRANCH  23  26
ATOM     26  O   UNL     1       3.029   4.318  19.174  0.00  0.00    +0.000 OA
BRANCH  26  27
ATOM     27  C   UNL     1       2.866   3.782  17.869  0.00  0.00    +0.000 C 
BRANCH  27  28
ATOM     28  C   UNL     1       4.168   3.526  17.048  0.00  0.00    +0.000 C 
BRANCH  28  29
ATOM     29  N   UNL     1       4.999   4.768  16.916  0.00  0.00    +0.000 NA
ATOM     30  C   UNL     1       5.499   5.122  15.573  0.00  0.00    +0.000 C 
ATOM     31  C   UNL     1       6.865   4.478  15.456  0.00  0.00    +0.000 C 
ATOM     32  C   UNL     1       7.441   4.736  16.828  0.00  0.00    +0.000 C 
ATOM     33  C   UNL     1       6.218   4.697  17.755  0.00  0.00    +0.000 C 
ENDBRANCH  28  29
ENDBRANCH  27  28
ENDBRANCH  26  27
ENDBRANCH  23  26
ENDBRANCH  19  20
ENDBRANCH   1  19
BRANCH   6  34
ATOM     34  O   UNL     1      -4.876  12.307  16.870  0.00  0.00    +0.000 OA
ATOM     35  H   UNL     1      -5.513  11.722  16.412  0.00  0.00    +0.000 HD
ENDBRANCH   6  34
TORSDOF 9
ENDMDL
MODEL 7
REMARK VINA RESULT:      -7.5      2.414      4.626
REMARK  Name = 
REMARK  9 active torsions:
REMARK  status: ('A' for Active; 'I' for Inactive)
REMARK    1  A    between atoms: C_2  and  C_3
REMARK    2  A    between atoms: C_2  and  C_17
REMARK    3  A    between atoms: C_6  and  O_7
REMARK    4  A    between atoms: O_7  and  C_8
REMARK    5  A    between atoms: C_8  and  C_9
REMARK    6  A    between atoms: C_9  and  N_10
REMARK    7  A    between atoms: C_18  and  C_19
REMARK    8  A    between atoms: C_22  and  O_23
REMARK    9  A    between atoms: C_29  and  O_30
REMARK                            x       y       z     vdW  Elec       q    Type
REMARK                         _______ _______ _______ _____ _____    ______ ____
ROOT
ATOM      1  C   UNL     1       0.974  11.454  19.875  0.00  0.00    +0.000 A 
ATOM      2  C   UNL     1       0.525  12.361  19.047  0.00  0.00    +0.000 A 
ATOM      3  S   UNL     1       0.655  13.855  19.809  0.00  0.00    +0.000 S 
ATOM      4  C   UNL     1       0.250  13.203  21.242  0.00  0.00    +0.000 A 
ATOM      5  C   UNL     1      -0.163  13.997  22.294  0.00  0.00    +0.000 A 
ATOM      6  C   UNL     1      -1.056  13.484  23.204  0.00  0.00    +0.000 A 
ATOM      7  C   UNL     1      -1.493  12.151  23.026  0.00  0.00    +0.000 A 
ATOM      8  C   UNL     1      -0.861  11.277  22.036  0.00  0.00    +0.000 A 
ATOM      9  C   UNL     1       0.113  11.836  21.089  0.00  0.00    +0.000 A 
ENDROOT
BRANCH   2  10
ATOM     10  C   UNL     1      -0.817  11.708  18.567  0.00  0.00    +0.000 A 
ATOM     11  C   UNL     1      -2.025  12.343  18.793  0.00  0.00    +0.000 A 
ATOM     12  C   UNL     1      -3.230  11.733  18.418  0.00  0.00    +0.000 A 
ATOM     13  C   UNL     1      -3.261  10.464  17.813  0.00  0.00    +0.000 A 
ATOM     14  C   UNL     1      -2.091   9.761  17.639  0.00  0.00    +0.000 A 
ATOM     15  C   UNL     1      -0.899  10.353  18.007  0.00  0.00    +0.000 A 
BRANCH  13  16
ATOM     16  O   UNL     1      -4.413   9.909  17.399  0.00  0.00    +0.000 OA
ATOM     17  H   UNL     1      -4.466   9.468  16.544  0.00  0.00    +0.000 HD
ENDBRANCH  13  16
ENDBRANCH   2  10
BRANCH   1  19
ATOM     18  O   UNL     1       2.184  11.075  17.786  0.00  0.00    +0.000 OA
ATOM     19  C   UNL     1       1.796  10.545  18.813  0.00  0.00    +0.000 C 
BRANCH  19  20
ATOM     20  C   UNL     1       1.995   8.913  18.972  0.00  0.00    +0.000 A 
ATOM     21  C   UNL     1       2.531   8.061  17.912  0.00  0.00    +0.000 A 
ATOM     22  C   UNL     1       2.762   6.680  18.028  0.00  0.00    +0.000 A 
ATOM     23  C   UNL     1       2.500   5.942  19.180  0.00  0.00    +0.000 A 
ATOM     24  C   UNL     1       1.929   6.699  20.246  0.00  0.00    +0.000 A 
ATOM     25  C   UNL     1       1.667   8.116  20.141  0.00  0.00    +0.000 A 
BRANCH  23  26
ATOM     26  O   UNL     1       2.768   4.593  19.262  0.00  0.00    +0.000 OA
BRANCH  26  27
ATOM     27  C   UNL     1       3.947   4.003  18.733  0.00  0.00    +0.000 C 
BRANCH  27  28
ATOM     28  C   UNL     1       5.301   4.455  19.363  0.00  0.00    +0.000 C 
BRANCH  28  29
ATOM     29  N   UNL     1       6.413   4.458  18.357  0.00  0.00    +0.000 NA
ATOM     30  C   UNL     1       7.396   5.557  18.419  0.00  0.00    +0.000 C 
ATOM     31  C   UNL     1       6.873   6.637  17.495  0.00  0.00    +0.000 C 
ATOM     32  C   UNL     1       6.372   5.820  16.328  0.00  0.00    +0.000 C 
ATOM     33  C   UNL     1       5.890   4.512  16.970  0.00  0.00    +0.000 C 
ENDBRANCH  28  29
ENDBRANCH  27  28
ENDBRANCH  26  27
ENDBRANCH  23  26
ENDBRANCH  19  20
ENDBRANCH   1  19
BRANCH   6  34
ATOM     34  O   UNL     1      -1.556  14.300  24.170  0.00  0.00    +0.000 OA
ATOM     35  H   UNL     1      -1.344  15.255  24.194  0.00  0.00    +0.000 HD
ENDBRANCH   6  34
TORSDOF 9
ENDMDL
MODEL 8
REMARK VINA RESULT:      -7.4      1.637      2.697
REMARK  Name = 
REMARK  9 active torsions:
REMARK  status: ('A' for Active; 'I' for Inactive)
REMARK    1  A    between atoms: C_2  and  C_3
REMARK    2  A    between atoms: C_2  and  C_17
REMARK    3  A    between atoms: C_6  and  O_7
REMARK    4  A    between atoms: O_7  and  C_8
REMARK    5  A    between atoms: C_8  and  C_9
REMARK    6  A    between atoms: C_9  and  N_10
REMARK    7  A    between atoms: C_18  and  C_19
REMARK    8  A    between atoms: C_22  and  O_23
REMARK    9  A    between atoms: C_29  and  O_30
REMARK                            x       y       z     vdW  Elec       q    Type
REMARK                         _______ _______ _______ _____ _____    ______ ____
ROOT
ATOM      1  C   UNL     1      -0.459  10.344  20.008  0.00  0.00    +0.000 A 
ATOM      2  C   UNL     1      -0.419  11.504  20.608  0.00  0.00    +0.000 A 
ATOM      3  S   UNL     1      -2.005  12.010  20.845  0.00  0.00    +0.000 S 
ATOM      4  C   UNL     1      -2.458  11.393  19.412  0.00  0.00    +0.000 A 
ATOM      5  C   UNL     1      -3.646  11.771  18.817  0.00  0.00    +0.000 A 
ATOM      6  C   UNL     1      -3.730  11.780  17.445  0.00  0.00    +0.000 A 
ATOM      7  C   UNL     1      -2.592  11.377  16.709  0.00  0.00    +0.000 A 
ATOM      8  C   UNL     1      -1.439  10.769  17.376  0.00  0.00    +0.000 A 
ATOM      9  C   UNL     1      -1.378  10.744  18.843  0.00  0.00    +0.000 A 
ENDROOT
BRANCH   2  10
ATOM     10  C   UNL     1       0.650  12.264  19.748  0.00  0.00    +0.000 A 
ATOM     11  C   UNL     1       0.666  13.647  19.712  0.00  0.00    +0.000 A 
ATOM     12  C   UNL     1       1.581  14.326  18.897  0.00  0.00    +0.000 A 
ATOM     13  C   UNL     1       2.504  13.640  18.087  0.00  0.00    +0.000 A 
ATOM     14  C   UNL     1       2.473  12.266  18.030  0.00  0.00    +0.000 A 
ATOM     15  C   UNL     1       1.573  11.587  18.828  0.00  0.00    +0.000 A 
BRANCH  13  16
ATOM     16  O   UNL     1       3.421  14.294  17.355  0.00  0.00    +0.000 OA
ATOM     17  H   UNL     1       3.858  15.079  17.702  0.00  0.00    +0.000 HD
ENDBRANCH  13  16
ENDBRANCH   2  10
BRANCH   1  19
ATOM     18  O   UNL     1       1.247  10.211  21.752  0.00  0.00    +0.000 OA
ATOM     19  C   UNL     1       0.728   9.605  20.830  0.00  0.00    +0.000 C 
BRANCH  19  20
ATOM     20  C   UNL     1       1.377   8.152  20.388  0.00  0.00    +0.000 A 
ATOM     21  C   UNL     1       2.145   7.956  19.160  0.00  0.00    +0.000 A 
ATOM     22  C   UNL     1       2.755   6.749  18.777  0.00  0.00    +0.000 A 
ATOM     23  C   UNL     1       2.696   5.576  19.525  0.00  0.00    +0.000 A 
ATOM     24  C   UNL     1       1.921   5.677  20.718  0.00  0.00    +0.000 A 
ATOM     25  C   UNL     1       1.271   6.904  21.122  0.00  0.00    +0.000 A 
BRANCH  23  26
ATOM     26  O   UNL     1       3.333   4.421  19.126  0.00  0.00    +0.000 OA
BRANCH  26  27
ATOM     27  C   UNL     1       4.143   4.344  17.962  0.00  0.00    +0.000 C 
BRANCH  27  28
ATOM     28  C   UNL     1       5.674   4.575  18.156  0.00  0.00    +0.000 C 
BRANCH  28  29
ATOM     29  N   UNL     1       6.253   5.432  17.071  0.00  0.00    +0.000 NA
ATOM     30  C   UNL     1       5.356   5.866  15.983  0.00  0.00    +0.000 C 
ATOM     31  C   UNL     1       5.481   4.817  14.897  0.00  0.00    +0.000 C 
ATOM     32  C   UNL     1       6.967   4.545  14.908  0.00  0.00    +0.000 C 
ATOM     33  C   UNL     1       7.369   4.747  16.376  0.00  0.00    +0.000 C 
ENDBRANCH  28  29
ENDBRANCH  27  28
ENDBRANCH  26  27
ENDBRANCH  23  26
ENDBRANCH  19  20
ENDBRANCH   1  19
BRANCH   6  34
ATOM     34  O   UNL     1      -4.854  12.266  16.857  0.00  0.00    +0.000 OA
ATOM     35  H   UNL     1      -5.168  13.178  17.024  0.00  0.00    +0.000 HD
ENDBRANCH   6  34
TORSDOF 9
ENDMDL
MODEL 9
REMARK VINA RESULT:      -7.3      2.023      4.160
REMARK  Name = 
REMARK  9 active torsions:
REMARK  status: ('A' for Active; 'I' for Inactive)
REMARK    1  A    between atoms: C_2  and  C_3
REMARK    2  A    between atoms: C_2  and  C_17
REMARK    3  A    between atoms: C_6  and  O_7
REMARK    4  A    between atoms: O_7  and  C_8
REMARK    5  A    between atoms: C_8  and  C_9
REMARK    6  A    between atoms: C_9  and  N_10
REMARK    7  A    between atoms: C_18  and  C_19
REMARK    8  A    between atoms: C_22  and  O_23
REMARK    9  A    between atoms: C_29  and  O_30
REMARK                            x       y       z     vdW  Elec       q    Type
REMARK                         _______ _______ _______ _____ _____    ______ ____
ROOT
ATOM      1  C   UNL     1       0.906  11.061  18.514  0.00  0.00    +0.000 A 
ATOM      2  C   UNL     1      -0.329  11.218  18.913  0.00  0.00    +0.000 A 
ATOM      3  S   UNL     1      -0.821  12.759  18.455  0.00  0.00    +0.000 S 
ATOM      4  C   UNL     1       0.651  13.367  18.776  0.00  0.00    +0.000 A 
ATOM      5  C   UNL     1       0.843  14.727  18.924  0.00  0.00    +0.000 A 
ATOM      6  C   UNL     1       1.834  15.171  19.767  0.00  0.00    +0.000 A 
ATOM      7  C   UNL     1       2.626  14.205  20.427  0.00  0.00    +0.000 A 
ATOM      8  C   UNL     1       2.540  12.787  20.069  0.00  0.00    +0.000 A 
ATOM      9  C   UNL     1       1.491  12.334  19.145  0.00  0.00    +0.000 A 
ENDROOT
BRANCH   2  10
ATOM     10  C   UNL     1      -0.247  10.699  20.391  0.00  0.00    +0.000 A 
ATOM     11  C   UNL     1      -1.048  11.254  21.373  0.00  0.00    +0.000 A 
ATOM     12  C   UNL     1      -0.933  10.834  22.705  0.00  0.00    +0.000 A 
ATOM     13  C   UNL     1      -0.005   9.852  23.095  0.00  0.00    +0.000 A 
ATOM     14  C   UNL     1       0.866   9.328  22.167  0.00  0.00    +0.000 A 
ATOM     15  C   UNL     1       0.762   9.738  20.853  0.00  0.00    +0.000 A 
BRANCH  13  16
ATOM     16  O   UNL     1       0.060   9.407  24.361  0.00  0.00    +0.000 OA
ATOM     17  H   UNL     1       0.865   9.515  24.879  0.00  0.00    +0.000 HD
ENDBRANCH  13  16
ENDBRANCH   2  10
BRANCH   1  19
ATOM     18  O   UNL     1      -0.276   9.155  17.544  0.00  0.00    +0.000 OA
ATOM     19  C   UNL     1       0.796   9.532  17.984  0.00  0.00    +0.000 C 
BRANCH  19  20
ATOM     20  C   UNL     1       2.004   8.419  18.156  0.00  0.00    +0.000 A 
ATOM     21  C   UNL     1       2.033   7.424  19.227  0.00  0.00    +0.000 A 
ATOM     22  C   UNL     1       3.015   6.430  19.375  0.00  0.00    +0.000 A 
ATOM     23  C   UNL     1       4.098   6.272  18.514  0.00  0.00    +0.000 A 
ATOM     24  C   UNL     1       4.163   7.239  17.467  0.00  0.00    +0.000 A 
ATOM     25  C   UNL     1       3.174   8.280  17.307  0.00  0.00    +0.000 A 
BRANCH  23  26
ATOM     26  O   UNL     1       5.024   5.264  18.680  0.00  0.00    +0.000 OA
BRANCH  26  27
ATOM     27  C   UNL     1       4.750   3.903  18.384  0.00  0.00    +0.000 C 
BRANCH  27  28
ATOM     28  C   UNL     1       4.243   3.017  19.563  0.00  0.00    +0.000 C 
BRANCH  28  29
ATOM     29  N   UNL     1       3.034   2.216  19.183  0.00  0.00    +0.000 NA
ATOM     30  C   UNL     1       2.385   2.518  17.892  0.00  0.00    +0.000 C 
ATOM     31  C   UNL     1       1.317   3.549  18.194  0.00  0.00    +0.000 C 
ATOM     32  C   UNL     1       0.748   3.025  19.491  0.00  0.00    +0.000 C 
ATOM     33  C   UNL     1       1.949   2.364  20.182  0.00  0.00    +0.000 C 
ENDBRANCH  28  29
ENDBRANCH  27  28
ENDBRANCH  26  27
ENDBRANCH  23  26
ENDBRANCH  19  20
ENDBRANCH   1  19
BRANCH   6  34
ATOM     34  O   UNL     1       1.947  16.505  20.007  0.00  0.00    +0.000 OA
ATOM     35  H   UNL     1       1.220  17.126  19.798  0.00  0.00    +0.000 HD
ENDBRANCH   6  34
TORSDOF 9
ENDMDL
