MODEL 1
REMARK VINA RESULT:      -8.3      0.000      0.000
REMARK  Name = 
REMARK  11 active torsions:
REMARK  status: ('A' for Active; 'I' for Inactive)
REMARK    1  A    between atoms: C_1  and  C_2
REMARK    2  A    between atoms: C_2  and  O_3
REMARK    3  A    between atoms: O_3  and  C_4
REMARK    4  A    between atoms: C_4  and  O_5
REMARK    5  A    between atoms: C_7  and  C_8
REMARK    6  A    between atoms: C_10  and  C_11
REMARK    7  A    between atoms: C_12  and  C_13
REMARK    8  A    between atoms: C_13  and  O_15
REMARK    9  A    between atoms: O_15  and  C_16
REMARK   10  A    between atoms: C_17  and  C_18
REMARK   11  A    between atoms: C_21  and  N_22
REMARK                            x       y       z     vdW  Elec       q    Type
REMARK                         _______ _______ _______ _____ _____    ______ ____
ROOT
ATOM      1  C   UNL     1       2.141   3.588  18.226  0.00  0.00    +0.000 C 
ATOM      2  C   UNL     1       3.422   4.025  18.273  0.00  0.00    +0.000 C 
ATOM      3  C   UNL     1       4.538   3.387  19.056  0.00  0.00    +0.000 C 
ATOM      4  C   UNL     1       4.350   2.167  19.945  0.00  0.00    +0.000 C 
ATOM      5  N   UNL     1       5.774   3.785  19.029  0.00  0.00    +0.000 NA
ATOM      6  C   UNL     1       6.179   4.831  18.245  0.00  0.00    +0.000 C 
ATOM      7  C   UNL     1       7.662   5.099  18.349  0.00  0.00    +0.000 C 
ATOM      8  C   UNL     1       5.335   5.553  17.490  0.00  0.00    +0.000 C 
ATOM      9  C   UNL     1       3.841   5.295  17.521  0.00  0.00    +0.000 C 
ENDROOT
BRANCH   9  10
ATOM     10  C   UNL     1       3.130   6.535  18.102  0.00  0.00    +0.000 A 
ATOM     11  C   UNL     1       2.779   6.559  19.462  0.00  0.00    +0.000 A 
ATOM     12  C   UNL     1       2.039   7.618  19.986  0.00  0.00    +0.000 A 
ATOM     13  C   UNL     1       1.656   8.671  19.148  0.00  0.00    +0.000 A 
ATOM     14  C   UNL     1       2.032   8.685  17.800  0.00  0.00    +0.000 A 
ATOM     15  C   UNL     1       2.771   7.621  17.282  0.00  0.00    +0.000 A 
BRANCH  13  16
ATOM     16  N   UNL     1       0.836   9.763  19.688  0.00  0.00    +0.000 N 
ATOM     17  O   UNL     1       1.000  10.896  19.213  0.00  0.00    +0.000 OA
ATOM     18  O   UNL     1       0.030   9.489  20.588  0.00  0.00    +0.000 OA
ENDBRANCH  13  16
ENDBRANCH   9  10
BRANCH   1  19
ATOM     19  O   UNL     1       1.234   4.235  17.411  0.00  0.00    +0.000 OA
ATOM     20  H   UNL     1       1.724   4.485  16.609  0.00  0.00    +0.000 HD
ENDBRANCH   1  19
BRANCH   8  21
ATOM     21  C   UNL     1       5.834   6.715  16.689  0.00  0.00    +0.000 C 
ATOM     22  O   UNL     1       6.396   7.695  17.154  0.00  0.00    +0.000 OA
BRANCH  21  23
ATOM     23  O   UNL     1       5.567   6.546  15.366  0.00  0.00    +0.000 OA
ATOM     24  C   UNL     1       6.084   5.328  14.819  0.00  0.00    +0.000 C 
ENDBRANCH  21  23
ENDBRANCH   8  21
BRANCH   1  25
ATOM     25  O   UNL     1       1.673   2.610  19.056  0.00  0.00    +0.000 OA
BRANCH  25  27
ATOM     26  C   UNL     1       1.393   3.427  21.255  0.00  0.00    +0.000 C 
ATOM     27  C   UNL     1       0.666   2.948  20.009  0.00  0.00    +0.000 C 
ENDBRANCH  25  27
ENDBRANCH   1  25
TORSDOF 7
ENDMDL
MODEL 2
REMARK VINA RESULT:      -7.9      0.543      1.055
REMARK  Name = 
REMARK  11 active torsions:
REMARK  status: ('A' for Active; 'I' for Inactive)
REMARK    1  A    between atoms: C_1  and  C_2
REMARK    2  A    between atoms: C_2  and  O_3
REMARK    3  A    between atoms: O_3  and  C_4
REMARK    4  A    between atoms: C_4  and  O_5
REMARK    5  A    between atoms: C_7  and  C_8
REMARK    6  A    between atoms: C_10  and  C_11
REMARK    7  A    between atoms: C_12  and  C_13
REMARK    8  A    between atoms: C_13  and  O_15
REMARK    9  A    between atoms: O_15  and  C_16
REMARK   10  A    between atoms: C_17  and  C_18
REMARK   11  A    between atoms: C_21  and  N_22
REMARK                            x       y       z     vdW  Elec       q    Type
REMARK                         _______ _______ _______ _____ _____    ______ ____
ROOT
ATOM      1  C   UNL     1       2.127   3.585  18.175  0.00  0.00    +0.000 C 
ATOM      2  C   UNL     1       3.405   4.017  18.282  0.00  0.00    +0.000 C 
ATOM      3  C   UNL     1       4.496   3.345  19.074  0.00  0.00    +0.000 C 
ATOM      4  C   UNL     1       4.278   2.090  19.905  0.00  0.00    +0.000 C 
ATOM      5  N   UNL     1       5.731   3.742  19.105  0.00  0.00    +0.000 NA
ATOM      6  C   UNL     1       6.162   4.819  18.378  0.00  0.00    +0.000 C 
ATOM      7  C   UNL     1       7.641   5.081  18.542  0.00  0.00    +0.000 C 
ATOM      8  C   UNL     1       5.343   5.574  17.627  0.00  0.00    +0.000 C 
ATOM      9  C   UNL     1       3.849   5.316  17.599  0.00  0.00    +0.000 C 
ENDROOT
BRANCH   9  10
ATOM     10  C   UNL     1       3.119   6.532  18.207  0.00  0.00    +0.000 A 
ATOM     11  C   UNL     1       2.782   6.527  19.571  0.00  0.00    +0.000 A 
ATOM     12  C   UNL     1       2.026   7.562  20.120  0.00  0.00    +0.000 A 
ATOM     13  C   UNL     1       1.614   8.621  19.304  0.00  0.00    +0.000 A 
ATOM     14  C   UNL     1       1.975   8.665  17.952  0.00  0.00    +0.000 A 
ATOM     15  C   UNL     1       2.731   7.625  17.409  0.00  0.00    +0.000 A 
BRANCH  13  16
ATOM     16  N   UNL     1       0.778   9.687  19.870  0.00  0.00    +0.000 N 
ATOM     17  O   UNL     1       1.032  10.855  19.541  0.00  0.00    +0.000 OA
ATOM     18  O   UNL     1      -0.131   9.358  20.644  0.00  0.00    +0.000 OA
ENDBRANCH  13  16
ENDBRANCH   9  10
BRANCH   1  19
ATOM     19  O   UNL     1       1.247   4.266  17.358  0.00  0.00    +0.000 OA
ATOM     20  H   UNL     1       0.779   4.895  17.933  0.00  0.00    +0.000 HD
ENDBRANCH   1  19
BRANCH   8  21
ATOM     21  C   UNL     1       5.868   6.768  16.892  0.00  0.00    +0.000 C 
ATOM     22  O   UNL     1       5.905   6.880  15.677  0.00  0.00    +0.000 OA
BRANCH  21  23
ATOM     23  O   UNL     1       6.315   7.716  17.759  0.00  0.00    +0.000 OA
ATOM     24  C   UNL     1       7.621   8.215  17.452  0.00  0.00    +0.000 C 
ENDBRANCH  21  23
ENDBRANCH   8  21
BRANCH   1  25
ATOM     25  O   UNL     1       1.632   2.573  18.948  0.00  0.00    +0.000 OA
BRANCH  25  27
ATOM     26  C   UNL     1       1.289   3.404  21.133  0.00  0.00    +0.000 C 
ATOM     27  C   UNL     1       0.600   2.874  19.886  0.00  0.00    +0.000 C 
ENDBRANCH  25  27
ENDBRANCH   1  25
TORSDOF 7
ENDMDL
MODEL 3
REMARK VINA RESULT:      -7.8      0.592      1.563
REMARK  Name = 
REMARK  11 active torsions:
REMARK  status: ('A' for Active; 'I' for Inactive)
REMARK    1  A    between atoms: C_1  and  C_2
REMARK    2  A    between atoms: C_2  and  O_3
REMARK    3  A    between atoms: O_3  and  C_4
REMARK    4  A    between atoms: C_4  and  O_5
REMARK    5  A    between atoms: C_7  and  C_8
REMARK    6  A    between atoms: C_10  and  C_11
REMARK    7  A    between atoms: C_12  and  C_13
REMARK    8  A    between atoms: C_13  and  O_15
REMARK    9  A    between atoms: O_15  and  C_16
REMARK   10  A    between atoms: C_17  and  C_18
REMARK   11  A    between atoms: C_21  and  N_22
REMARK                            x       y       z     vdW  Elec       q    Type
REMARK                         _______ _______ _______ _____ _____    ______ ____
ROOT
ATOM      1  C   UNL     1       2.212   3.425  18.100  0.00  0.00    +0.000 C 
ATOM      2  C   UNL     1       3.457   3.934  18.261  0.00  0.00    +0.000 C 
ATOM      3  C   UNL     1       4.547   3.335  19.108  0.00  0.00    +0.000 C 
ATOM      4  C   UNL     1       4.367   2.075  19.941  0.00  0.00    +0.000 C 
ATOM      5  N   UNL     1       5.755   3.806  19.191  0.00  0.00    +0.000 NA
ATOM      6  C   UNL     1       6.153   4.901  18.474  0.00  0.00    +0.000 C 
ATOM      7  C   UNL     1       7.605   5.252  18.702  0.00  0.00    +0.000 C 
ATOM      8  C   UNL     1       5.326   5.599  17.678  0.00  0.00    +0.000 C 
ATOM      9  C   UNL     1       3.853   5.252  17.585  0.00  0.00    +0.000 C 
ENDROOT
BRANCH   9  10
ATOM     10  C   UNL     1       3.025   6.427  18.146  0.00  0.00    +0.000 A 
ATOM     11  C   UNL     1       2.646   7.477  17.295  0.00  0.00    +0.000 A 
ATOM     12  C   UNL     1       1.994   8.602  17.800  0.00  0.00    +0.000 A 
ATOM     13  C   UNL     1       1.705   8.674  19.167  0.00  0.00    +0.000 A 
ATOM     14  C   UNL     1       2.038   7.618  20.024  0.00  0.00    +0.000 A 
ATOM     15  C   UNL     1       2.692   6.497  19.513  0.00  0.00    +0.000 A 
BRANCH  13  16
ATOM     16  N   UNL     1       1.062   9.878  19.708  0.00  0.00    +0.000 N 
ATOM     17  O   UNL     1       0.393   9.757  20.745  0.00  0.00    +0.000 OA
ATOM     18  O   UNL     1       1.223  10.942  19.096  0.00  0.00    +0.000 OA
ENDBRANCH  13  16
ENDBRANCH   9  10
BRANCH   1  19
ATOM     19  O   UNL     1       1.332   4.046  17.237  0.00  0.00    +0.000 OA
ATOM     20  H   UNL     1       1.599   3.776  16.341  0.00  0.00    +0.000 HD
ENDBRANCH   1  19
BRANCH   8  21
ATOM     21  C   UNL     1       5.812   6.817  16.956  0.00  0.00    +0.000 C 
ATOM     22  O   UNL     1       5.819   6.954  15.742  0.00  0.00    +0.000 OA
BRANCH  21  23
ATOM     23  O   UNL     1       6.262   7.756  17.831  0.00  0.00    +0.000 OA
ATOM     24  C   UNL     1       7.535   8.312  17.485  0.00  0.00    +0.000 C 
ENDBRANCH  21  23
ENDBRANCH   8  21
BRANCH   1  25
ATOM     25  O   UNL     1       1.744   2.391  18.860  0.00  0.00    +0.000 OA
BRANCH  25  27
ATOM     26  C   UNL     1       1.168   3.413  20.911  0.00  0.00    +0.000 C 
ATOM     27  C   UNL     1       0.633   2.628  19.723  0.00  0.00    +0.000 C 
ENDBRANCH  25  27
ENDBRANCH   1  25
TORSDOF 7
ENDMDL
MODEL 4
REMARK VINA RESULT:      -7.1      2.065      6.202
REMARK  Name = 
REMARK  11 active torsions:
REMARK  status: ('A' for Active; 'I' for Inactive)
REMARK    1  A    between atoms: C_1  and  C_2
REMARK    2  A    between atoms: C_2  and  O_3
REMARK    3  A    between atoms: O_3  and  C_4
REMARK    4  A    between atoms: C_4  and  O_5
REMARK    5  A    between atoms: C_7  and  C_8
REMARK    6  A    between atoms: C_10  and  C_11
REMARK    7  A    between atoms: C_12  and  C_13
REMARK    8  A    between atoms: C_13  and  O_15
REMARK    9  A    between atoms: O_15  and  C_16
REMARK   10  A    between atoms: C_17  and  C_18
REMARK   11  A    between atoms: C_21  and  N_22
REMARK                            x       y       z     vdW  Elec       q    Type
REMARK                         _______ _______ _______ _____ _____    ______ ____
ROOT
ATOM      1  C   UNL     1       2.162   8.008  18.345  0.00  0.00    +0.000 C 
ATOM      2  C   UNL     1       2.008   6.877  19.073  0.00  0.00    +0.000 C 
ATOM      3  C   UNL     1       1.647   6.815  20.534  0.00  0.00    +0.000 C 
ATOM      4  C   UNL     1       1.448   8.048  21.402  0.00  0.00    +0.000 C 
ATOM      5  N   UNL     1       1.437   5.716  21.191  0.00  0.00    +0.000 NA
ATOM      6  C   UNL     1       1.502   4.489  20.588  0.00  0.00    +0.000 C 
ATOM      7  C   UNL     1       1.193   3.354  21.536  0.00  0.00    +0.000 C 
ATOM      8  C   UNL     1       1.835   4.322  19.297  0.00  0.00    +0.000 C 
ATOM      9  C   UNL     1       2.240   5.502  18.435  0.00  0.00    +0.000 C 
ENDROOT
BRANCH   9  10
ATOM     10  C   UNL     1       3.716   5.334  18.018  0.00  0.00    +0.000 A 
ATOM     11  C   UNL     1       4.025   4.941  16.705  0.00  0.00    +0.000 A 
ATOM     12  C   UNL     1       5.342   4.676  16.334  0.00  0.00    +0.000 A 
ATOM     13  C   UNL     1       6.365   4.816  17.278  0.00  0.00    +0.000 A 
ATOM     14  C   UNL     1       6.082   5.247  18.580  0.00  0.00    +0.000 A 
ATOM     15  C   UNL     1       4.761   5.510  18.945  0.00  0.00    +0.000 A 
BRANCH  13  16
ATOM     16  N   UNL     1       7.747   4.491  16.902  0.00  0.00    +0.000 N 
ATOM     17  O   UNL     1       8.509   4.094  17.796  0.00  0.00    +0.000 OA
ATOM     18  O   UNL     1       8.070   4.633  15.715  0.00  0.00    +0.000 OA
ENDBRANCH  13  16
ENDBRANCH   9  10
BRANCH   1  19
ATOM     19  O   UNL     1       2.428   7.914  16.994  0.00  0.00    +0.000 OA
ATOM     20  H   UNL     1       2.380   6.968  16.776  0.00  0.00    +0.000 HD
ENDBRANCH   1  19
BRANCH   8  21
ATOM     21  C   UNL     1       1.934   2.950  18.708  0.00  0.00    +0.000 C 
ATOM     22  O   UNL     1       1.096   2.440  17.980  0.00  0.00    +0.000 OA
BRANCH  21  23
ATOM     23  O   UNL     1       3.080   2.331  19.101  0.00  0.00    +0.000 OA
ATOM     24  C   UNL     1       3.670   1.504  18.092  0.00  0.00    +0.000 C 
ENDBRANCH  21  23
ENDBRANCH   8  21
BRANCH   1  25
ATOM     25  O   UNL     1       2.195   9.246  18.921  0.00  0.00    +0.000 OA
BRANCH  25  27
ATOM     26  C   UNL     1       0.953  11.255  18.994  0.00  0.00    +0.000 C 
ATOM     27  C   UNL     1       1.843  10.378  18.127  0.00  0.00    +0.000 C 
ENDBRANCH  25  27
ENDBRANCH   1  25
TORSDOF 7
ENDMDL
MODEL 5
REMARK VINA RESULT:      -6.8      2.037      6.086
REMARK  Name = 
REMARK  11 active torsions:
REMARK  status: ('A' for Active; 'I' for Inactive)
REMARK    1  A    between atoms: C_1  and  C_2
REMARK    2  A    between atoms: C_2  and  O_3
REMARK    3  A    between atoms: O_3  and  C_4
REMARK    4  A    between atoms: C_4  and  O_5
REMARK    5  A    between atoms: C_7  and  C_8
REMARK    6  A    between atoms: C_10  and  C_11
REMARK    7  A    between atoms: C_12  and  C_13
REMARK    8  A    between atoms: C_13  and  O_15
REMARK    9  A    between atoms: O_15  and  C_16
REMARK   10  A    between atoms: C_17  and  C_18
REMARK   11  A    between atoms: C_21  and  N_22
REMARK                            x       y       z     vdW  Elec       q    Type
REMARK                         _______ _______ _______ _____ _____    ______ ____
ROOT
ATOM      1  C   UNL     1       2.143   7.774  18.300  0.00  0.00    +0.000 C 
ATOM      2  C   UNL     1       2.009   6.667  19.069  0.00  0.00    +0.000 C 
ATOM      3  C   UNL     1       1.767   6.655  20.555  0.00  0.00    +0.000 C 
ATOM      4  C   UNL     1       1.683   7.916  21.402  0.00  0.00    +0.000 C 
ATOM      5  N   UNL     1       1.573   5.581  21.258  0.00  0.00    +0.000 NA
ATOM      6  C   UNL     1       1.545   4.339  20.685  0.00  0.00    +0.000 C 
ATOM      7  C   UNL     1       1.275   3.240  21.686  0.00  0.00    +0.000 C 
ATOM      8  C   UNL     1       1.766   4.127  19.377  0.00  0.00    +0.000 C 
ATOM      9  C   UNL     1       2.140   5.269  18.452  0.00  0.00    +0.000 C 
ENDROOT
BRANCH   9  10
ATOM     10  C   UNL     1       3.571   5.037  17.923  0.00  0.00    +0.000 A 
ATOM     11  C   UNL     1       4.671   5.435  18.700  0.00  0.00    +0.000 A 
ATOM     12  C   UNL     1       5.968   5.337  18.198  0.00  0.00    +0.000 A 
ATOM     13  C   UNL     1       6.172   4.825  16.912  0.00  0.00    +0.000 A 
ATOM     14  C   UNL     1       5.091   4.385  16.138  0.00  0.00    +0.000 A 
ATOM     15  C   UNL     1       3.796   4.486  16.646  0.00  0.00    +0.000 A 
BRANCH  13  16
ATOM     16  N   UNL     1       7.533   4.766  16.364  0.00  0.00    +0.000 N 
ATOM     17  O   UNL     1       8.403   4.200  17.042  0.00  0.00    +0.000 OA
ATOM     18  O   UNL     1       7.733   5.287  15.258  0.00  0.00    +0.000 OA
ENDBRANCH  13  16
ENDBRANCH   9  10
BRANCH   1  19
ATOM     19  O   UNL     1       2.296   7.637  16.935  0.00  0.00    +0.000 OA
ATOM     20  H   UNL     1       1.960   8.461  16.543  0.00  0.00    +0.000 HD
ENDBRANCH   1  19
BRANCH   8  21
ATOM     21  C   UNL     1       1.768   2.738  18.820  0.00  0.00    +0.000 C 
ATOM     22  O   UNL     1       0.936   2.295  18.043  0.00  0.00    +0.000 OA
BRANCH  21  23
ATOM     23  O   UNL     1       2.818   2.020  19.303  0.00  0.00    +0.000 OA
ATOM     24  C   UNL     1       3.592   1.368  18.291  0.00  0.00    +0.000 C 
ENDBRANCH  21  23
ENDBRANCH   8  21
BRANCH   1  25
ATOM     25  O   UNL     1       2.267   9.024  18.837  0.00  0.00    +0.000 OA
BRANCH  25  27
ATOM     26  C   UNL     1       0.211  10.186  18.755  0.00  0.00    +0.000 C 
ATOM     27  C   UNL     1       1.619  10.114  18.184  0.00  0.00    +0.000 C 
ENDBRANCH  25  27
ENDBRANCH   1  25
TORSDOF 7
ENDMDL
MODEL 6
REMARK VINA RESULT:      -6.6      3.840      7.224
REMARK  Name = 
REMARK  11 active torsions:
REMARK  status: ('A' for Active; 'I' for Inactive)
REMARK    1  A    between atoms: C_1  and  C_2
REMARK    2  A    between atoms: C_2  and  O_3
REMARK    3  A    between atoms: O_3  and  C_4
REMARK    4  A    between atoms: C_4  and  O_5
REMARK    5  A    between atoms: C_7  and  C_8
REMARK    6  A    between atoms: C_10  and  C_11
REMARK    7  A    between atoms: C_12  and  C_13
REMARK    8  A    between atoms: C_13  and  O_15
REMARK    9  A    between atoms: O_15  and  C_16
REMARK   10  A    between atoms: C_17  and  C_18
REMARK   11  A    between atoms: C_21  and  N_22
REMARK                            x       y       z     vdW  Elec       q    Type
REMARK                         _______ _______ _______ _____ _____    ______ ____
ROOT
ATOM      1  C   UNL     1       2.003   8.929  18.235  0.00  0.00    +0.000 C 
ATOM      2  C   UNL     1       1.428   9.107  19.448  0.00  0.00    +0.000 C 
ATOM      3  C   UNL     1       1.340   8.072  20.538  0.00  0.00    +0.000 C 
ATOM      4  C   UNL     1       1.862   6.651  20.390  0.00  0.00    +0.000 C 
ATOM      5  N   UNL     1       0.845   8.289  21.718  0.00  0.00    +0.000 NA
ATOM      6  C   UNL     1       0.373   9.519  22.088  0.00  0.00    +0.000 C 
ATOM      7  C   UNL     1      -0.128   9.549  23.513  0.00  0.00    +0.000 C 
ATOM      8  C   UNL     1       0.335  10.573  21.255  0.00  0.00    +0.000 C 
ATOM      9  C   UNL     1       0.753  10.438  19.804  0.00  0.00    +0.000 C 
ENDROOT
BRANCH   9  10
ATOM     10  C   UNL     1      -0.474  10.687  18.904  0.00  0.00    +0.000 A 
ATOM     11  C   UNL     1      -1.369   9.635  18.645  0.00  0.00    +0.000 A 
ATOM     12  C   UNL     1      -2.423   9.804  17.747  0.00  0.00    +0.000 A 
ATOM     13  C   UNL     1      -2.596  11.038  17.111  0.00  0.00    +0.000 A 
ATOM     14  C   UNL     1      -1.739  12.110  17.388  0.00  0.00    +0.000 A 
ATOM     15  C   UNL     1      -0.685  11.935  18.286  0.00  0.00    +0.000 A 
BRANCH  13  16
ATOM     16  N   UNL     1      -3.676  11.201  16.131  0.00  0.00    +0.000 N 
ATOM     17  O   UNL     1      -4.806  11.481  16.560  0.00  0.00    +0.000 OA
ATOM     18  O   UNL     1      -3.397  11.049  14.934  0.00  0.00    +0.000 OA
ENDBRANCH  13  16
ENDBRANCH   9  10
BRANCH   1  19
ATOM     19  O   UNL     1       2.071   9.991  17.355  0.00  0.00    +0.000 OA
ATOM     20  H   UNL     1       1.643   9.688  16.536  0.00  0.00    +0.000 HD
ENDBRANCH   1  19
BRANCH   8  21
ATOM     21  C   UNL     1      -0.236  11.880  21.706  0.00  0.00    +0.000 C 
ATOM     22  O   UNL     1       0.422  12.862  22.014  0.00  0.00    +0.000 OA
BRANCH  21  23
ATOM     23  O   UNL     1      -1.595  11.832  21.744  0.00  0.00    +0.000 OA
ATOM     24  C   UNL     1      -2.166  12.420  22.917  0.00  0.00    +0.000 C 
ENDBRANCH  21  23
ENDBRANCH   8  21
BRANCH   1  25
ATOM     25  O   UNL     1       2.404   7.701  17.791  0.00  0.00    +0.000 OA
BRANCH  25  27
ATOM     26  C   UNL     1       4.017   6.011  17.441  0.00  0.00    +0.000 C 
ATOM     27  C   UNL     1       3.776   7.513  17.451  0.00  0.00    +0.000 C 
ENDBRANCH  25  27
ENDBRANCH   1  25
TORSDOF 7
ENDMDL
MODEL 7
REMARK VINA RESULT:      -6.5      3.794      7.124
REMARK  Name = 
REMARK  11 active torsions:
REMARK  status: ('A' for Active; 'I' for Inactive)
REMARK    1  A    between atoms: C_1  and  C_2
REMARK    2  A    between atoms: C_2  and  O_3
REMARK    3  A    between atoms: O_3  and  C_4
REMARK    4  A    between atoms: C_4  and  O_5
REMARK    5  A    between atoms: C_7  and  C_8
REMARK    6  A    between atoms: C_10  and  C_11
REMARK    7  A    between atoms: C_12  and  C_13
REMARK    8  A    between atoms: C_13  and  O_15
REMARK    9  A    between atoms: O_15  and  C_16
REMARK   10  A    between atoms: C_17  and  C_18
REMARK   11  A    between atoms: C_21  and  N_22
REMARK                            x       y       z     vdW  Elec       q    Type
REMARK                         _______ _______ _______ _____ _____    ______ ____
ROOT
ATOM      1  C   UNL     1       2.050   8.828  18.217  0.00  0.00    +0.000 C 
ATOM      2  C   UNL     1       1.470   9.030  19.425  0.00  0.00    +0.000 C 
ATOM      3  C   UNL     1       1.388   8.020  20.538  0.00  0.00    +0.000 C 
ATOM      4  C   UNL     1       1.923   6.600  20.425  0.00  0.00    +0.000 C 
ATOM      5  N   UNL     1       0.888   8.261  21.712  0.00  0.00    +0.000 NA
ATOM      6  C   UNL     1       0.405   9.495  22.051  0.00  0.00    +0.000 C 
ATOM      7  C   UNL     1      -0.099   9.555  23.474  0.00  0.00    +0.000 C 
ATOM      8  C   UNL     1       0.361  10.529  21.194  0.00  0.00    +0.000 C 
ATOM      9  C   UNL     1       0.784  10.363  19.747  0.00  0.00    +0.000 C 
ENDROOT
BRANCH   9  10
ATOM     10  C   UNL     1      -0.444  10.580  18.838  0.00  0.00    +0.000 A 
ATOM     11  C   UNL     1      -0.653  11.836  18.244  0.00  0.00    +0.000 A 
ATOM     12  C   UNL     1      -1.810  12.091  17.510  0.00  0.00    +0.000 A 
ATOM     13  C   UNL     1      -2.764  11.079  17.355  0.00  0.00    +0.000 A 
ATOM     14  C   UNL     1      -2.555   9.809  17.905  0.00  0.00    +0.000 A 
ATOM     15  C   UNL     1      -1.395   9.561  18.640  0.00  0.00    +0.000 A 
BRANCH  13  16
ATOM     16  N   UNL     1      -4.005  11.361  16.623  0.00  0.00    +0.000 N 
ATOM     17  O   UNL     1      -4.908  11.958  17.228  0.00  0.00    +0.000 OA
ATOM     18  O   UNL     1      -4.078  10.986  15.444  0.00  0.00    +0.000 OA
ENDBRANCH  13  16
ENDBRANCH   9  10
BRANCH   1  19
ATOM     19  O   UNL     1       2.111   9.868  17.313  0.00  0.00    +0.000 OA
ATOM     20  H   UNL     1       2.189   9.457  16.435  0.00  0.00    +0.000 HD
ENDBRANCH   1  19
BRANCH   8  21
ATOM     21  C   UNL     1      -0.222  11.842  21.613  0.00  0.00    +0.000 C 
ATOM     22  O   UNL     1      -1.412  12.056  21.784  0.00  0.00    +0.000 OA
BRANCH  21  23
ATOM     23  O   UNL     1       0.751  12.780  21.768  0.00  0.00    +0.000 OA
ATOM     24  C   UNL     1       0.404  14.069  21.251  0.00  0.00    +0.000 C 
ENDBRANCH  21  23
ENDBRANCH   8  21
BRANCH   1  25
ATOM     25  O   UNL     1       2.461   7.593  17.804  0.00  0.00    +0.000 OA
BRANCH  25  27
ATOM     26  C   UNL     1       4.076   5.910  17.426  0.00  0.00    +0.000 C 
ATOM     27  C   UNL     1       3.834   7.411  17.461  0.00  0.00    +0.000 C 
ENDBRANCH  25  27
ENDBRANCH   1  25
TORSDOF 7
ENDMDL
MODEL 8
REMARK VINA RESULT:      -6.5      3.832      7.201
REMARK  Name = 
REMARK  11 active torsions:
REMARK  status: ('A' for Active; 'I' for Inactive)
REMARK    1  A    between atoms: C_1  and  C_2
REMARK    2  A    between atoms: C_2  and  O_3
REMARK    3  A    between atoms: O_3  and  C_4
REMARK    4  A    between atoms: C_4  and  O_5
REMARK    5  A    between atoms: C_7  and  C_8
REMARK    6  A    between atoms: C_10  and  C_11
REMARK    7  A    between atoms: C_12  and  C_13
REMARK    8  A    between atoms: C_13  and  O_15
REMARK    9  A    between atoms: O_15  and  C_16
REMARK   10  A    between atoms: C_17  and  C_18
REMARK   11  A    between atoms: C_21  and  N_22
REMARK                            x       y       z     vdW  Elec       q    Type
REMARK                         _______ _______ _______ _____ _____    ______ ____
ROOT
ATOM      1  C   UNL     1       2.048   8.857  18.190  0.00  0.00    +0.000 C 
ATOM      2  C   UNL     1       1.475   9.045  19.402  0.00  0.00    +0.000 C 
ATOM      3  C   UNL     1       1.413   8.028  20.511  0.00  0.00    +0.000 C 
ATOM      4  C   UNL     1       1.964   6.616  20.386  0.00  0.00    +0.000 C 
ATOM      5  N   UNL     1       0.919   8.256  21.689  0.00  0.00    +0.000 NA
ATOM      6  C   UNL     1       0.423   9.483  22.039  0.00  0.00    +0.000 C 
ATOM      7  C   UNL     1      -0.072   9.528  23.466  0.00  0.00    +0.000 C 
ATOM      8  C   UNL     1       0.360  10.520  21.188  0.00  0.00    +0.000 C 
ATOM      9  C   UNL     1       0.775  10.368  19.737  0.00  0.00    +0.000 C 
ENDROOT
BRANCH   9  10
ATOM     10  C   UNL     1      -0.462  10.575  18.839  0.00  0.00    +0.000 A 
ATOM     11  C   UNL     1      -0.693  11.833  18.257  0.00  0.00    +0.000 A 
ATOM     12  C   UNL     1      -1.859  12.077  17.532  0.00  0.00    +0.000 A 
ATOM     13  C   UNL     1      -2.799  11.053  17.375  0.00  0.00    +0.000 A 
ATOM     14  C   UNL     1      -2.568   9.782  17.912  0.00  0.00    +0.000 A 
ATOM     15  C   UNL     1      -1.399   9.544  18.637  0.00  0.00    +0.000 A 
BRANCH  13  16
ATOM     16  N   UNL     1      -4.049  11.324  16.653  0.00  0.00    +0.000 N 
ATOM     17  O   UNL     1      -4.179  10.832  15.522  0.00  0.00    +0.000 OA
ATOM     18  O   UNL     1      -4.899  12.028  17.215  0.00  0.00    +0.000 OA
ENDBRANCH  13  16
ENDBRANCH   9  10
BRANCH   1  19
ATOM     19  O   UNL     1       2.090   9.904  17.291  0.00  0.00    +0.000 OA
ATOM     20  H   UNL     1       1.269  10.406  17.425  0.00  0.00    +0.000 HD
ENDBRANCH   1  19
BRANCH   8  21
ATOM     21  C   UNL     1      -0.236  11.824  21.618  0.00  0.00    +0.000 C 
ATOM     22  O   UNL     1       0.403  12.827  21.897  0.00  0.00    +0.000 OA
BRANCH  21  23
ATOM     23  O   UNL     1      -1.593  11.745  21.673  0.00  0.00    +0.000 OA
ATOM     24  C   UNL     1      -2.169  12.409  22.804  0.00  0.00    +0.000 C 
ENDBRANCH  21  23
ENDBRANCH   8  21
BRANCH   1  25
ATOM     25  O   UNL     1       2.472   7.630  17.766  0.00  0.00    +0.000 OA
BRANCH  25  27
ATOM     26  C   UNL     1       4.109   5.965  17.404  0.00  0.00    +0.000 C 
ATOM     27  C   UNL     1       3.847   7.463  17.427  0.00  0.00    +0.000 C 
ENDBRANCH  25  27
ENDBRANCH   1  25
TORSDOF 7
ENDMDL
MODEL 9
REMARK VINA RESULT:      -6.4      4.245      8.898
REMARK  Name = 
REMARK  11 active torsions:
REMARK  status: ('A' for Active; 'I' for Inactive)
REMARK    1  A    between atoms: C_1  and  C_2
REMARK    2  A    between atoms: C_2  and  O_3
REMARK    3  A    between atoms: O_3  and  C_4
REMARK    4  A    between atoms: C_4  and  O_5
REMARK    5  A    between atoms: C_7  and  C_8
REMARK    6  A    between atoms: C_10  and  C_11
REMARK    7  A    between atoms: C_12  and  C_13
REMARK    8  A    between atoms: C_13  and  O_15
REMARK    9  A    between atoms: O_15  and  C_16
REMARK   10  A    between atoms: C_17  and  C_18
REMARK   11  A    between atoms: C_21  and  N_22
REMARK                            x       y       z     vdW  Elec       q    Type
REMARK                         _______ _______ _______ _____ _____    ______ ____
ROOT
ATOM      1  C   UNL     1       2.246  13.098  18.518  0.00  0.00    +0.000 C 
ATOM      2  C   UNL     1       0.947  12.829  18.794  0.00  0.00    +0.000 C 
ATOM      3  C   UNL     1       0.067  13.616  19.727  0.00  0.00    +0.000 C 
ATOM      4  C   UNL     1       0.552  14.816  20.528  0.00  0.00    +0.000 C 
ATOM      5  N   UNL     1      -1.195  13.379  19.921  0.00  0.00    +0.000 NA
ATOM      6  C   UNL     1      -1.852  12.382  19.253  0.00  0.00    +0.000 C 
ATOM      7  C   UNL     1      -3.318  12.306  19.612  0.00  0.00    +0.000 C 
ATOM      8  C   UNL     1      -1.244  11.546  18.395  0.00  0.00    +0.000 C 
ATOM      9  C   UNL     1       0.254  11.613  18.169  0.00  0.00    +0.000 C 
ENDROOT
BRANCH   9  10
ATOM     10  C   UNL     1       0.895  10.301  18.668  0.00  0.00    +0.000 A 
ATOM     11  C   UNL     1       1.573   9.471  17.760  0.00  0.00    +0.000 A 
ATOM     12  C   UNL     1       2.065   8.230  18.161  0.00  0.00    +0.000 A 
ATOM     13  C   UNL     1       1.890   7.816  19.487  0.00  0.00    +0.000 A 
ATOM     14  C   UNL     1       1.253   8.647  20.416  0.00  0.00    +0.000 A 
ATOM     15  C   UNL     1       0.762   9.887  20.007  0.00  0.00    +0.000 A 
BRANCH  13  16
ATOM     16  N   UNL     1       2.364   6.489  19.898  0.00  0.00    +0.000 N 
ATOM     17  O   UNL     1       1.651   5.837  20.675  0.00  0.00    +0.000 OA
ATOM     18  O   UNL     1       3.450   6.099  19.447  0.00  0.00    +0.000 OA
ENDBRANCH  13  16
ENDBRANCH   9  10
BRANCH   1  19
ATOM     19  O   UNL     1       2.915  12.329  17.588  0.00  0.00    +0.000 OA
ATOM     20  H   UNL     1       2.576  12.604  16.719  0.00  0.00    +0.000 HD
ENDBRANCH   1  19
BRANCH   8  21
ATOM     21  C   UNL     1      -2.010  10.445  17.731  0.00  0.00    +0.000 C 
ATOM     22  O   UNL     1      -2.445   9.455  18.298  0.00  0.00    +0.000 OA
BRANCH  21  23
ATOM     23  O   UNL     1      -2.151  10.684  16.399  0.00  0.00    +0.000 OA
ATOM     24  C   UNL     1      -3.491  10.998  16.003  0.00  0.00    +0.000 C 
ENDBRANCH  21  23
ENDBRANCH   8  21
BRANCH   1  25
ATOM     25  O   UNL     1       2.964  14.021  19.224  0.00  0.00    +0.000 OA
BRANCH  25  27
ATOM     26  C   UNL     1       3.086  15.875  17.764  0.00  0.00    +0.000 C 
ATOM     27  C   UNL     1       3.900  14.839  18.523  0.00  0.00    +0.000 C 
ENDBRANCH  25  27
ENDBRANCH   1  25
TORSDOF 7
ENDMDL
