MODEL 1
REMARK VINA RESULT:      -8.3      0.000      0.000
REMARK  Name = 
REMARK  13 active torsions:
REMARK  status: ('A' for Active; 'I' for Inactive)
REMARK    1  A    between atoms: C_1  and  O_2
REMARK    2  A    between atoms: O_2  and  C_3
REMARK    3  A    between atoms: C_5  and  C_6
REMARK    4  A    between atoms: C_7  and  C_8
REMARK    5  A    between atoms: C_8  and  O_10
REMARK    6  A    between atoms: O_10  and  C_11
REMARK    7  A    between atoms: C_11  and  C_12
REMARK    8  A    between atoms: C_11  and  C_13
REMARK    9  A    between atoms: C_18  and  C_19
REMARK   10  A    between atoms: C_19  and  O_21
REMARK   11  A    between atoms: O_21  and  C_22
REMARK   12  A    between atoms: C_22  and  C_23
REMARK   13  A    between atoms: C_31  and  O_32
REMARK                            x       y       z     vdW  Elec       q    Type
REMARK                         _______ _______ _______ _____ _____    ______ ____
ROOT
ATOM      1  C   UNL     1       0.348  10.540  19.651  0.00  0.00    +0.000 C 
ATOM      2  C   UNL     1      -0.252   9.580  20.674  0.00  0.00    +0.000 C 
ENDROOT
BRANCH   1   3
ATOM      3  C   UNL     1      -0.615  11.677  19.328  0.00  0.00    +0.000 C 
ATOM      4  C   UNL     1      -0.094  12.850  18.447  0.00  0.00    +0.000 C 
ATOM      5  O   UNL     1       0.806  13.657  18.459  0.00  0.00    +0.000 OA
ATOM      6  N   UNL     1      -1.119  12.670  17.567  0.00  0.00    +0.000 N 
ATOM      7  C   UNL     1      -1.542  11.483  18.115  0.00  0.00    +0.000 C 
ATOM      8  C   UNL     1      -2.400  10.523  17.747  0.00  0.00    +0.000 C 
ATOM      9  H   UNL     1      -1.319  13.084  16.666  0.00  0.00    +0.000 HD
BRANCH   8  10
ATOM     10  C   UNL     1      -3.155  10.695  16.488  0.00  0.00    +0.000 C 
ATOM     11  O   UNL     1      -2.654  10.886  15.391  0.00  0.00    +0.000 OA
BRANCH  10  12
ATOM     12  O   UNL     1      -4.478  10.635  16.774  0.00  0.00    +0.000 OA
BRANCH  12  13
ATOM     13  C   UNL     1      -5.110  11.895  17.047  0.00  0.00    +0.000 C 
BRANCH  13  14
ATOM     14  C   UNL     1      -5.699  11.879  18.435  0.00  0.00    +0.000 A 
ATOM     15  C   UNL     1      -5.089  12.577  19.487  0.00  0.00    +0.000 A 
ATOM     16  C   UNL     1      -5.644  12.552  20.768  0.00  0.00    +0.000 A 
ATOM     17  C   UNL     1      -6.809  11.827  21.012  0.00  0.00    +0.000 A 
ATOM     18  C   UNL     1      -7.423  11.127  19.974  0.00  0.00    +0.000 A 
ATOM     19  C   UNL     1      -6.869  11.151  18.693  0.00  0.00    +0.000 A 
ENDBRANCH  13  14
ENDBRANCH  12  13
ENDBRANCH  10  12
ENDBRANCH   8  10
ENDBRANCH   1   3
BRANCH   1  20
ATOM     20  O   UNL     1       0.526   9.780  18.425  0.00  0.00    +0.000 OA
BRANCH  20  21
ATOM     21  C   UNL     1       1.777   9.662  17.936  0.00  0.00    +0.000 C 
ATOM     22  O   UNL     1       2.522  10.584  17.633  0.00  0.00    +0.000 OA
BRANCH  21  24
ATOM     23  C   UNL     1       2.434   7.367  18.752  0.00  0.00    +0.000 C 
ATOM     24  C   UNL     1       2.186   8.247  17.766  0.00  0.00    +0.000 C 
BRANCH  23  27
ATOM     25  C   UNL     1       2.920   3.622  19.246  0.00  0.00    +0.000 A 
ATOM     26  C   UNL     1       2.485   4.955  19.405  0.00  0.00    +0.000 A 
ATOM     27  C   UNL     1       2.872   5.974  18.520  0.00  0.00    +0.000 A 
ATOM     28  C   UNL     1       3.734   5.638  17.470  0.00  0.00    +0.000 A 
ATOM     29  C   UNL     1       4.176   4.322  17.296  0.00  0.00    +0.000 A 
ATOM     30  C   UNL     1       3.771   3.319  18.180  0.00  0.00    +0.000 A 
BRANCH  25  32
ATOM     31  C   UNL     1       1.259   3.166  20.911  0.00  0.00    +0.000 C 
ATOM     32  O   UNL     1       2.429   2.775  20.203  0.00  0.00    +0.000 OA
ENDBRANCH  25  32
BRANCH  30  33
ATOM     33  O   UNL     1       4.240   2.052  17.970  0.00  0.00    +0.000 OA
ATOM     34  H   UNL     1       3.503   1.422  18.025  0.00  0.00    +0.000 HD
ENDBRANCH  30  33
ENDBRANCH  23  27
ENDBRANCH  21  24
ENDBRANCH  20  21
ENDBRANCH   1  20
TORSDOF 11
ENDMDL
MODEL 2
REMARK VINA RESULT:      -8.1      3.660     10.941
REMARK  Name = 
REMARK  13 active torsions:
REMARK  status: ('A' for Active; 'I' for Inactive)
REMARK    1  A    between atoms: C_1  and  O_2
REMARK    2  A    between atoms: O_2  and  C_3
REMARK    3  A    between atoms: C_5  and  C_6
REMARK    4  A    between atoms: C_7  and  C_8
REMARK    5  A    between atoms: C_8  and  O_10
REMARK    6  A    between atoms: O_10  and  C_11
REMARK    7  A    between atoms: C_11  and  C_12
REMARK    8  A    between atoms: C_11  and  C_13
REMARK    9  A    between atoms: C_18  and  C_19
REMARK   10  A    between atoms: C_19  and  O_21
REMARK   11  A    between atoms: O_21  and  C_22
REMARK   12  A    between atoms: C_22  and  C_23
REMARK   13  A    between atoms: C_31  and  O_32
REMARK                            x       y       z     vdW  Elec       q    Type
REMARK                         _______ _______ _______ _____ _____    ______ ____
ROOT
ATOM      1  C   UNL     1       2.837   5.242  19.198  0.00  0.00    +0.000 C 
ATOM      2  C   UNL     1       1.516   4.771  19.800  0.00  0.00    +0.000 C 
ENDROOT
BRANCH   1   3
ATOM      3  C   UNL     1       4.022   4.526  19.835  0.00  0.00    +0.000 C 
ATOM      4  C   UNL     1       4.142   2.987  19.634  0.00  0.00    +0.000 C 
ATOM      5  O   UNL     1       3.478   1.997  19.831  0.00  0.00    +0.000 OA
ATOM      6  N   UNL     1       5.401   3.132  19.131  0.00  0.00    +0.000 N 
ATOM      7  C   UNL     1       5.335   4.502  19.034  0.00  0.00    +0.000 C 
ATOM      8  C   UNL     1       6.091   5.447  18.461  0.00  0.00    +0.000 C 
ATOM      9  H   UNL     1       6.039   2.474  18.702  0.00  0.00    +0.000 HD
BRANCH   8  10
ATOM     10  C   UNL     1       7.335   5.038  17.775  0.00  0.00    +0.000 C 
ATOM     11  O   UNL     1       8.201   4.327  18.261  0.00  0.00    +0.000 OA
BRANCH  10  12
ATOM     12  O   UNL     1       7.352   5.610  16.547  0.00  0.00    +0.000 OA
BRANCH  12  13
ATOM     13  C   UNL     1       6.133   5.503  15.798  0.00  0.00    +0.000 C 
BRANCH  13  14
ATOM     14  C   UNL     1       6.422   4.929  14.434  0.00  0.00    +0.000 A 
ATOM     15  C   UNL     1       7.491   5.406  13.661  0.00  0.00    +0.000 A 
ATOM     16  C   UNL     1       7.746   4.866  12.398  0.00  0.00    +0.000 A 
ATOM     17  C   UNL     1       6.935   3.851  11.894  0.00  0.00    +0.000 A 
ATOM     18  C   UNL     1       5.868   3.371  12.653  0.00  0.00    +0.000 A 
ATOM     19  C   UNL     1       5.612   3.909  13.915  0.00  0.00    +0.000 A 
ENDBRANCH  13  14
ENDBRANCH  12  13
ENDBRANCH  10  12
ENDBRANCH   8  10
ENDBRANCH   1   3
BRANCH   1  20
ATOM     20  O   UNL     1       2.966   6.650  19.535  0.00  0.00    +0.000 OA
BRANCH  20  21
ATOM     21  C   UNL     1       2.784   7.551  18.548  0.00  0.00    +0.000 C 
ATOM     22  O   UNL     1       3.477   7.674  17.547  0.00  0.00    +0.000 OA
BRANCH  21  24
ATOM     23  C   UNL     1       1.059   9.282  17.920  0.00  0.00    +0.000 C 
ATOM     24  C   UNL     1       1.626   8.441  18.803  0.00  0.00    +0.000 C 
BRANCH  23  27
ATOM     25  C   UNL     1      -1.049  11.921  19.679  0.00  0.00    +0.000 A 
ATOM     26  C   UNL     1       0.026  11.087  19.306  0.00  0.00    +0.000 A 
ATOM     27  C   UNL     1      -0.076  10.172  18.245  0.00  0.00    +0.000 A 
ATOM     28  C   UNL     1      -1.297  10.087  17.567  0.00  0.00    +0.000 A 
ATOM     29  C   UNL     1      -2.374  10.906  17.922  0.00  0.00    +0.000 A 
ATOM     30  C   UNL     1      -2.251  11.818  18.973  0.00  0.00    +0.000 A 
BRANCH  25  32
ATOM     31  C   UNL     1      -0.245  14.045  20.439  0.00  0.00    +0.000 C 
ATOM     32  O   UNL     1      -0.754  12.748  20.729  0.00  0.00    +0.000 OA
ENDBRANCH  25  32
BRANCH  30  33
ATOM     33  O   UNL     1      -3.338  12.587  19.285  0.00  0.00    +0.000 OA
ATOM     34  H   UNL     1      -3.206  13.486  18.941  0.00  0.00    +0.000 HD
ENDBRANCH  30  33
ENDBRANCH  23  27
ENDBRANCH  21  24
ENDBRANCH  20  21
ENDBRANCH   1  20
TORSDOF 11
ENDMDL
MODEL 3
REMARK VINA RESULT:      -8.1      3.599     10.991
REMARK  Name = 
REMARK  13 active torsions:
REMARK  status: ('A' for Active; 'I' for Inactive)
REMARK    1  A    between atoms: C_1  and  O_2
REMARK    2  A    between atoms: O_2  and  C_3
REMARK    3  A    between atoms: C_5  and  C_6
REMARK    4  A    between atoms: C_7  and  C_8
REMARK    5  A    between atoms: C_8  and  O_10
REMARK    6  A    between atoms: O_10  and  C_11
REMARK    7  A    between atoms: C_11  and  C_12
REMARK    8  A    between atoms: C_11  and  C_13
REMARK    9  A    between atoms: C_18  and  C_19
REMARK   10  A    between atoms: C_19  and  O_21
REMARK   11  A    between atoms: O_21  and  C_22
REMARK   12  A    between atoms: C_22  and  C_23
REMARK   13  A    between atoms: C_31  and  O_32
REMARK                            x       y       z     vdW  Elec       q    Type
REMARK                         _______ _______ _______ _____ _____    ______ ____
ROOT
ATOM      1  C   UNL     1       2.934   5.192  18.018  0.00  0.00    +0.000 C 
ATOM      2  C   UNL     1       1.763   4.213  18.021  0.00  0.00    +0.000 C 
ENDROOT
BRANCH   1   3
ATOM      3  C   UNL     1       3.948   4.846  19.101  0.00  0.00    +0.000 C 
ATOM      4  C   UNL     1       4.067   3.358  19.543  0.00  0.00    +0.000 C 
ATOM      5  O   UNL     1       3.352   2.486  19.978  0.00  0.00    +0.000 OA
ATOM      6  N   UNL     1       5.405   3.367  19.280  0.00  0.00    +0.000 N 
ATOM      7  C   UNL     1       5.394   4.586  18.646  0.00  0.00    +0.000 C 
ATOM      8  C   UNL     1       6.274   5.277  17.908  0.00  0.00    +0.000 C 
ATOM      9  H   UNL     1       6.099   2.631  19.275  0.00  0.00    +0.000 HD
BRANCH   8  10
ATOM     10  C   UNL     1       7.619   4.705  17.693  0.00  0.00    +0.000 C 
ATOM     11  O   UNL     1       8.372   4.333  18.580  0.00  0.00    +0.000 OA
BRANCH  10  12
ATOM     12  O   UNL     1       7.871   4.697  16.362  0.00  0.00    +0.000 OA
BRANCH  12  13
ATOM     13  C   UNL     1       7.006   5.518  15.564  0.00  0.00    +0.000 C 
BRANCH  13  14
ATOM     14  C   UNL     1       6.629   4.785  14.301  0.00  0.00    +0.000 A 
ATOM     15  C   UNL     1       5.398   4.125  14.190  0.00  0.00    +0.000 A 
ATOM     16  C   UNL     1       5.062   3.448  13.015  0.00  0.00    +0.000 A 
ATOM     17  C   UNL     1       5.954   3.420  11.945  0.00  0.00    +0.000 A 
ATOM     18  C   UNL     1       7.183   4.071  12.045  0.00  0.00    +0.000 A 
ATOM     19  C   UNL     1       7.520   4.748  13.219  0.00  0.00    +0.000 A 
ENDBRANCH  13  14
ENDBRANCH  12  13
ENDBRANCH  10  12
ENDBRANCH   8  10
ENDBRANCH   1   3
BRANCH   1  20
ATOM     20  O   UNL     1       2.385   6.495  18.357  0.00  0.00    +0.000 OA
BRANCH  20  21
ATOM     21  C   UNL     1       2.909   7.576  17.745  0.00  0.00    +0.000 C 
ATOM     22  O   UNL     1       3.839   7.574  16.950  0.00  0.00    +0.000 OA
BRANCH  21  24
ATOM     23  C   UNL     1       0.921   9.084  18.120  0.00  0.00    +0.000 C 
ATOM     24  C   UNL     1       2.242   8.836  18.155  0.00  0.00    +0.000 C 
BRANCH  23  27
ATOM     25  C   UNL     1      -1.696  11.748  18.866  0.00  0.00    +0.000 A 
ATOM     26  C   UNL     1      -1.079  10.520  18.545  0.00  0.00    +0.000 A 
ATOM     27  C   UNL     1       0.317  10.376  18.510  0.00  0.00    +0.000 A 
ATOM     28  C   UNL     1       1.100  11.503  18.785  0.00  0.00    +0.000 A 
ATOM     29  C   UNL     1       0.507  12.728  19.106  0.00  0.00    +0.000 A 
ATOM     30  C   UNL     1      -0.883  12.851  19.146  0.00  0.00    +0.000 A 
BRANCH  25  32
ATOM     31  C   UNL     1      -3.719  11.555  17.599  0.00  0.00    +0.000 C 
ATOM     32  O   UNL     1      -3.063  11.687  18.855  0.00  0.00    +0.000 OA
ENDBRANCH  25  32
BRANCH  30  33
ATOM     33  O   UNL     1      -1.411  14.074  19.456  0.00  0.00    +0.000 OA
ATOM     34  H   UNL     1      -2.030  13.979  20.197  0.00  0.00    +0.000 HD
ENDBRANCH  30  33
ENDBRANCH  23  27
ENDBRANCH  21  24
ENDBRANCH  20  21
ENDBRANCH   1  20
TORSDOF 11
ENDMDL
MODEL 4
REMARK VINA RESULT:      -7.8      4.358     11.023
REMARK  Name = 
REMARK  13 active torsions:
REMARK  status: ('A' for Active; 'I' for Inactive)
REMARK    1  A    between atoms: C_1  and  O_2
REMARK    2  A    between atoms: O_2  and  C_3
REMARK    3  A    between atoms: C_5  and  C_6
REMARK    4  A    between atoms: C_7  and  C_8
REMARK    5  A    between atoms: C_8  and  O_10
REMARK    6  A    between atoms: O_10  and  C_11
REMARK    7  A    between atoms: C_11  and  C_12
REMARK    8  A    between atoms: C_11  and  C_13
REMARK    9  A    between atoms: C_18  and  C_19
REMARK   10  A    between atoms: C_19  and  O_21
REMARK   11  A    between atoms: O_21  and  C_22
REMARK   12  A    between atoms: C_22  and  C_23
REMARK   13  A    between atoms: C_31  and  O_32
REMARK                            x       y       z     vdW  Elec       q    Type
REMARK                         _______ _______ _______ _____ _____    ______ ____
ROOT
ATOM      1  C   UNL     1       2.287   4.839  19.445  0.00  0.00    +0.000 C 
ATOM      2  C   UNL     1       0.935   4.287  19.888  0.00  0.00    +0.000 C 
ENDROOT
BRANCH   1   3
ATOM      3  C   UNL     1       3.430   3.951  19.922  0.00  0.00    +0.000 C 
ATOM      4  C   UNL     1       3.546   2.520  19.319  0.00  0.00    +0.000 C 
ATOM      5  O   UNL     1       2.863   1.529  19.210  0.00  0.00    +0.000 OA
ATOM      6  N   UNL     1       4.831   2.765  18.934  0.00  0.00    +0.000 N 
ATOM      7  C   UNL     1       4.783   4.112  19.207  0.00  0.00    +0.000 C 
ATOM      8  C   UNL     1       5.577   5.159  18.947  0.00  0.00    +0.000 C 
ATOM      9  H   UNL     1       5.484   2.232  18.375  0.00  0.00    +0.000 HD
BRANCH   8  10
ATOM     10  C   UNL     1       6.851   4.920  18.237  0.00  0.00    +0.000 C 
ATOM     11  O   UNL     1       7.960   5.006  18.740  0.00  0.00    +0.000 OA
BRANCH  10  12
ATOM     12  O   UNL     1       6.570   4.626  16.945  0.00  0.00    +0.000 OA
BRANCH  12  13
ATOM     13  C   UNL     1       7.206   5.462  15.967  0.00  0.00    +0.000 C 
BRANCH  13  14
ATOM     14  C   UNL     1       6.972   4.900  14.587  0.00  0.00    +0.000 A 
ATOM     15  C   UNL     1       7.746   5.320  13.496  0.00  0.00    +0.000 A 
ATOM     16  C   UNL     1       7.517   4.793  12.223  0.00  0.00    +0.000 A 
ATOM     17  C   UNL     1       6.512   3.847  12.027  0.00  0.00    +0.000 A 
ATOM     18  C   UNL     1       5.736   3.424  13.105  0.00  0.00    +0.000 A 
ATOM     19  C   UNL     1       5.962   3.950  14.378  0.00  0.00    +0.000 A 
ENDBRANCH  13  14
ENDBRANCH  12  13
ENDBRANCH  10  12
ENDBRANCH   8  10
ENDBRANCH   1   3
BRANCH   1  20
ATOM     20  O   UNL     1       2.448   6.122  20.109  0.00  0.00    +0.000 OA
BRANCH  20  21
ATOM     21  C   UNL     1       2.426   7.232  19.343  0.00  0.00    +0.000 C 
ATOM     22  O   UNL     1       2.894   7.341  18.218  0.00  0.00    +0.000 OA
BRANCH  21  24
ATOM     23  C   UNL     1       0.713   8.310  20.849  0.00  0.00    +0.000 C 
ATOM     24  C   UNL     1       1.773   8.376  20.025  0.00  0.00    +0.000 C 
BRANCH  23  27
ATOM     25  C   UNL     1      -0.396  11.907  21.424  0.00  0.00    +0.000 A 
ATOM     26  C   UNL     1       0.150  10.745  20.841  0.00  0.00    +0.000 A 
ATOM     27  C   UNL     1       0.083   9.493  21.474  0.00  0.00    +0.000 A 
ATOM     28  C   UNL     1      -0.528   9.425  22.731  0.00  0.00    +0.000 A 
ATOM     29  C   UNL     1      -1.076  10.567  23.325  0.00  0.00    +0.000 A 
ATOM     30  C   UNL     1      -1.010  11.802  22.676  0.00  0.00    +0.000 A 
BRANCH  25  32
ATOM     31  C   UNL     1       1.048  13.290  20.106  0.00  0.00    +0.000 C 
ATOM     32  O   UNL     1      -0.239  13.027  20.653  0.00  0.00    +0.000 OA
ENDBRANCH  25  32
BRANCH  30  33
ATOM     33  O   UNL     1      -1.552  12.888  23.306  0.00  0.00    +0.000 OA
ATOM     34  H   UNL     1      -1.868  13.522  22.642  0.00  0.00    +0.000 HD
ENDBRANCH  30  33
ENDBRANCH  23  27
ENDBRANCH  21  24
ENDBRANCH  20  21
ENDBRANCH   1  20
TORSDOF 11
ENDMDL
MODEL 5
REMARK VINA RESULT:      -7.8      1.425      2.174
REMARK  Name = 
REMARK  13 active torsions:
REMARK  status: ('A' for Active; 'I' for Inactive)
REMARK    1  A    between atoms: C_1  and  O_2
REMARK    2  A    between atoms: O_2  and  C_3
REMARK    3  A    between atoms: C_5  and  C_6
REMARK    4  A    between atoms: C_7  and  C_8
REMARK    5  A    between atoms: C_8  and  O_10
REMARK    6  A    between atoms: O_10  and  C_11
REMARK    7  A    between atoms: C_11  and  C_12
REMARK    8  A    between atoms: C_11  and  C_13
REMARK    9  A    between atoms: C_18  and  C_19
REMARK   10  A    between atoms: C_19  and  O_21
REMARK   11  A    between atoms: O_21  and  C_22
REMARK   12  A    between atoms: C_22  and  C_23
REMARK   13  A    between atoms: C_31  and  O_32
REMARK                            x       y       z     vdW  Elec       q    Type
REMARK                         _______ _______ _______ _____ _____    ______ ____
ROOT
ATOM      1  C   UNL     1       0.431  11.018  19.370  0.00  0.00    +0.000 C 
ATOM      2  C   UNL     1       1.255  11.583  20.523  0.00  0.00    +0.000 C 
ENDROOT
BRANCH   1   3
ATOM      3  C   UNL     1      -1.063  11.125  19.652  0.00  0.00    +0.000 C 
ATOM      4  C   UNL     1      -1.663  12.542  19.891  0.00  0.00    +0.000 C 
ATOM      5  O   UNL     1      -1.487  13.483  20.629  0.00  0.00    +0.000 OA
ATOM      6  N   UNL     1      -2.578  12.343  18.901  0.00  0.00    +0.000 N 
ATOM      7  C   UNL     1      -2.000  11.186  18.433  0.00  0.00    +0.000 C 
ATOM      8  C   UNL     1      -2.163  10.420  17.347  0.00  0.00    +0.000 C 
ATOM      9  H   UNL     1      -3.254  12.959  18.470  0.00  0.00    +0.000 HD
BRANCH   8  10
ATOM     10  C   UNL     1      -3.210  10.788  16.372  0.00  0.00    +0.000 C 
ATOM     11  O   UNL     1      -3.001  11.245  15.259  0.00  0.00    +0.000 OA
BRANCH  10  12
ATOM     12  O   UNL     1      -4.419  10.561  16.940  0.00  0.00    +0.000 OA
BRANCH  12  13
ATOM     13  C   UNL     1      -5.308  11.688  16.974  0.00  0.00    +0.000 C 
BRANCH  13  14
ATOM     14  C   UNL     1      -6.062  11.702  18.280  0.00  0.00    +0.000 A 
ATOM     15  C   UNL     1      -6.618  10.527  18.806  0.00  0.00    +0.000 A 
ATOM     16  C   UNL     1      -7.315  10.555  20.016  0.00  0.00    +0.000 A 
ATOM     17  C   UNL     1      -7.468  11.756  20.708  0.00  0.00    +0.000 A 
ATOM     18  C   UNL     1      -6.921  12.930  20.193  0.00  0.00    +0.000 A 
ATOM     19  C   UNL     1      -6.224  12.904  18.984  0.00  0.00    +0.000 A 
ENDBRANCH  13  14
ENDBRANCH  12  13
ENDBRANCH  10  12
ENDBRANCH   8  10
ENDBRANCH   1   3
BRANCH   1  20
ATOM     20  O   UNL     1       0.744   9.600  19.294  0.00  0.00    +0.000 OA
BRANCH  20  21
ATOM     21  C   UNL     1       1.645   9.204  18.374  0.00  0.00    +0.000 C 
ATOM     22  O   UNL     1       1.873   9.753  17.304  0.00  0.00    +0.000 OA
BRANCH  21  24
ATOM     23  C   UNL     1       2.374   6.803  18.110  0.00  0.00    +0.000 C 
ATOM     24  C   UNL     1       2.360   7.969  18.778  0.00  0.00    +0.000 C 
BRANCH  23  27
ATOM     25  C   UNL     1       5.195   4.425  19.053  0.00  0.00    +0.000 A 
ATOM     26  C   UNL     1       4.481   5.574  18.652  0.00  0.00    +0.000 A 
ATOM     27  C   UNL     1       3.079   5.592  18.583  0.00  0.00    +0.000 A 
ATOM     28  C   UNL     1       2.391   4.417  18.904  0.00  0.00    +0.000 A 
ATOM     29  C   UNL     1       3.082   3.267  19.304  0.00  0.00    +0.000 A 
ATOM     30  C   UNL     1       4.476   3.271  19.377  0.00  0.00    +0.000 A 
BRANCH  25  32
ATOM     31  C   UNL     1       7.231   4.680  17.816  0.00  0.00    +0.000 C 
ATOM     32  O   UNL     1       6.552   4.606  19.064  0.00  0.00    +0.000 OA
ENDBRANCH  25  32
BRANCH  30  33
ATOM     33  O   UNL     1       5.101   2.118  19.765  0.00  0.00    +0.000 OA
ATOM     34  H   UNL     1       5.537   1.714  18.998  0.00  0.00    +0.000 HD
ENDBRANCH  30  33
ENDBRANCH  23  27
ENDBRANCH  21  24
ENDBRANCH  20  21
ENDBRANCH   1  20
TORSDOF 11
ENDMDL
MODEL 6
REMARK VINA RESULT:      -7.7      1.487      2.430
REMARK  Name = 
REMARK  13 active torsions:
REMARK  status: ('A' for Active; 'I' for Inactive)
REMARK    1  A    between atoms: C_1  and  O_2
REMARK    2  A    between atoms: O_2  and  C_3
REMARK    3  A    between atoms: C_5  and  C_6
REMARK    4  A    between atoms: C_7  and  C_8
REMARK    5  A    between atoms: C_8  and  O_10
REMARK    6  A    between atoms: O_10  and  C_11
REMARK    7  A    between atoms: C_11  and  C_12
REMARK    8  A    between atoms: C_11  and  C_13
REMARK    9  A    between atoms: C_18  and  C_19
REMARK   10  A    between atoms: C_19  and  O_21
REMARK   11  A    between atoms: O_21  and  C_22
REMARK   12  A    between atoms: C_22  and  C_23
REMARK   13  A    between atoms: C_31  and  O_32
REMARK                            x       y       z     vdW  Elec       q    Type
REMARK                         _______ _______ _______ _____ _____    ______ ____
ROOT
ATOM      1  C   UNL     1       0.846   9.710  19.020  0.00  0.00    +0.000 C 
ATOM      2  C   UNL     1       1.730  10.669  18.228  0.00  0.00    +0.000 C 
ENDROOT
BRANCH   1   3
ATOM      3  C   UNL     1      -0.493  10.351  19.368  0.00  0.00    +0.000 C 
ATOM      4  C   UNL     1      -0.531  11.891  19.590  0.00  0.00    +0.000 C 
ATOM      5  O   UNL     1       0.010  12.716  20.288  0.00  0.00    +0.000 OA
ATOM      6  N   UNL     1      -1.510  12.022  18.651  0.00  0.00    +0.000 N 
ATOM      7  C   UNL     1      -1.411  10.729  18.193  0.00  0.00    +0.000 C 
ATOM      8  C   UNL     1      -1.897  10.058  17.141  0.00  0.00    +0.000 C 
ATOM      9  H   UNL     1      -1.943  12.835  18.231  0.00  0.00    +0.000 HD
BRANCH   8  10
ATOM     10  C   UNL     1      -2.795  10.766  16.205  0.00  0.00    +0.000 C 
ATOM     11  O   UNL     1      -2.821  10.596  14.996  0.00  0.00    +0.000 OA
BRANCH  10  12
ATOM     12  O   UNL     1      -3.546  11.642  16.915  0.00  0.00    +0.000 OA
BRANCH  12  13
ATOM     13  C   UNL     1      -4.966  11.451  16.829  0.00  0.00    +0.000 C 
BRANCH  13  14
ATOM     14  C   UNL     1      -5.572  11.506  18.209  0.00  0.00    +0.000 A 
ATOM     15  C   UNL     1      -6.700  10.740  18.534  0.00  0.00    +0.000 A 
ATOM     16  C   UNL     1      -7.252  10.803  19.816  0.00  0.00    +0.000 A 
ATOM     17  C   UNL     1      -6.686  11.634  20.781  0.00  0.00    +0.000 A 
ATOM     18  C   UNL     1      -5.565  12.401  20.468  0.00  0.00    +0.000 A 
ATOM     19  C   UNL     1      -5.013  12.340  19.188  0.00  0.00    +0.000 A 
ENDBRANCH  13  14
ENDBRANCH  12  13
ENDBRANCH  10  12
ENDBRANCH   8  10
ENDBRANCH   1   3
BRANCH   1  20
ATOM     20  O   UNL     1       1.530   9.458  20.278  0.00  0.00    +0.000 OA
BRANCH  20  21
ATOM     21  C   UNL     1       1.195   8.346  20.963  0.00  0.00    +0.000 C 
ATOM     22  O   UNL     1       0.529   8.305  21.988  0.00  0.00    +0.000 OA
BRANCH  21  24
ATOM     23  C   UNL     1       1.578   5.858  20.791  0.00  0.00    +0.000 C 
ATOM     24  C   UNL     1       1.749   7.116  20.348  0.00  0.00    +0.000 C 
BRANCH  23  27
ATOM     25  C   UNL     1       4.184   3.535  19.271  0.00  0.00    +0.000 A 
ATOM     26  C   UNL     1       3.570   4.627  19.920  0.00  0.00    +0.000 A 
ATOM     27  C   UNL     1       2.186   4.671  20.153  0.00  0.00    +0.000 A 
ATOM     28  C   UNL     1       1.409   3.599  19.698  0.00  0.00    +0.000 A 
ATOM     29  C   UNL     1       2.000   2.507  19.053  0.00  0.00    +0.000 A 
ATOM     30  C   UNL     1       3.380   2.475  18.840  0.00  0.00    +0.000 A 
BRANCH  25  32
ATOM     31  C   UNL     1       6.046   4.896  18.626  0.00  0.00    +0.000 C 
ATOM     32  O   UNL     1       5.540   3.671  19.145  0.00  0.00    +0.000 OA
ENDBRANCH  25  32
BRANCH  30  33
ATOM     33  O   UNL     1       3.904   1.389  18.197  0.00  0.00    +0.000 OA
ATOM     34  H   UNL     1       4.500   0.913  18.798  0.00  0.00    +0.000 HD
ENDBRANCH  30  33
ENDBRANCH  23  27
ENDBRANCH  21  24
ENDBRANCH  20  21
ENDBRANCH   1  20
TORSDOF 11
ENDMDL
MODEL 7
REMARK VINA RESULT:      -7.6      2.772      5.727
REMARK  Name = 
REMARK  13 active torsions:
REMARK  status: ('A' for Active; 'I' for Inactive)
REMARK    1  A    between atoms: C_1  and  O_2
REMARK    2  A    between atoms: O_2  and  C_3
REMARK    3  A    between atoms: C_5  and  C_6
REMARK    4  A    between atoms: C_7  and  C_8
REMARK    5  A    between atoms: C_8  and  O_10
REMARK    6  A    between atoms: O_10  and  C_11
REMARK    7  A    between atoms: C_11  and  C_12
REMARK    8  A    between atoms: C_11  and  C_13
REMARK    9  A    between atoms: C_18  and  C_19
REMARK   10  A    between atoms: C_19  and  O_21
REMARK   11  A    between atoms: O_21  and  C_22
REMARK   12  A    between atoms: C_22  and  C_23
REMARK   13  A    between atoms: C_31  and  O_32
REMARK                            x       y       z     vdW  Elec       q    Type
REMARK                         _______ _______ _______ _____ _____    ______ ____
ROOT
ATOM      1  C   UNL     1       1.848   5.223  20.529  0.00  0.00    +0.000 C 
ATOM      2  C   UNL     1       1.141   4.637  19.311  0.00  0.00    +0.000 C 
ENDROOT
BRANCH   1   3
ATOM      3  C   UNL     1       2.525   6.547  20.193  0.00  0.00    +0.000 C 
ATOM      4  C   UNL     1       2.461   7.048  18.720  0.00  0.00    +0.000 C 
ATOM      5  O   UNL     1       2.760   6.650  17.618  0.00  0.00    +0.000 OA
ATOM      6  N   UNL     1       1.923   8.232  19.125  0.00  0.00    +0.000 N 
ATOM      7  C   UNL     1       1.704   7.828  20.421  0.00  0.00    +0.000 C 
ATOM      8  C   UNL     1       1.033   8.327  21.467  0.00  0.00    +0.000 C 
ATOM      9  H   UNL     1       1.544   9.016  18.610  0.00  0.00    +0.000 HD
BRANCH   8  10
ATOM     10  C   UNL     1       0.364   9.636  21.318  0.00  0.00    +0.000 C 
ATOM     11  O   UNL     1       0.424  10.549  22.127  0.00  0.00    +0.000 OA
BRANCH  10  12
ATOM     12  O   UNL     1      -0.338   9.626  20.160  0.00  0.00    +0.000 OA
BRANCH  12  13
ATOM     13  C   UNL     1      -0.513  10.905  19.532  0.00  0.00    +0.000 C 
BRANCH  13  14
ATOM     14  C   UNL     1      -1.625  10.825  18.516  0.00  0.00    +0.000 A 
ATOM     15  C   UNL     1      -2.792  11.588  18.662  0.00  0.00    +0.000 A 
ATOM     16  C   UNL     1      -3.815  11.503  17.715  0.00  0.00    +0.000 A 
ATOM     17  C   UNL     1      -3.684  10.653  16.617  0.00  0.00    +0.000 A 
ATOM     18  C   UNL     1      -2.528   9.890  16.463  0.00  0.00    +0.000 A 
ATOM     19  C   UNL     1      -1.505   9.973  17.409  0.00  0.00    +0.000 A 
ENDBRANCH  13  14
ENDBRANCH  12  13
ENDBRANCH  10  12
ENDBRANCH   8  10
ENDBRANCH   1   3
BRANCH   1  20
ATOM     20  O   UNL     1       2.905   4.290  20.884  0.00  0.00    +0.000 OA
BRANCH  20  21
ATOM     21  C   UNL     1       3.231   3.340  19.984  0.00  0.00    +0.000 C 
ATOM     22  O   UNL     1       2.813   2.191  19.965  0.00  0.00    +0.000 OA
BRANCH  21  24
ATOM     23  C   UNL     1       4.204   3.546  17.665  0.00  0.00    +0.000 C 
ATOM     24  C   UNL     1       4.208   3.827  18.980  0.00  0.00    +0.000 C 
BRANCH  23  27
ATOM     25  C   UNL     1       6.963   5.685  16.143  0.00  0.00    +0.000 A 
ATOM     26  C   UNL     1       6.008   5.158  17.038  0.00  0.00    +0.000 A 
ATOM     27  C   UNL     1       5.229   4.034  16.718  0.00  0.00    +0.000 A 
ATOM     28  C   UNL     1       5.407   3.450  15.459  0.00  0.00    +0.000 A 
ATOM     29  C   UNL     1       6.349   3.958  14.558  0.00  0.00    +0.000 A 
ATOM     30  C   UNL     1       7.122   5.070  14.898  0.00  0.00    +0.000 A 
BRANCH  25  32
ATOM     31  C   UNL     1       7.711   6.925  18.051  0.00  0.00    +0.000 C 
ATOM     32  O   UNL     1       7.626   6.775  16.638  0.00  0.00    +0.000 OA
ENDBRANCH  25  32
BRANCH  30  33
ATOM     33  O   UNL     1       8.022   5.531  13.977  0.00  0.00    +0.000 OA
ATOM     34  H   UNL     1       7.568   6.109  13.343  0.00  0.00    +0.000 HD
ENDBRANCH  30  33
ENDBRANCH  23  27
ENDBRANCH  21  24
ENDBRANCH  20  21
ENDBRANCH   1  20
TORSDOF 11
ENDMDL
MODEL 8
REMARK VINA RESULT:      -7.5      3.746     10.718
REMARK  Name = 
REMARK  13 active torsions:
REMARK  status: ('A' for Active; 'I' for Inactive)
REMARK    1  A    between atoms: C_1  and  O_2
REMARK    2  A    between atoms: O_2  and  C_3
REMARK    3  A    between atoms: C_5  and  C_6
REMARK    4  A    between atoms: C_7  and  C_8
REMARK    5  A    between atoms: C_8  and  O_10
REMARK    6  A    between atoms: O_10  and  C_11
REMARK    7  A    between atoms: C_11  and  C_12
REMARK    8  A    between atoms: C_11  and  C_13
REMARK    9  A    between atoms: C_18  and  C_19
REMARK   10  A    between atoms: C_19  and  O_21
REMARK   11  A    between atoms: O_21  and  C_22
REMARK   12  A    between atoms: C_22  and  C_23
REMARK   13  A    between atoms: C_31  and  O_32
REMARK                            x       y       z     vdW  Elec       q    Type
REMARK                         _______ _______ _______ _____ _____    ______ ____
ROOT
ATOM      1  C   UNL     1       2.626   4.736  18.375  0.00  0.00    +0.000 C 
ATOM      2  C   UNL     1       2.651   3.667  17.285  0.00  0.00    +0.000 C 
ENDROOT
BRANCH   1   3
ATOM      3  C   UNL     1       4.007   4.933  18.988  0.00  0.00    +0.000 C 
ATOM      4  C   UNL     1       4.898   3.675  19.206  0.00  0.00    +0.000 C 
ATOM      5  O   UNL     1       4.832   2.610  19.775  0.00  0.00    +0.000 OA
ATOM      6  N   UNL     1       5.909   4.242  18.488  0.00  0.00    +0.000 N 
ATOM      7  C   UNL     1       5.153   5.293  18.026  0.00  0.00    +0.000 C 
ATOM      8  C   UNL     1       5.323   6.245  17.099  0.00  0.00    +0.000 C 
ATOM      9  H   UNL     1       6.796   3.879  18.164  0.00  0.00    +0.000 HD
BRANCH   8  10
ATOM     10  C   UNL     1       6.604   6.295  16.365  0.00  0.00    +0.000 C 
ATOM     11  O   UNL     1       7.666   6.672  16.835  0.00  0.00    +0.000 OA
BRANCH  10  12
ATOM     12  O   UNL     1       6.383   5.885  15.093  0.00  0.00    +0.000 OA
BRANCH  12  13
ATOM     13  C   UNL     1       7.175   4.771  14.655  0.00  0.00    +0.000 C 
BRANCH  13  14
ATOM     14  C   UNL     1       6.477   4.064  13.521  0.00  0.00    +0.000 A 
ATOM     15  C   UNL     1       7.206   3.468  12.483  0.00  0.00    +0.000 A 
ATOM     16  C   UNL     1       6.547   2.818  11.438  0.00  0.00    +0.000 A 
ATOM     17  C   UNL     1       5.154   2.762  11.417  0.00  0.00    +0.000 A 
ATOM     18  C   UNL     1       4.418   3.353  12.443  0.00  0.00    +0.000 A 
ATOM     19  C   UNL     1       5.076   4.003  13.488  0.00  0.00    +0.000 A 
ENDBRANCH  13  14
ENDBRANCH  12  13
ENDBRANCH  10  12
ENDBRANCH   8  10
ENDBRANCH   1   3
BRANCH   1  20
ATOM     20  O   UNL     1       1.766   4.230  19.431  0.00  0.00    +0.000 OA
BRANCH  20  21
ATOM     21  C   UNL     1       1.852   4.813  20.644  0.00  0.00    +0.000 C 
ATOM     22  O   UNL     1       2.427   4.359  21.623  0.00  0.00    +0.000 OA
BRANCH  21  24
ATOM     23  C   UNL     1       1.675   7.310  20.965  0.00  0.00    +0.000 C 
ATOM     24  C   UNL     1       1.132   6.109  20.699  0.00  0.00    +0.000 C 
BRANCH  23  27
ATOM     25  C   UNL     1      -0.033  10.546  19.914  0.00  0.00    +0.000 A 
ATOM     26  C   UNL     1       0.663   9.320  19.879  0.00  0.00    +0.000 A 
ATOM     27  C   UNL     1       0.898   8.565  21.040  0.00  0.00    +0.000 A 
ATOM     28  C   UNL     1       0.438   9.076  22.259  0.00  0.00    +0.000 A 
ATOM     29  C   UNL     1      -0.254  10.291  22.313  0.00  0.00    +0.000 A 
ATOM     30  C   UNL     1      -0.488  11.022  21.147  0.00  0.00    +0.000 A 
BRANCH  25  32
ATOM     31  C   UNL     1      -1.424  11.017  18.021  0.00  0.00    +0.000 C 
ATOM     32  O   UNL     1      -0.168  11.128  18.682  0.00  0.00    +0.000 OA
ENDBRANCH  25  32
BRANCH  30  33
ATOM     33  O   UNL     1      -1.161  12.207  21.257  0.00  0.00    +0.000 OA
ATOM     34  H   UNL     1      -1.015  12.738  20.458  0.00  0.00    +0.000 HD
ENDBRANCH  30  33
ENDBRANCH  23  27
ENDBRANCH  21  24
ENDBRANCH  20  21
ENDBRANCH   1  20
TORSDOF 11
ENDMDL
MODEL 9
REMARK VINA RESULT:      -7.3      4.558     10.459
REMARK  Name = 
REMARK  13 active torsions:
REMARK  status: ('A' for Active; 'I' for Inactive)
REMARK    1  A    between atoms: C_1  and  O_2
REMARK    2  A    between atoms: O_2  and  C_3
REMARK    3  A    between atoms: C_5  and  C_6
REMARK    4  A    between atoms: C_7  and  C_8
REMARK    5  A    between atoms: C_8  and  O_10
REMARK    6  A    between atoms: O_10  and  C_11
REMARK    7  A    between atoms: C_11  and  C_12
REMARK    8  A    between atoms: C_11  and  C_13
REMARK    9  A    between atoms: C_18  and  C_19
REMARK   10  A    between atoms: C_19  and  O_21
REMARK   11  A    between atoms: O_21  and  C_22
REMARK   12  A    between atoms: C_22  and  C_23
REMARK   13  A    between atoms: C_31  and  O_32
REMARK                            x       y       z     vdW  Elec       q    Type
REMARK                         _______ _______ _______ _____ _____    ______ ____
ROOT
ATOM      1  C   UNL     1       3.116   1.967  19.941  0.00  0.00    +0.000 C 
ATOM      2  C   UNL     1       4.303   2.668  20.595  0.00  0.00    +0.000 C 
ENDROOT
BRANCH   1   3
ATOM      3  C   UNL     1       3.085   2.219  18.439  0.00  0.00    +0.000 C 
ATOM      4  C   UNL     1       1.863   2.983  17.850  0.00  0.00    +0.000 C 
ATOM      5  O   UNL     1       0.659   2.878  17.826  0.00  0.00    +0.000 OA
ATOM      6  N   UNL     1       2.689   3.903  17.276  0.00  0.00    +0.000 N 
ATOM      7  C   UNL     1       3.821   3.468  17.925  0.00  0.00    +0.000 C 
ATOM      8  C   UNL     1       5.065   3.940  18.075  0.00  0.00    +0.000 C 
ATOM      9  H   UNL     1       2.504   4.771  16.790  0.00  0.00    +0.000 HD
BRANCH   8  10
ATOM     10  C   UNL     1       5.431   5.199  17.393  0.00  0.00    +0.000 C 
ATOM     11  O   UNL     1       5.788   6.222  17.956  0.00  0.00    +0.000 OA
BRANCH  10  12
ATOM     12  O   UNL     1       5.270   5.024  16.059  0.00  0.00    +0.000 OA
BRANCH  12  13
ATOM     13  C   UNL     1       5.845   3.825  15.519  0.00  0.00    +0.000 C 
BRANCH  13  14
ATOM     14  C   UNL     1       6.411   4.104  14.150  0.00  0.00    +0.000 A 
ATOM     15  C   UNL     1       6.017   3.346  13.037  0.00  0.00    +0.000 A 
ATOM     16  C   UNL     1       6.551   3.614  11.775  0.00  0.00    +0.000 A 
ATOM     17  C   UNL     1       7.486   4.636  11.613  0.00  0.00    +0.000 A 
ATOM     18  C   UNL     1       7.885   5.394  12.712  0.00  0.00    +0.000 A 
ATOM     19  C   UNL     1       7.353   5.128  13.975  0.00  0.00    +0.000 A 
ENDBRANCH  13  14
ENDBRANCH  12  13
ENDBRANCH  10  12
ENDBRANCH   8  10
ENDBRANCH   1   3
BRANCH   1  20
ATOM     20  O   UNL     1       1.919   2.577  20.495  0.00  0.00    +0.000 OA
BRANCH  20  21
ATOM     21  C   UNL     1       2.078   3.574  21.389  0.00  0.00    +0.000 C 
ATOM     22  O   UNL     1       2.432   3.449  22.553  0.00  0.00    +0.000 OA
BRANCH  21  24
ATOM     23  C   UNL     1       2.593   5.717  20.160  0.00  0.00    +0.000 C 
ATOM     24  C   UNL     1       1.749   4.903  20.817  0.00  0.00    +0.000 C 
BRANCH  23  27
ATOM     25  C   UNL     1       1.132   9.230  20.005  0.00  0.00    +0.000 A 
ATOM     26  C   UNL     1       1.554   7.968  20.473  0.00  0.00    +0.000 A 
ATOM     27  C   UNL     1       2.214   7.049  19.642  0.00  0.00    +0.000 A 
ATOM     28  C   UNL     1       2.429   7.409  18.307  0.00  0.00    +0.000 A 
ATOM     29  C   UNL     1       2.019   8.657  17.825  0.00  0.00    +0.000 A 
ATOM     30  C   UNL     1       1.374   9.562  18.669  0.00  0.00    +0.000 A 
BRANCH  25  32
ATOM     31  C   UNL     1       0.439   9.462  22.286  0.00  0.00    +0.000 C 
ATOM     32  O   UNL     1       0.516   9.986  20.965  0.00  0.00    +0.000 OA
ENDBRANCH  25  32
BRANCH  30  33
ATOM     33  O   UNL     1       0.986  10.764  18.144  0.00  0.00    +0.000 OA
ATOM     34  H   UNL     1       1.274  11.481  18.731  0.00  0.00    +0.000 HD
ENDBRANCH  30  33
ENDBRANCH  23  27
ENDBRANCH  21  24
ENDBRANCH  20  21
ENDBRANCH   1  20
TORSDOF 11
ENDMDL
