MODEL 1
REMARK VINA RESULT:      -8.8      0.000      0.000
REMARK  Name = 
REMARK  7 active torsions:
REMARK  status: ('A' for Active; 'I' for Inactive)
REMARK    1  A    between atoms: C_1  and  C_2
REMARK    2  A    between atoms: C_4  and  O_5
REMARK    3  A    between atoms: O_5  and  C_6
REMARK    4  A    between atoms: C_11  and  C_12
REMARK    5  A    between atoms: N_14  and  C_15
REMARK    6  A    between atoms: C_20  and  C_21
REMARK    7  A    between atoms: C_21  and  C_22
REMARK                            x       y       z     vdW  Elec       q    Type
REMARK                         _______ _______ _______ _____ _____    ______ ____
ROOT
ATOM      1  C   UNL     1       2.490   7.271  18.757  0.00  0.00    +0.000 A 
ATOM      2  C   UNL     1       3.599   7.375  17.921  0.00  0.00    +0.000 A 
ATOM      3  C   UNL     1       4.261   6.225  17.485  0.00  0.00    +0.000 A 
ATOM      4  C   UNL     1       3.806   4.966  17.868  0.00  0.00    +0.000 A 
ATOM      5  F   UNL     1       4.463   3.891  17.406  0.00  0.00    +0.000 F 
ATOM      6  C   UNL     1       2.701   4.811  18.705  0.00  0.00    +0.000 A 
ATOM      7  C   UNL     1       2.076   5.998  19.172  0.00  0.00    +0.000 A 
ENDROOT
BRANCH   6   8
ATOM      8  C   UNL     1       2.183   3.402  19.105  0.00  0.00    +0.000 C 
ATOM      9  N   UNL     1       3.323   2.451  19.188  0.00  0.00    +0.000 NA
ATOM     10  C   UNL     1       4.003   2.404  20.273  0.00  0.00    +0.000 C 
ATOM     11  N   UNL     1       5.171   1.733  20.365  0.00  0.00    +0.000 N 
ATOM     12  O   UNL     1       3.669   2.984  21.451  0.00  0.00    +0.000 OA
ATOM     13  C   UNL     1       2.303   3.370  21.663  0.00  0.00    +0.000 C 
ATOM     14  C   UNL     1       1.274   2.306  21.383  0.00  0.00    +0.000 C 
ATOM     15  C   UNL     1       1.456   3.483  20.442  0.00  0.00    +0.000 C 
ATOM     16  H   UNL     1       5.288   1.019  19.657  0.00  0.00    +0.000 HD
ATOM     17  H   UNL     1       5.438   1.470  21.303  0.00  0.00    +0.000 HD
BRANCH   8  18
ATOM     18  C   UNL     1       1.185   2.888  18.018  0.00  0.00    +0.000 C 
ATOM     19  F   UNL     1       0.782   3.908  17.208  0.00  0.00    +0.000 F 
ATOM     20  F   UNL     1       0.054   2.384  18.584  0.00  0.00    +0.000 F 
ENDBRANCH   8  18
ENDBRANCH   6   8
BRANCH   1  23
ATOM     21  C   UNL     1       1.447   9.550  18.497  0.00  0.00    +0.000 C 
ATOM     22  O   UNL     1       1.807   9.797  17.352  0.00  0.00    +0.000 OA
ATOM     23  N   UNL     1       1.744   8.390  19.203  0.00  0.00    +0.000 N 
ATOM     24  H   UNL     1       1.284   8.323  20.111  0.00  0.00    +0.000 HD
BRANCH  21  31
ATOM     25  C   UNL     1      -1.444  10.235  17.691  0.00  0.00    +0.000 C 
ATOM     26  C   UNL     1      -0.757  10.824  18.890  0.00  0.00    +0.000 A 
ATOM     27  C   UNL     1      -1.470  11.742  19.686  0.00  0.00    +0.000 A 
ATOM     28  C   UNL     1      -0.871  12.328  20.795  0.00  0.00    +0.000 A 
ATOM     29  C   UNL     1       0.432  11.942  21.093  0.00  0.00    +0.000 A 
ATOM     30  N   UNL     1       1.162  11.064  20.365  0.00  0.00    +0.000 NA
ATOM     31  C   UNL     1       0.563  10.521  19.262  0.00  0.00    +0.000 A 
BRANCH  28  32
ATOM     32  O   UNL     1      -1.448  13.223  21.643  0.00  0.00    +0.000 OA
BRANCH  32  33
ATOM     33  C   UNL     1      -1.236  12.997  23.029  0.00  0.00    +0.000 C 
ATOM     34  F   UNL     1      -0.768  14.138  23.591  0.00  0.00    +0.000 F 
ATOM     35  F   UNL     1      -2.449  12.753  23.585  0.00  0.00    +0.000 F 
ENDBRANCH  32  33
ENDBRANCH  28  32
ENDBRANCH  21  31
ENDBRANCH   1  23
TORSDOF 6
ENDMDL
MODEL 2
REMARK VINA RESULT:      -8.8      1.010      1.263
REMARK  Name = 
REMARK  7 active torsions:
REMARK  status: ('A' for Active; 'I' for Inactive)
REMARK    1  A    between atoms: C_1  and  C_2
REMARK    2  A    between atoms: C_4  and  O_5
REMARK    3  A    between atoms: O_5  and  C_6
REMARK    4  A    between atoms: C_11  and  C_12
REMARK    5  A    between atoms: N_14  and  C_15
REMARK    6  A    between atoms: C_20  and  C_21
REMARK    7  A    between atoms: C_21  and  C_22
REMARK                            x       y       z     vdW  Elec       q    Type
REMARK                         _______ _______ _______ _____ _____    ______ ____
ROOT
ATOM      1  C   UNL     1       2.628   7.370  18.904  0.00  0.00    +0.000 A 
ATOM      2  C   UNL     1       3.561   7.484  17.877  0.00  0.00    +0.000 A 
ATOM      3  C   UNL     1       4.055   6.339  17.247  0.00  0.00    +0.000 A 
ATOM      4  C   UNL     1       3.606   5.078  17.631  0.00  0.00    +0.000 A 
ATOM      5  F   UNL     1       4.096   4.010  16.981  0.00  0.00    +0.000 F 
ATOM      6  C   UNL     1       2.674   4.914  18.655  0.00  0.00    +0.000 A 
ATOM      7  C   UNL     1       2.223   6.091  19.309  0.00  0.00    +0.000 A 
ENDROOT
BRANCH   6   8
ATOM      8  C   UNL     1       2.156   3.505  19.058  0.00  0.00    +0.000 C 
ATOM      9  N   UNL     1       3.296   2.552  19.128  0.00  0.00    +0.000 NA
ATOM     10  C   UNL     1       3.985   2.501  20.206  0.00  0.00    +0.000 C 
ATOM     11  N   UNL     1       5.153   1.828  20.287  0.00  0.00    +0.000 N 
ATOM     12  O   UNL     1       3.663   3.080  21.389  0.00  0.00    +0.000 OA
ATOM     13  C   UNL     1       2.301   3.469  21.614  0.00  0.00    +0.000 C 
ATOM     14  C   UNL     1       1.267   2.407  21.342  0.00  0.00    +0.000 C 
ATOM     15  C   UNL     1       1.442   3.585  20.401  0.00  0.00    +0.000 C 
ATOM     16  H   UNL     1       5.262   1.115  19.576  0.00  0.00    +0.000 HD
ATOM     17  H   UNL     1       5.428   1.563  21.222  0.00  0.00    +0.000 HD
BRANCH   8  18
ATOM     18  C   UNL     1       1.147   2.995  17.979  0.00  0.00    +0.000 C 
ATOM     19  F   UNL     1       0.584   4.040  17.308  0.00  0.00    +0.000 F 
ATOM     20  F   UNL     1       0.117   2.313  18.549  0.00  0.00    +0.000 F 
ENDBRANCH   8  18
ENDBRANCH   6   8
BRANCH   1  23
ATOM     21  C   UNL     1       1.154   9.410  19.032  0.00  0.00    +0.000 C 
ATOM     22  O   UNL     1       0.723   9.408  17.884  0.00  0.00    +0.000 OA
ATOM     23  N   UNL     1       2.050   8.487  19.558  0.00  0.00    +0.000 N 
ATOM     24  H   UNL     1       2.226   8.596  20.557  0.00  0.00    +0.000 HD
BRANCH  21  31
ATOM     25  C   UNL     1      -0.367   8.722  21.619  0.00  0.00    +0.000 C 
ATOM     26  C   UNL     1      -0.006  10.124  21.219  0.00  0.00    +0.000 A 
ATOM     27  C   UNL     1      -0.386  11.181  22.069  0.00  0.00    +0.000 A 
ATOM     28  C   UNL     1      -0.090  12.497  21.733  0.00  0.00    +0.000 A 
ATOM     29  C   UNL     1       0.618  12.710  20.554  0.00  0.00    +0.000 A 
ATOM     30  N   UNL     1       1.010  11.732  19.703  0.00  0.00    +0.000 NA
ATOM     31  C   UNL     1       0.684  10.447  20.039  0.00  0.00    +0.000 A 
BRANCH  28  32
ATOM     32  O   UNL     1      -0.396  13.603  22.464  0.00  0.00    +0.000 OA
BRANCH  32  33
ATOM     33  C   UNL     1      -1.772  13.947  22.530  0.00  0.00    +0.000 C 
ATOM     34  F   UNL     1      -2.392  13.489  21.415  0.00  0.00    +0.000 F 
ATOM     35  F   UNL     1      -2.304  13.274  23.580  0.00  0.00    +0.000 F 
ENDBRANCH  32  33
ENDBRANCH  28  32
ENDBRANCH  21  31
ENDBRANCH   1  23
TORSDOF 6
ENDMDL
MODEL 3
REMARK VINA RESULT:      -8.8      1.130      1.419
REMARK  Name = 
REMARK  7 active torsions:
REMARK  status: ('A' for Active; 'I' for Inactive)
REMARK    1  A    between atoms: C_1  and  C_2
REMARK    2  A    between atoms: C_4  and  O_5
REMARK    3  A    between atoms: O_5  and  C_6
REMARK    4  A    between atoms: C_11  and  C_12
REMARK    5  A    between atoms: N_14  and  C_15
REMARK    6  A    between atoms: C_20  and  C_21
REMARK    7  A    between atoms: C_21  and  C_22
REMARK                            x       y       z     vdW  Elec       q    Type
REMARK                         _______ _______ _______ _____ _____    ______ ____
ROOT
ATOM      1  C   UNL     1       2.602   7.256  18.919  0.00  0.00    +0.000 A 
ATOM      2  C   UNL     1       3.538   7.375  17.895  0.00  0.00    +0.000 A 
ATOM      3  C   UNL     1       4.054   6.232  17.278  0.00  0.00    +0.000 A 
ATOM      4  C   UNL     1       3.622   4.968  17.671  0.00  0.00    +0.000 A 
ATOM      5  F   UNL     1       4.132   3.902  17.033  0.00  0.00    +0.000 F 
ATOM      6  C   UNL     1       2.688   4.798  18.692  0.00  0.00    +0.000 A 
ATOM      7  C   UNL     1       2.215   5.974  19.333  0.00  0.00    +0.000 A 
ENDROOT
BRANCH   6   8
ATOM      8  C   UNL     1       2.190   3.386  19.104  0.00  0.00    +0.000 C 
ATOM      9  N   UNL     1       3.350   2.466  19.251  0.00  0.00    +0.000 NA
ATOM     10  C   UNL     1       3.989   2.460  20.361  0.00  0.00    +0.000 C 
ATOM     11  N   UNL     1       5.170   1.822  20.512  0.00  0.00    +0.000 N 
ATOM     12  O   UNL     1       3.596   3.057  21.513  0.00  0.00    +0.000 OA
ATOM     13  C   UNL     1       2.214   3.412  21.665  0.00  0.00    +0.000 C 
ATOM     14  C   UNL     1       1.223   2.316  21.371  0.00  0.00    +0.000 C 
ATOM     15  C   UNL     1       1.411   3.476  20.410  0.00  0.00    +0.000 C 
ATOM     16  H   UNL     1       5.331   1.096  19.825  0.00  0.00    +0.000 HD
ATOM     17  H   UNL     1       5.407   1.587  21.465  0.00  0.00    +0.000 HD
BRANCH   8  18
ATOM     18  C   UNL     1       1.247   2.822  17.993  0.00  0.00    +0.000 C 
ATOM     19  F   UNL     1       0.184   2.170  18.543  0.00  0.00    +0.000 F 
ATOM     20  F   UNL     1       1.890   1.909  17.214  0.00  0.00    +0.000 F 
ENDBRANCH   8  18
ENDBRANCH   6   8
BRANCH   1  23
ATOM     21  C   UNL     1       1.182   9.335  18.993  0.00  0.00    +0.000 C 
ATOM     22  O   UNL     1       0.849   9.384  17.814  0.00  0.00    +0.000 OA
ATOM     23  N   UNL     1       2.004   8.369  19.560  0.00  0.00    +0.000 N 
ATOM     24  H   UNL     1       2.098   8.441  20.573  0.00  0.00    +0.000 HD
BRANCH  21  31
ATOM     25  C   UNL     1       1.859  12.337  18.893  0.00  0.00    +0.000 C 
ATOM     26  C   UNL     1       0.970  11.723  19.936  0.00  0.00    +0.000 A 
ATOM     27  C   UNL     1       0.419  12.564  20.923  0.00  0.00    +0.000 A 
ATOM     28  C   UNL     1      -0.396  12.039  21.920  0.00  0.00    +0.000 A 
ATOM     29  C   UNL     1      -0.663  10.675  21.873  0.00  0.00    +0.000 A 
ATOM     30  N   UNL     1      -0.163   9.823  20.947  0.00  0.00    +0.000 NA
ATOM     31  C   UNL     1       0.659  10.355  19.992  0.00  0.00    +0.000 A 
BRANCH  28  32
ATOM     32  O   UNL     1      -0.990  12.740  22.926  0.00  0.00    +0.000 OA
BRANCH  32  33
ATOM     33  C   UNL     1      -2.406  12.825  22.877  0.00  0.00    +0.000 C 
ATOM     34  F   UNL     1      -2.926  12.009  23.826  0.00  0.00    +0.000 F 
ATOM     35  F   UNL     1      -2.743  14.092  23.220  0.00  0.00    +0.000 F 
ENDBRANCH  32  33
ENDBRANCH  28  32
ENDBRANCH  21  31
ENDBRANCH   1  23
TORSDOF 6
ENDMDL
MODEL 4
REMARK VINA RESULT:      -8.7      1.108      1.319
REMARK  Name = 
REMARK  7 active torsions:
REMARK  status: ('A' for Active; 'I' for Inactive)
REMARK    1  A    between atoms: C_1  and  C_2
REMARK    2  A    between atoms: C_4  and  O_5
REMARK    3  A    between atoms: O_5  and  C_6
REMARK    4  A    between atoms: C_11  and  C_12
REMARK    5  A    between atoms: N_14  and  C_15
REMARK    6  A    between atoms: C_20  and  C_21
REMARK    7  A    between atoms: C_21  and  C_22
REMARK                            x       y       z     vdW  Elec       q    Type
REMARK                         _______ _______ _______ _____ _____    ______ ____
ROOT
ATOM      1  C   UNL     1       2.621   7.359  18.893  0.00  0.00    +0.000 A 
ATOM      2  C   UNL     1       3.554   7.467  17.866  0.00  0.00    +0.000 A 
ATOM      3  C   UNL     1       4.051   6.320  17.243  0.00  0.00    +0.000 A 
ATOM      4  C   UNL     1       3.604   5.060  17.634  0.00  0.00    +0.000 A 
ATOM      5  F   UNL     1       4.096   3.990  16.991  0.00  0.00    +0.000 F 
ATOM      6  C   UNL     1       2.672   4.901  18.659  0.00  0.00    +0.000 A 
ATOM      7  C   UNL     1       2.218   6.081  19.306  0.00  0.00    +0.000 A 
ENDROOT
BRANCH   6   8
ATOM      8  C   UNL     1       2.156   3.494  19.069  0.00  0.00    +0.000 C 
ATOM      9  N   UNL     1       3.295   2.539  19.131  0.00  0.00    +0.000 NA
ATOM     10  C   UNL     1       3.994   2.490  20.203  0.00  0.00    +0.000 C 
ATOM     11  N   UNL     1       5.162   1.815  20.273  0.00  0.00    +0.000 N 
ATOM     12  O   UNL     1       3.684   3.072  21.387  0.00  0.00    +0.000 OA
ATOM     13  C   UNL     1       2.325   3.463  21.625  0.00  0.00    +0.000 C 
ATOM     14  C   UNL     1       1.287   2.401  21.364  0.00  0.00    +0.000 C 
ATOM     15  C   UNL     1       1.455   3.577  20.419  0.00  0.00    +0.000 C 
ATOM     16  H   UNL     1       5.263   1.101  19.564  0.00  0.00    +0.000 HD
ATOM     17  H   UNL     1       5.446   1.552  21.206  0.00  0.00    +0.000 HD
BRANCH   8  18
ATOM     18  C   UNL     1       1.136   2.982  18.001  0.00  0.00    +0.000 C 
ATOM     19  F   UNL     1       0.678   4.012  17.235  0.00  0.00    +0.000 F 
ATOM     20  F   UNL     1       0.039   2.431  18.589  0.00  0.00    +0.000 F 
ENDBRANCH   8  18
ENDBRANCH   6   8
BRANCH   1  23
ATOM     21  C   UNL     1       1.164   9.411  19.000  0.00  0.00    +0.000 C 
ATOM     22  O   UNL     1       0.756   9.419  17.844  0.00  0.00    +0.000 OA
ATOM     23  N   UNL     1       2.041   8.478  19.540  0.00  0.00    +0.000 N 
ATOM     24  H   UNL     1       2.197   8.581  20.542  0.00  0.00    +0.000 HD
BRANCH  21  31
ATOM     25  C   UNL     1       1.970  12.381  18.911  0.00  0.00    +0.000 C 
ATOM     26  C   UNL     1       1.053  11.803  19.951  0.00  0.00    +0.000 A 
ATOM     27  C   UNL     1       0.538  12.663  20.941  0.00  0.00    +0.000 A 
ATOM     28  C   UNL     1      -0.300  12.171  21.935  0.00  0.00    +0.000 A 
ATOM     29  C   UNL     1      -0.626  10.819  21.883  0.00  0.00    +0.000 A 
ATOM     30  N   UNL     1      -0.161   9.950  20.954  0.00  0.00    +0.000 NA
ATOM     31  C   UNL     1       0.684  10.449  20.002  0.00  0.00    +0.000 A 
BRANCH  28  32
ATOM     32  O   UNL     1      -0.865  12.893  22.942  0.00  0.00    +0.000 OA
BRANCH  32  33
ATOM     33  C   UNL     1      -0.810  14.304  22.806  0.00  0.00    +0.000 C 
ATOM     34  F   UNL     1      -1.870  14.715  22.069  0.00  0.00    +0.000 F 
ATOM     35  F   UNL     1      -0.965  14.833  24.045  0.00  0.00    +0.000 F 
ENDBRANCH  32  33
ENDBRANCH  28  32
ENDBRANCH  21  31
ENDBRANCH   1  23
TORSDOF 6
ENDMDL
MODEL 5
REMARK VINA RESULT:      -8.5      3.279      4.568
REMARK  Name = 
REMARK  7 active torsions:
REMARK  status: ('A' for Active; 'I' for Inactive)
REMARK    1  A    between atoms: C_1  and  C_2
REMARK    2  A    between atoms: C_4  and  O_5
REMARK    3  A    between atoms: O_5  and  C_6
REMARK    4  A    between atoms: C_11  and  C_12
REMARK    5  A    between atoms: N_14  and  C_15
REMARK    6  A    between atoms: C_20  and  C_21
REMARK    7  A    between atoms: C_21  and  C_22
REMARK                            x       y       z     vdW  Elec       q    Type
REMARK                         _______ _______ _______ _____ _____    ______ ____
ROOT
ATOM      1  C   UNL     1       2.800   7.487  18.077  0.00  0.00    +0.000 A 
ATOM      2  C   UNL     1       1.893   6.465  18.340  0.00  0.00    +0.000 A 
ATOM      3  C   UNL     1       2.220   5.140  18.042  0.00  0.00    +0.000 A 
ATOM      4  C   UNL     1       3.463   4.831  17.495  0.00  0.00    +0.000 A 
ATOM      5  F   UNL     1       3.737   3.541  17.245  0.00  0.00    +0.000 F 
ATOM      6  C   UNL     1       4.404   5.820  17.211  0.00  0.00    +0.000 A 
ATOM      7  C   UNL     1       4.027   7.163  17.481  0.00  0.00    +0.000 A 
ENDROOT
BRANCH   6   8
ATOM      8  C   UNL     1       5.799   5.464  16.628  0.00  0.00    +0.000 C 
ATOM      9  N   UNL     1       6.583   6.708  16.404  0.00  0.00    +0.000 NA
ATOM     10  C   UNL     1       7.229   7.209  17.390  0.00  0.00    +0.000 C 
ATOM     11  N   UNL     1       7.790   8.437  17.338  0.00  0.00    +0.000 N 
ATOM     12  O   UNL     1       7.453   6.611  18.586  0.00  0.00    +0.000 OA
ATOM     13  C   UNL     1       7.307   5.187  18.679  0.00  0.00    +0.000 C 
ATOM     14  C   UNL     1       8.043   4.387  17.636  0.00  0.00    +0.000 C 
ATOM     15  C   UNL     1       6.534   4.534  17.585  0.00  0.00    +0.000 C 
ATOM     16  H   UNL     1       7.956   8.769  16.396  0.00  0.00    +0.000 HD
ATOM     17  H   UNL     1       8.540   8.590  17.996  0.00  0.00    +0.000 HD
BRANCH   8  18
ATOM     18  C   UNL     1       5.618   4.737  15.256  0.00  0.00    +0.000 C 
ATOM     19  F   UNL     1       5.955   3.420  15.357  0.00  0.00    +0.000 F 
ATOM     20  F   UNL     1       6.436   5.265  14.305  0.00  0.00    +0.000 F 
ENDBRANCH   8  18
ENDBRANCH   6   8
BRANCH   1  23
ATOM     21  C   UNL     1       1.433   9.603  18.078  0.00  0.00    +0.000 C 
ATOM     22  O   UNL     1       0.460   9.204  17.448  0.00  0.00    +0.000 OA
ATOM     23  N   UNL     1       2.555   8.847  18.392  0.00  0.00    +0.000 N 
ATOM     24  H   UNL     1       3.224   9.322  18.999  0.00  0.00    +0.000 HD
BRANCH  21  31
ATOM     25  C   UNL     1      -0.357  10.593  20.379  0.00  0.00    +0.000 C 
ATOM     26  C   UNL     1       0.656  11.459  19.687  0.00  0.00    +0.000 A 
ATOM     27  C   UNL     1       0.793  12.796  20.109  0.00  0.00    +0.000 A 
ATOM     28  C   UNL     1       1.704  13.642  19.487  0.00  0.00    +0.000 A 
ATOM     29  C   UNL     1       2.484  13.101  18.469  0.00  0.00    +0.000 A 
ATOM     30  N   UNL     1       2.395  11.825  18.026  0.00  0.00    +0.000 NA
ATOM     31  C   UNL     1       1.473  11.018  18.633  0.00  0.00    +0.000 A 
BRANCH  28  32
ATOM     32  O   UNL     1       1.934  14.947  19.799  0.00  0.00    +0.000 OA
BRANCH  32  33
ATOM     33  C   UNL     1       1.381  15.909  18.915  0.00  0.00    +0.000 C 
ATOM     34  F   UNL     1       0.191  15.448  18.456  0.00  0.00    +0.000 F 
ATOM     35  F   UNL     1       1.116  17.020  19.646  0.00  0.00    +0.000 F 
ENDBRANCH  32  33
ENDBRANCH  28  32
ENDBRANCH  21  31
ENDBRANCH   1  23
TORSDOF 6
ENDMDL
MODEL 6
REMARK VINA RESULT:      -8.4      3.125      4.228
REMARK  Name = 
REMARK  7 active torsions:
REMARK  status: ('A' for Active; 'I' for Inactive)
REMARK    1  A    between atoms: C_1  and  C_2
REMARK    2  A    between atoms: C_4  and  O_5
REMARK    3  A    between atoms: O_5  and  C_6
REMARK    4  A    between atoms: C_11  and  C_12
REMARK    5  A    between atoms: N_14  and  C_15
REMARK    6  A    between atoms: C_20  and  C_21
REMARK    7  A    between atoms: C_21  and  C_22
REMARK                            x       y       z     vdW  Elec       q    Type
REMARK                         _______ _______ _______ _____ _____    ______ ____
ROOT
ATOM      1  C   UNL     1       2.481   7.540  18.837  0.00  0.00    +0.000 A 
ATOM      2  C   UNL     1       2.142   6.615  19.821  0.00  0.00    +0.000 A 
ATOM      3  C   UNL     1       2.824   5.399  19.907  0.00  0.00    +0.000 A 
ATOM      4  C   UNL     1       3.860   5.111  19.022  0.00  0.00    +0.000 A 
ATOM      5  F   UNL     1       4.498   3.938  19.159  0.00  0.00    +0.000 F 
ATOM      6  C   UNL     1       4.234   6.005  18.019  0.00  0.00    +0.000 A 
ATOM      7  C   UNL     1       3.494   7.213  17.924  0.00  0.00    +0.000 A 
ENDROOT
BRANCH   6   8
ATOM      8  C   UNL     1       5.410   5.689  17.054  0.00  0.00    +0.000 C 
ATOM      9  N   UNL     1       6.134   6.943  16.715  0.00  0.00    +0.000 NA
ATOM     10  C   UNL     1       7.035   7.366  17.521  0.00  0.00    +0.000 C 
ATOM     11  N   UNL     1       7.590   8.592  17.406  0.00  0.00    +0.000 N 
ATOM     12  O   UNL     1       7.560   6.679  18.564  0.00  0.00    +0.000 OA
ATOM     13  C   UNL     1       7.411   5.252  18.591  0.00  0.00    +0.000 C 
ATOM     14  C   UNL     1       7.817   4.530  17.333  0.00  0.00    +0.000 C 
ATOM     15  C   UNL     1       6.354   4.686  17.705  0.00  0.00    +0.000 C 
ATOM     16  H   UNL     1       7.502   8.994  16.481  0.00  0.00    +0.000 HD
ATOM     17  H   UNL     1       8.494   8.693  17.845  0.00  0.00    +0.000 HD
BRANCH   8  18
ATOM     18  C   UNL     1       4.847   5.068  15.735  0.00  0.00    +0.000 C 
ATOM     19  F   UNL     1       4.736   3.714  15.844  0.00  0.00    +0.000 F 
ATOM     20  F   UNL     1       5.681   5.297  14.685  0.00  0.00    +0.000 F 
ENDBRANCH   8  18
ENDBRANCH   6   8
BRANCH   1  23
ATOM     21  C   UNL     1       1.003   9.425  19.617  0.00  0.00    +0.000 C 
ATOM     22  O   UNL     1       0.622   8.945  20.679  0.00  0.00    +0.000 OA
ATOM     23  N   UNL     1       1.864   8.810  18.716  0.00  0.00    +0.000 N 
ATOM     24  H   UNL     1       2.138   9.399  17.930  0.00  0.00    +0.000 HD
BRANCH  21  31
ATOM     25  C   UNL     1      -1.650  10.055  18.187  0.00  0.00    +0.000 C 
ATOM     26  C   UNL     1      -0.636  11.102  18.550  0.00  0.00    +0.000 A 
ATOM     27  C   UNL     1      -0.910  12.443  18.215  0.00  0.00    +0.000 A 
ATOM     28  C   UNL     1       0.006  13.445  18.514  0.00  0.00    +0.000 A 
ATOM     29  C   UNL     1       1.168  13.069  19.179  0.00  0.00    +0.000 A 
ATOM     30  N   UNL     1       1.481  11.797  19.526  0.00  0.00    +0.000 NA
ATOM     31  C   UNL     1       0.578  10.823  19.198  0.00  0.00    +0.000 A 
BRANCH  28  32
ATOM     32  O   UNL     1      -0.139  14.773  18.249  0.00  0.00    +0.000 OA
BRANCH  32  33
ATOM     33  C   UNL     1      -0.449  15.602  19.358  0.00  0.00    +0.000 C 
ATOM     34  F   UNL     1      -0.971  16.767  18.902  0.00  0.00    +0.000 F 
ATOM     35  F   UNL     1      -1.429  14.981  20.061  0.00  0.00    +0.000 F 
ENDBRANCH  32  33
ENDBRANCH  28  32
ENDBRANCH  21  31
ENDBRANCH   1  23
TORSDOF 6
ENDMDL
MODEL 7
REMARK VINA RESULT:      -8.4      1.376      1.649
REMARK  Name = 
REMARK  7 active torsions:
REMARK  status: ('A' for Active; 'I' for Inactive)
REMARK    1  A    between atoms: C_1  and  C_2
REMARK    2  A    between atoms: C_4  and  O_5
REMARK    3  A    between atoms: O_5  and  C_6
REMARK    4  A    between atoms: C_11  and  C_12
REMARK    5  A    between atoms: N_14  and  C_15
REMARK    6  A    between atoms: C_20  and  C_21
REMARK    7  A    between atoms: C_21  and  C_22
REMARK                            x       y       z     vdW  Elec       q    Type
REMARK                         _______ _______ _______ _____ _____    ______ ____
ROOT
ATOM      1  C   UNL     1       2.945   7.257  18.481  0.00  0.00    +0.000 A 
ATOM      2  C   UNL     1       3.935   7.212  17.504  0.00  0.00    +0.000 A 
ATOM      3  C   UNL     1       4.395   5.982  17.026  0.00  0.00    +0.000 A 
ATOM      4  C   UNL     1       3.855   4.794  17.511  0.00  0.00    +0.000 A 
ATOM      5  F   UNL     1       4.317   3.640  17.006  0.00  0.00    +0.000 F 
ATOM      6  C   UNL     1       2.864   4.789  18.492  0.00  0.00    +0.000 A 
ATOM      7  C   UNL     1       2.447   6.051  18.993  0.00  0.00    +0.000 A 
ENDROOT
BRANCH   6   8
ATOM      8  C   UNL     1       2.246   3.460  19.007  0.00  0.00    +0.000 C 
ATOM      9  N   UNL     1       3.310   2.429  19.142  0.00  0.00    +0.000 NA
ATOM     10  C   UNL     1       4.010   2.409  20.215  0.00  0.00    +0.000 C 
ATOM     11  N   UNL     1       5.124   1.655  20.336  0.00  0.00    +0.000 N 
ATOM     12  O   UNL     1       3.751   3.100  21.351  0.00  0.00    +0.000 OA
ATOM     13  C   UNL     1       2.426   3.609  21.558  0.00  0.00    +0.000 C 
ATOM     14  C   UNL     1       1.310   2.613  21.378  0.00  0.00    +0.000 C 
ATOM     15  C   UNL     1       1.560   3.698  20.347  0.00  0.00    +0.000 C 
ATOM     16  H   UNL     1       5.167   0.884  19.683  0.00  0.00    +0.000 HD
ATOM     17  H   UNL     1       5.392   1.443  21.287  0.00  0.00    +0.000 HD
BRANCH   8  18
ATOM     18  C   UNL     1       1.185   2.947  17.981  0.00  0.00    +0.000 C 
ATOM     19  F   UNL     1       0.684   3.979  17.244  0.00  0.00    +0.000 F 
ATOM     20  F   UNL     1       0.120   2.382  18.612  0.00  0.00    +0.000 F 
ENDBRANCH   8  18
ENDBRANCH   6   8
BRANCH   1  23
ATOM     21  C   UNL     1       1.362   9.217  18.441  0.00  0.00    +0.000 C 
ATOM     22  O   UNL     1       0.753   8.952  17.411  0.00  0.00    +0.000 OA
ATOM     23  N   UNL     1       2.399   8.466  18.981  0.00  0.00    +0.000 N 
ATOM     24  H   UNL     1       2.724   8.794  19.890  0.00  0.00    +0.000 HD
BRANCH  21  31
ATOM     25  C   UNL     1      -0.090   9.043  21.150  0.00  0.00    +0.000 C 
ATOM     26  C   UNL     1       0.326  10.339  20.515  0.00  0.00    +0.000 A 
ATOM     27  C   UNL     1       0.033  11.539  21.193  0.00  0.00    +0.000 A 
ATOM     28  C   UNL     1       0.383  12.765  20.637  0.00  0.00    +0.000 A 
ATOM     29  C   UNL     1       1.054  12.745  19.419  0.00  0.00    +0.000 A 
ATOM     30  N   UNL     1       1.362  11.622  18.727  0.00  0.00    +0.000 NA
ATOM     31  C   UNL     1       0.985  10.428  19.278  0.00  0.00    +0.000 A 
BRANCH  28  32
ATOM     32  O   UNL     1       0.161  13.991  21.187  0.00  0.00    +0.000 OA
BRANCH  32  33
ATOM     33  C   UNL     1       1.314  14.709  21.599  0.00  0.00    +0.000 C 
ATOM     34  F   UNL     1       1.539  15.716  20.721  0.00  0.00    +0.000 F 
ATOM     35  F   UNL     1       1.022  15.285  22.791  0.00  0.00    +0.000 F 
ENDBRANCH  32  33
ENDBRANCH  28  32
ENDBRANCH  21  31
ENDBRANCH   1  23
TORSDOF 6
ENDMDL
MODEL 8
REMARK VINA RESULT:      -8.3      3.082      9.445
REMARK  Name = 
REMARK  7 active torsions:
REMARK  status: ('A' for Active; 'I' for Inactive)
REMARK    1  A    between atoms: C_1  and  C_2
REMARK    2  A    between atoms: C_4  and  O_5
REMARK    3  A    between atoms: O_5  and  C_6
REMARK    4  A    between atoms: C_11  and  C_12
REMARK    5  A    between atoms: N_14  and  C_15
REMARK    6  A    between atoms: C_20  and  C_21
REMARK    7  A    between atoms: C_21  and  C_22
REMARK                            x       y       z     vdW  Elec       q    Type
REMARK                         _______ _______ _______ _____ _____    ______ ____
ROOT
ATOM      1  C   UNL     1       1.396   8.384  20.217  0.00  0.00    +0.000 A 
ATOM      2  C   UNL     1       0.805   8.076  21.439  0.00  0.00    +0.000 A 
ATOM      3  C   UNL     1      -0.038   8.998  22.064  0.00  0.00    +0.000 A 
ATOM      4  C   UNL     1      -0.306  10.225  21.461  0.00  0.00    +0.000 A 
ATOM      5  F   UNL     1      -1.138  11.068  22.092  0.00  0.00    +0.000 F 
ATOM      6  C   UNL     1       0.264  10.579  20.239  0.00  0.00    +0.000 A 
ATOM      7  C   UNL     1       1.154   9.642  19.649  0.00  0.00    +0.000 A 
ENDROOT
BRANCH   6   8
ATOM      8  C   UNL     1      -0.062  11.937  19.559  0.00  0.00    +0.000 C 
ATOM      9  N   UNL     1      -0.248  12.987  20.596  0.00  0.00    +0.000 NA
ATOM     10  C   UNL     1       0.789  13.578  21.061  0.00  0.00    +0.000 C 
ATOM     11  N   UNL     1       0.737  14.384  22.144  0.00  0.00    +0.000 N 
ATOM     12  O   UNL     1       2.045  13.501  20.559  0.00  0.00    +0.000 OA
ATOM     13  C   UNL     1       2.218  13.050  19.208  0.00  0.00    +0.000 C 
ATOM     14  C   UNL     1       1.366  13.743  18.176  0.00  0.00    +0.000 C 
ATOM     15  C   UNL     1       1.065  12.319  18.608  0.00  0.00    +0.000 C 
ATOM     16  H   UNL     1      -0.188  14.746  22.338  0.00  0.00    +0.000 HD
ATOM     17  H   UNL     1       1.494  15.049  22.216  0.00  0.00    +0.000 HD
BRANCH   8  18
ATOM     18  C   UNL     1      -1.388  11.804  18.743  0.00  0.00    +0.000 C 
ATOM     19  F   UNL     1      -2.469  12.096  19.521  0.00  0.00    +0.000 F 
ATOM     20  F   UNL     1      -1.572  10.530  18.302  0.00  0.00    +0.000 F 
ENDBRANCH   8  18
ENDBRANCH   6   8
BRANCH   1  23
ATOM     21  C   UNL     1       2.476   6.147  19.795  0.00  0.00    +0.000 C 
ATOM     22  O   UNL     1       2.016   5.528  20.748  0.00  0.00    +0.000 OA
ATOM     23  N   UNL     1       2.226   7.483  19.505  0.00  0.00    +0.000 N 
ATOM     24  H   UNL     1       2.625   7.801  18.622  0.00  0.00    +0.000 HD
BRANCH  21  31
ATOM     25  C   UNL     1       1.451   4.123  17.714  0.00  0.00    +0.000 C 
ATOM     26  C   UNL     1       2.890   4.538  17.827  0.00  0.00    +0.000 A 
ATOM     27  C   UNL     1       3.822   3.968  16.937  0.00  0.00    +0.000 A 
ATOM     28  C   UNL     1       5.169   4.306  17.015  0.00  0.00    +0.000 A 
ATOM     29  C   UNL     1       5.536   5.244  17.974  0.00  0.00    +0.000 A 
ATOM     30  N   UNL     1       4.682   5.824  18.851  0.00  0.00    +0.000 NA
ATOM     31  C   UNL     1       3.367   5.456  18.776  0.00  0.00    +0.000 A 
BRANCH  28  32
ATOM     32  O   UNL     1       6.165   3.832  16.217  0.00  0.00    +0.000 OA
BRANCH  32  33
ATOM     33  C   UNL     1       6.280   4.434  14.936  0.00  0.00    +0.000 C 
ATOM     34  F   UNL     1       7.534   4.928  14.796  0.00  0.00    +0.000 F 
ATOM     35  F   UNL     1       6.141   3.448  14.016  0.00  0.00    +0.000 F 
ENDBRANCH  32  33
ENDBRANCH  28  32
ENDBRANCH  21  31
ENDBRANCH   1  23
TORSDOF 6
ENDMDL
MODEL 9
REMARK VINA RESULT:      -8.3      2.161      3.076
REMARK  Name = 
REMARK  7 active torsions:
REMARK  status: ('A' for Active; 'I' for Inactive)
REMARK    1  A    between atoms: C_1  and  C_2
REMARK    2  A    between atoms: C_4  and  O_5
REMARK    3  A    between atoms: O_5  and  C_6
REMARK    4  A    between atoms: C_11  and  C_12
REMARK    5  A    between atoms: N_14  and  C_15
REMARK    6  A    between atoms: C_20  and  C_21
REMARK    7  A    between atoms: C_21  and  C_22
REMARK                            x       y       z     vdW  Elec       q    Type
REMARK                         _______ _______ _______ _____ _____    ______ ____
ROOT
ATOM      1  C   UNL     1       2.167   8.012  19.022  0.00  0.00    +0.000 A 
ATOM      2  C   UNL     1       2.582   8.486  17.781  0.00  0.00    +0.000 A 
ATOM      3  C   UNL     1       3.362   7.682  16.946  0.00  0.00    +0.000 A 
ATOM      4  C   UNL     1       3.715   6.395  17.341  0.00  0.00    +0.000 A 
ATOM      5  F   UNL     1       4.448   5.655  16.495  0.00  0.00    +0.000 F 
ATOM      6  C   UNL     1       3.325   5.876  18.576  0.00  0.00    +0.000 A 
ATOM      7  C   UNL     1       2.573   6.731  19.424  0.00  0.00    +0.000 A 
ENDROOT
BRANCH   6   8
ATOM      8  C   UNL     1       3.699   4.429  18.998  0.00  0.00    +0.000 C 
ATOM      9  N   UNL     1       2.870   4.014  20.161  0.00  0.00    +0.000 NA
ATOM     10  C   UNL     1       1.698   3.546  19.942  0.00  0.00    +0.000 C 
ATOM     11  N   UNL     1       0.803   3.344  20.934  0.00  0.00    +0.000 N 
ATOM     12  O   UNL     1       1.195   3.184  18.737  0.00  0.00    +0.000 OA
ATOM     13  C   UNL     1       2.107   2.933  17.659  0.00  0.00    +0.000 C 
ATOM     14  C   UNL     1       3.240   1.989  17.970  0.00  0.00    +0.000 C 
ATOM     15  C   UNL     1       3.485   3.480  17.825  0.00  0.00    +0.000 C 
ATOM     16  H   UNL     1       1.224   3.263  21.851  0.00  0.00    +0.000 HD
ATOM     17  H   UNL     1       0.077   2.675  20.721  0.00  0.00    +0.000 HD
BRANCH   8  18
ATOM     18  C   UNL     1       5.203   4.381  19.417  0.00  0.00    +0.000 C 
ATOM     19  F   UNL     1       5.654   5.624  19.749  0.00  0.00    +0.000 F 
ATOM     20  F   UNL     1       5.989   3.955  18.391  0.00  0.00    +0.000 F 
ENDBRANCH   8  18
ENDBRANCH   6   8
BRANCH   1  23
ATOM     21  C   UNL     1       1.028  10.105  19.838  0.00  0.00    +0.000 C 
ATOM     22  O   UNL     1       1.444  10.892  18.996  0.00  0.00    +0.000 OA
ATOM     23  N   UNL     1       1.339   8.753  19.902  0.00  0.00    +0.000 N 
ATOM     24  H   UNL     1       0.829   8.238  20.619  0.00  0.00    +0.000 HD
BRANCH  21  31
ATOM     25  C   UNL     1       1.089   9.099  22.747  0.00  0.00    +0.000 C 
ATOM     26  C   UNL     1       0.089  10.097  22.237  0.00  0.00    +0.000 A 
ATOM     27  C   UNL     1      -0.876  10.596  23.135  0.00  0.00    +0.000 A 
ATOM     28  C   UNL     1      -1.833  11.508  22.705  0.00  0.00    +0.000 A 
ATOM     29  C   UNL     1      -1.770  11.920  21.378  0.00  0.00    +0.000 A 
ATOM     30  N   UNL     1      -0.865  11.475  20.474  0.00  0.00    +0.000 NA
ATOM     31  C   UNL     1       0.051  10.558  20.911  0.00  0.00    +0.000 A 
BRANCH  28  32
ATOM     32  O   UNL     1      -2.813  12.066  23.468  0.00  0.00    +0.000 OA
BRANCH  32  33
ATOM     33  C   UNL     1      -2.767  13.478  23.610  0.00  0.00    +0.000 C 
ATOM     34  F   UNL     1      -3.634  13.849  24.582  0.00  0.00    +0.000 F 
ATOM     35  F   UNL     1      -1.524  13.796  24.050  0.00  0.00    +0.000 F 
ENDBRANCH  32  33
ENDBRANCH  28  32
ENDBRANCH  21  31
ENDBRANCH   1  23
TORSDOF 6
ENDMDL
