MODEL 1
REMARK VINA RESULT:      -7.3      0.000      0.000
REMARK  Name = 
REMARK  10 active torsions:
REMARK  status: ('A' for Active; 'I' for Inactive)
REMARK    1  A    between atoms: C_1  and  N_2
REMARK    2  A    between atoms: C_3  and  C_5
REMARK    3  A    between atoms: C_5  and  C_6
REMARK    4  A    between atoms: C_5  and  C_7
REMARK    5  A    between atoms: C_7  and  N_8
REMARK    6  A    between atoms: N_8  and  C_9
REMARK    7  A    between atoms: N_8  and  C_10
REMARK    8  A    between atoms: C_10  and  C_11
REMARK    9  A    between atoms: C_16  and  C_17
REMARK   10  A    between atoms: N_21  and  C_22
REMARK                            x       y       z     vdW  Elec       q    Type
REMARK                         _______ _______ _______ _____ _____    ______ ____
ROOT
ATOM      1  C   UNL     1       3.043   5.675  18.159  0.00  0.00    +0.000 A 
ATOM      2  C   UNL     1       3.244   6.923  17.509  0.00  0.00    +0.000 A 
ATOM      3  C   UNL     1       2.766   8.126  18.023  0.00  0.00    +0.000 A 
ATOM      4  C   UNL     1       2.085   8.119  19.222  0.00  0.00    +0.000 A 
ATOM      5  C   UNL     1       1.899   6.912  19.897  0.00  0.00    +0.000 A 
ATOM      6  C   UNL     1       2.359   5.662  19.396  0.00  0.00    +0.000 A 
ENDROOT
BRANCH   6   7
ATOM      7  C   UNL     1       1.977   4.494  20.233  0.00  0.00    +0.000 A 
ATOM      8  C   UNL     1       2.406   4.256  21.538  0.00  0.00    +0.000 A 
ATOM      9  C   UNL     1       1.960   2.976  21.886  0.00  0.00    +0.000 A 
ATOM     10  N   UNL     1       1.278   2.413  20.899  0.00  0.00    +0.000 NA
ATOM     11  N   UNL     1       1.280   3.343  19.911  0.00  0.00    +0.000 N 
ATOM     12  C   UNL     1       0.662   2.944  18.674  0.00  0.00    +0.000 C 
ENDBRANCH   6   7
BRANCH   1  13
ATOM     13  C   UNL     1       3.657   4.493  17.435  0.00  0.00    +0.000 C 
BRANCH  13  14
ATOM     14  N   UNL     1       4.902   3.927  17.980  0.00  0.00    +0.000 NA
ATOM     15  C   UNL     1       4.547   2.776  18.827  0.00  0.00    +0.000 C 
BRANCH  14  16
ATOM     16  C   UNL     1       5.694   4.915  18.749  0.00  0.00    +0.000 C 
BRANCH  16  17
ATOM     17  C   UNL     1       7.146   5.081  18.246  0.00  0.00    +0.000 C 
ATOM     18  C   UNL     1       7.939   6.097  19.070  0.00  0.00    +0.000 C 
BRANCH  17  21
ATOM     19  C   UNL     1       6.913   4.715  14.476  0.00  0.00    +0.000 C 
ATOM     20  N   UNL     1       6.854   4.472  15.887  0.00  0.00    +0.000 N 
ATOM     21  C   UNL     1       7.214   5.468  16.776  0.00  0.00    +0.000 C 
ATOM     22  O   UNL     1       7.510   6.607  16.423  0.00  0.00    +0.000 OA
ATOM     23  H   UNL     1       6.841   3.515  16.210  0.00  0.00    +0.000 HD
ENDBRANCH  17  21
ENDBRANCH  16  17
ENDBRANCH  14  16
ENDBRANCH  13  14
ENDBRANCH   1  13
TORSDOF 6
ENDMDL
MODEL 2
REMARK VINA RESULT:      -7.0      2.086      4.002
REMARK  Name = 
REMARK  10 active torsions:
REMARK  status: ('A' for Active; 'I' for Inactive)
REMARK    1  A    between atoms: C_1  and  N_2
REMARK    2  A    between atoms: C_3  and  C_5
REMARK    3  A    between atoms: C_5  and  C_6
REMARK    4  A    between atoms: C_5  and  C_7
REMARK    5  A    between atoms: C_7  and  N_8
REMARK    6  A    between atoms: N_8  and  C_9
REMARK    7  A    between atoms: N_8  and  C_10
REMARK    8  A    between atoms: C_10  and  C_11
REMARK    9  A    between atoms: C_16  and  C_17
REMARK   10  A    between atoms: N_21  and  C_22
REMARK                            x       y       z     vdW  Elec       q    Type
REMARK                         _______ _______ _______ _____ _____    ______ ____
ROOT
ATOM      1  C   UNL     1       4.197   4.715  19.398  0.00  0.00    +0.000 A 
ATOM      2  C   UNL     1       4.301   3.348  19.777  0.00  0.00    +0.000 A 
ATOM      3  C   UNL     1       3.187   2.539  19.989  0.00  0.00    +0.000 A 
ATOM      4  C   UNL     1       1.928   3.071  19.808  0.00  0.00    +0.000 A 
ATOM      5  C   UNL     1       1.797   4.401  19.406  0.00  0.00    +0.000 A 
ATOM      6  C   UNL     1       2.910   5.262  19.194  0.00  0.00    +0.000 A 
ENDROOT
BRANCH   6   7
ATOM      7  C   UNL     1       2.539   6.662  18.856  0.00  0.00    +0.000 A 
ATOM      8  C   UNL     1       2.861   7.322  17.671  0.00  0.00    +0.000 A 
ATOM      9  C   UNL     1       2.482   8.659  17.833  0.00  0.00    +0.000 A 
ATOM     10  N   UNL     1       1.940   8.870  19.025  0.00  0.00    +0.000 NA
ATOM     11  N   UNL     1       1.965   7.655  19.628  0.00  0.00    +0.000 N 
ATOM     12  C   UNL     1       1.497   7.622  20.990  0.00  0.00    +0.000 C 
ENDBRANCH   6   7
BRANCH   1  13
ATOM     13  C   UNL     1       5.532   5.407  19.206  0.00  0.00    +0.000 C 
BRANCH  13  14
ATOM     14  N   UNL     1       6.346   5.016  18.044  0.00  0.00    +0.000 NA
ATOM     15  C   UNL     1       7.761   5.034  18.450  0.00  0.00    +0.000 C 
BRANCH  14  16
ATOM     16  C   UNL     1       6.130   5.893  16.869  0.00  0.00    +0.000 C 
BRANCH  16  17
ATOM     17  C   UNL     1       5.410   5.198  15.692  0.00  0.00    +0.000 C 
ATOM     18  C   UNL     1       4.650   3.943  16.127  0.00  0.00    +0.000 C 
BRANCH  17  21
ATOM     19  C   UNL     1       6.634   3.603  12.473  0.00  0.00    +0.000 C 
ATOM     20  N   UNL     1       5.821   4.030  13.573  0.00  0.00    +0.000 N 
ATOM     21  C   UNL     1       6.358   4.839  14.558  0.00  0.00    +0.000 C 
ATOM     22  O   UNL     1       7.498   5.295  14.502  0.00  0.00    +0.000 OA
ATOM     23  H   UNL     1       4.979   3.512  13.778  0.00  0.00    +0.000 HD
ENDBRANCH  17  21
ENDBRANCH  16  17
ENDBRANCH  14  16
ENDBRANCH  13  14
ENDBRANCH   1  13
TORSDOF 6
ENDMDL
MODEL 3
REMARK VINA RESULT:      -6.9      2.019      3.628
REMARK  Name = 
REMARK  10 active torsions:
REMARK  status: ('A' for Active; 'I' for Inactive)
REMARK    1  A    between atoms: C_1  and  N_2
REMARK    2  A    between atoms: C_3  and  C_5
REMARK    3  A    between atoms: C_5  and  C_6
REMARK    4  A    between atoms: C_5  and  C_7
REMARK    5  A    between atoms: C_7  and  N_8
REMARK    6  A    between atoms: N_8  and  C_9
REMARK    7  A    between atoms: N_8  and  C_10
REMARK    8  A    between atoms: C_10  and  C_11
REMARK    9  A    between atoms: C_16  and  C_17
REMARK   10  A    between atoms: N_21  and  C_22
REMARK                            x       y       z     vdW  Elec       q    Type
REMARK                         _______ _______ _______ _____ _____    ______ ____
ROOT
ATOM      1  C   UNL     1       3.794   3.972  19.038  0.00  0.00    +0.000 A 
ATOM      2  C   UNL     1       3.816   2.623  18.590  0.00  0.00    +0.000 A 
ATOM      3  C   UNL     1       2.656   1.887  18.360  0.00  0.00    +0.000 A 
ATOM      4  C   UNL     1       1.431   2.488  18.553  0.00  0.00    +0.000 A 
ATOM      5  C   UNL     1       1.379   3.821  18.963  0.00  0.00    +0.000 A 
ATOM      6  C   UNL     1       2.541   4.600  19.223  0.00  0.00    +0.000 A 
ENDROOT
BRANCH   6   7
ATOM      7  C   UNL     1       2.255   5.967  19.734  0.00  0.00    +0.000 A 
ATOM      8  C   UNL     1       1.592   6.265  20.924  0.00  0.00    +0.000 A 
ATOM      9  C   UNL     1       1.379   7.648  20.936  0.00  0.00    +0.000 A 
ATOM     10  N   UNL     1       1.873   8.226  19.849  0.00  0.00    +0.000 NA
ATOM     11  N   UNL     1       2.413   7.205  19.138  0.00  0.00    +0.000 N 
ATOM     12  C   UNL     1       2.956   7.556  17.851  0.00  0.00    +0.000 C 
ENDBRANCH   6   7
BRANCH   1  13
ATOM     13  C   UNL     1       5.168   4.589  19.213  0.00  0.00    +0.000 C 
BRANCH  13  14
ATOM     14  N   UNL     1       6.196   4.265  18.211  0.00  0.00    +0.000 NA
ATOM     15  C   UNL     1       7.299   5.230  18.360  0.00  0.00    +0.000 C 
BRANCH  14  16
ATOM     16  C   UNL     1       5.674   4.280  16.825  0.00  0.00    +0.000 C 
BRANCH  16  17
ATOM     17  C   UNL     1       6.229   5.432  15.958  0.00  0.00    +0.000 C 
ATOM     18  C   UNL     1       5.196   6.533  15.712  0.00  0.00    +0.000 C 
BRANCH  17  21
ATOM     19  C   UNL     1       6.366   3.542  12.670  0.00  0.00    +0.000 C 
ATOM     20  N   UNL     1       5.943   4.086  13.927  0.00  0.00    +0.000 N 
ATOM     21  C   UNL     1       6.771   4.948  14.621  0.00  0.00    +0.000 C 
ATOM     22  O   UNL     1       7.842   5.354  14.176  0.00  0.00    +0.000 OA
ATOM     23  H   UNL     1       5.200   3.620  14.426  0.00  0.00    +0.000 HD
ENDBRANCH  17  21
ENDBRANCH  16  17
ENDBRANCH  14  16
ENDBRANCH  13  14
ENDBRANCH   1  13
TORSDOF 6
ENDMDL
MODEL 4
REMARK VINA RESULT:      -6.9      2.364      5.786
REMARK  Name = 
REMARK  10 active torsions:
REMARK  status: ('A' for Active; 'I' for Inactive)
REMARK    1  A    between atoms: C_1  and  N_2
REMARK    2  A    between atoms: C_3  and  C_5
REMARK    3  A    between atoms: C_5  and  C_6
REMARK    4  A    between atoms: C_5  and  C_7
REMARK    5  A    between atoms: C_7  and  N_8
REMARK    6  A    between atoms: N_8  and  C_9
REMARK    7  A    between atoms: N_8  and  C_10
REMARK    8  A    between atoms: C_10  and  C_11
REMARK    9  A    between atoms: C_16  and  C_17
REMARK   10  A    between atoms: N_21  and  C_22
REMARK                            x       y       z     vdW  Elec       q    Type
REMARK                         _______ _______ _______ _____ _____    ______ ____
ROOT
ATOM      1  C   UNL     1       4.069   5.807  18.854  0.00  0.00    +0.000 A 
ATOM      2  C   UNL     1       3.016   6.340  19.647  0.00  0.00    +0.000 A 
ATOM      3  C   UNL     1       2.295   7.473  19.278  0.00  0.00    +0.000 A 
ATOM      4  C   UNL     1       2.595   8.100  18.087  0.00  0.00    +0.000 A 
ATOM      5  C   UNL     1       3.603   7.581  17.275  0.00  0.00    +0.000 A 
ATOM      6  C   UNL     1       4.371   6.435  17.624  0.00  0.00    +0.000 A 
ENDROOT
BRANCH   6   7
ATOM      7  C   UNL     1       5.451   6.108  16.656  0.00  0.00    +0.000 A 
ATOM      8  C   UNL     1       5.317   5.284  15.539  0.00  0.00    +0.000 A 
ATOM      9  C   UNL     1       6.599   5.104  15.009  0.00  0.00    +0.000 A 
ATOM     10  N   UNL     1       7.512   5.764  15.708  0.00  0.00    +0.000 NA
ATOM     11  N   UNL     1       6.807   6.379  16.691  0.00  0.00    +0.000 N 
ATOM     12  C   UNL     1       7.585   7.113  17.655  0.00  0.00    +0.000 C 
ENDBRANCH   6   7
BRANCH   1  13
ATOM     13  C   UNL     1       4.711   4.561  19.434  0.00  0.00    +0.000 C 
BRANCH  13  14
ATOM     14  N   UNL     1       3.936   3.311  19.398  0.00  0.00    +0.000 NA
ATOM     15  C   UNL     1       4.764   2.243  19.982  0.00  0.00    +0.000 C 
BRANCH  14  16
ATOM     16  C   UNL     1       3.500   2.943  18.031  0.00  0.00    +0.000 C 
BRANCH  16  17
ATOM     17  C   UNL     1       1.967   2.946  17.840  0.00  0.00    +0.000 C 
ATOM     18  C   UNL     1       1.433   4.307  17.388  0.00  0.00    +0.000 C 
BRANCH  17  21
ATOM     19  C   UNL     1       1.036   2.739  21.514  0.00  0.00    +0.000 C 
ATOM     20  N   UNL     1       1.646   3.101  20.268  0.00  0.00    +0.000 N 
ATOM     21  C   UNL     1       1.221   2.508  19.093  0.00  0.00    +0.000 C 
ATOM     22  O   UNL     1       0.272   1.731  19.038  0.00  0.00    +0.000 OA
ATOM     23  H   UNL     1       2.552   3.544  20.288  0.00  0.00    +0.000 HD
ENDBRANCH  17  21
ENDBRANCH  16  17
ENDBRANCH  14  16
ENDBRANCH  13  14
ENDBRANCH   1  13
TORSDOF 6
ENDMDL
MODEL 5
REMARK VINA RESULT:      -6.8      2.045      3.818
REMARK  Name = 
REMARK  10 active torsions:
REMARK  status: ('A' for Active; 'I' for Inactive)
REMARK    1  A    between atoms: C_1  and  N_2
REMARK    2  A    between atoms: C_3  and  C_5
REMARK    3  A    between atoms: C_5  and  C_6
REMARK    4  A    between atoms: C_5  and  C_7
REMARK    5  A    between atoms: C_7  and  N_8
REMARK    6  A    between atoms: N_8  and  C_9
REMARK    7  A    between atoms: N_8  and  C_10
REMARK    8  A    between atoms: C_10  and  C_11
REMARK    9  A    between atoms: C_16  and  C_17
REMARK   10  A    between atoms: N_21  and  C_22
REMARK                            x       y       z     vdW  Elec       q    Type
REMARK                         _______ _______ _______ _____ _____    ______ ____
ROOT
ATOM      1  C   UNL     1       3.510   4.259  19.840  0.00  0.00    +0.000 A 
ATOM      2  C   UNL     1       3.472   3.002  20.504  0.00  0.00    +0.000 A 
ATOM      3  C   UNL     1       2.344   2.542  21.179  0.00  0.00    +0.000 A 
ATOM      4  C   UNL     1       1.206   3.321  21.194  0.00  0.00    +0.000 A 
ATOM      5  C   UNL     1       1.206   4.545  20.525  0.00  0.00    +0.000 A 
ATOM      6  C   UNL     1       2.342   5.056  19.837  0.00  0.00    +0.000 A 
ENDROOT
BRANCH   6   7
ATOM      7  C   UNL     1       2.149   6.416  19.270  0.00  0.00    +0.000 A 
ATOM      8  C   UNL     1       2.416   6.792  17.954  0.00  0.00    +0.000 A 
ATOM      9  C   UNL     1       2.267   8.182  17.889  0.00  0.00    +0.000 A 
ATOM     10  N   UNL     1       1.915   8.689  19.062  0.00  0.00    +0.000 NA
ATOM     11  N   UNL     1       1.831   7.614  19.885  0.00  0.00    +0.000 N 
ATOM     12  C   UNL     1       1.537   7.903  21.265  0.00  0.00    +0.000 C 
ENDBRANCH   6   7
BRANCH   1  13
ATOM     13  C   UNL     1       4.830   4.559  19.157  0.00  0.00    +0.000 C 
BRANCH  13  14
ATOM     14  N   UNL     1       4.866   4.515  17.687  0.00  0.00    +0.000 NA
ATOM     15  C   UNL     1       4.170   3.293  17.249  0.00  0.00    +0.000 C 
BRANCH  14  16
ATOM     16  C   UNL     1       6.243   4.554  17.143  0.00  0.00    +0.000 C 
BRANCH  16  17
ATOM     17  C   UNL     1       6.455   5.622  16.048  0.00  0.00    +0.000 C 
ATOM     18  C   UNL     1       5.229   6.516  15.854  0.00  0.00    +0.000 C 
BRANCH  17  21
ATOM     19  C   UNL     1       6.176   3.536  12.889  0.00  0.00    +0.000 C 
ATOM     20  N   UNL     1       5.900   4.187  14.136  0.00  0.00    +0.000 N 
ATOM     21  C   UNL     1       6.848   5.015  14.708  0.00  0.00    +0.000 C 
ATOM     22  O   UNL     1       7.909   5.301  14.159  0.00  0.00    +0.000 OA
ATOM     23  H   UNL     1       5.165   3.816  14.719  0.00  0.00    +0.000 HD
ENDBRANCH  17  21
ENDBRANCH  16  17
ENDBRANCH  14  16
ENDBRANCH  13  14
ENDBRANCH   1  13
TORSDOF 6
ENDMDL
MODEL 6
REMARK VINA RESULT:      -6.7      1.396      1.762
REMARK  Name = 
REMARK  10 active torsions:
REMARK  status: ('A' for Active; 'I' for Inactive)
REMARK    1  A    between atoms: C_1  and  N_2
REMARK    2  A    between atoms: C_3  and  C_5
REMARK    3  A    between atoms: C_5  and  C_6
REMARK    4  A    between atoms: C_5  and  C_7
REMARK    5  A    between atoms: C_7  and  N_8
REMARK    6  A    between atoms: N_8  and  C_9
REMARK    7  A    between atoms: N_8  and  C_10
REMARK    8  A    between atoms: C_10  and  C_11
REMARK    9  A    between atoms: C_16  and  C_17
REMARK   10  A    between atoms: N_21  and  C_22
REMARK                            x       y       z     vdW  Elec       q    Type
REMARK                         _______ _______ _______ _____ _____    ______ ____
ROOT
ATOM      1  C   UNL     1       2.856   6.052  18.352  0.00  0.00    +0.000 A 
ATOM      2  C   UNL     1       2.909   7.383  17.854  0.00  0.00    +0.000 A 
ATOM      3  C   UNL     1       2.335   8.460  18.525  0.00  0.00    +0.000 A 
ATOM      4  C   UNL     1       1.704   8.240  19.731  0.00  0.00    +0.000 A 
ATOM      5  C   UNL     1       1.664   6.949  20.257  0.00  0.00    +0.000 A 
ATOM      6  C   UNL     1       2.225   5.821  19.595  0.00  0.00    +0.000 A 
ENDROOT
BRANCH   6   7
ATOM      7  C   UNL     1       1.992   4.528  20.291  0.00  0.00    +0.000 A 
ATOM      8  C   UNL     1       2.472   4.190  21.556  0.00  0.00    +0.000 A 
ATOM      9  C   UNL     1       2.178   2.837  21.755  0.00  0.00    +0.000 A 
ATOM     10  N   UNL     1       1.541   2.319  20.714  0.00  0.00    +0.000 NA
ATOM     11  N   UNL     1       1.419   3.352  19.843  0.00  0.00    +0.000 N 
ATOM     12  C   UNL     1       0.822   3.033  18.572  0.00  0.00    +0.000 C 
ENDBRANCH   6   7
BRANCH   1  13
ATOM     13  C   UNL     1       3.556   5.034  17.472  0.00  0.00    +0.000 C 
BRANCH  13  14
ATOM     14  N   UNL     1       5.008   5.177  17.281  0.00  0.00    +0.000 NA
ATOM     15  C   UNL     1       5.487   4.005  16.528  0.00  0.00    +0.000 C 
BRANCH  14  16
ATOM     16  C   UNL     1       5.745   5.312  18.559  0.00  0.00    +0.000 C 
BRANCH  16  17
ATOM     17  C   UNL     1       7.267   5.510  18.387  0.00  0.00    +0.000 C 
ATOM     18  C   UNL     1       8.017   5.485  19.720  0.00  0.00    +0.000 C 
BRANCH  17  21
ATOM     19  C   UNL     1       8.306   9.122  17.858  0.00  0.00    +0.000 C 
ATOM     20  N   UNL     1       7.993   7.854  18.447  0.00  0.00    +0.000 N 
ATOM     21  C   UNL     1       7.609   6.795  17.645  0.00  0.00    +0.000 C 
ATOM     22  O   UNL     1       7.600   6.851  16.418  0.00  0.00    +0.000 OA
ATOM     23  H   UNL     1       7.768   7.824  19.431  0.00  0.00    +0.000 HD
ENDBRANCH  17  21
ENDBRANCH  16  17
ENDBRANCH  14  16
ENDBRANCH  13  14
ENDBRANCH   1  13
TORSDOF 6
ENDMDL
MODEL 7
REMARK VINA RESULT:      -6.7      3.275      6.404
REMARK  Name = 
REMARK  10 active torsions:
REMARK  status: ('A' for Active; 'I' for Inactive)
REMARK    1  A    between atoms: C_1  and  N_2
REMARK    2  A    between atoms: C_3  and  C_5
REMARK    3  A    between atoms: C_5  and  C_6
REMARK    4  A    between atoms: C_5  and  C_7
REMARK    5  A    between atoms: C_7  and  N_8
REMARK    6  A    between atoms: N_8  and  C_9
REMARK    7  A    between atoms: N_8  and  C_10
REMARK    8  A    between atoms: C_10  and  C_11
REMARK    9  A    between atoms: C_16  and  C_17
REMARK   10  A    between atoms: N_21  and  C_22
REMARK                            x       y       z     vdW  Elec       q    Type
REMARK                         _______ _______ _______ _____ _____    ______ ____
ROOT
ATOM      1  C   UNL     1       2.440   4.911  19.258  0.00  0.00    +0.000 A 
ATOM      2  C   UNL     1       1.273   4.448  19.925  0.00  0.00    +0.000 A 
ATOM      3  C   UNL     1       0.821   3.134  19.828  0.00  0.00    +0.000 A 
ATOM      4  C   UNL     1       1.539   2.233  19.070  0.00  0.00    +0.000 A 
ATOM      5  C   UNL     1       2.705   2.652  18.429  0.00  0.00    +0.000 A 
ATOM      6  C   UNL     1       3.190   3.989  18.493  0.00  0.00    +0.000 A 
ENDROOT
BRANCH   6   7
ATOM      7  C   UNL     1       4.399   4.236  17.664  0.00  0.00    +0.000 A 
ATOM      8  C   UNL     1       4.563   3.854  16.333  0.00  0.00    +0.000 A 
ATOM      9  C   UNL     1       5.894   4.118  15.994  0.00  0.00    +0.000 A 
ATOM     10  N   UNL     1       6.560   4.646  17.012  0.00  0.00    +0.000 NA
ATOM     11  N   UNL     1       5.645   4.728  18.010  0.00  0.00    +0.000 N 
ATOM     12  C   UNL     1       6.140   5.203  19.276  0.00  0.00    +0.000 C 
ENDBRANCH   6   7
BRANCH   1  13
ATOM     13  C   UNL     1       2.760   6.371  19.511  0.00  0.00    +0.000 C 
BRANCH  13  14
ATOM     14  N   UNL     1       2.270   7.358  18.535  0.00  0.00    +0.000 NA
ATOM     15  C   UNL     1       3.368   7.660  17.601  0.00  0.00    +0.000 C 
BRANCH  14  16
ATOM     16  C   UNL     1       1.773   8.599  19.173  0.00  0.00    +0.000 C 
BRANCH  16  17
ATOM     17  C   UNL     1       1.235   9.646  18.172  0.00  0.00    +0.000 C 
ATOM     18  C   UNL     1       2.068  10.930  18.162  0.00  0.00    +0.000 C 
BRANCH  17  21
ATOM     19  C   UNL     1      -2.418  10.344  17.417  0.00  0.00    +0.000 C 
ATOM     20  N   UNL     1      -1.033   9.994  17.302  0.00  0.00    +0.000 N 
ATOM     21  C   UNL     1      -0.224   9.999  18.424  0.00  0.00    +0.000 C 
ATOM     22  O   UNL     1      -0.649  10.209  19.557  0.00  0.00    +0.000 OA
ATOM     23  H   UNL     1      -0.600  10.039  16.392  0.00  0.00    +0.000 HD
ENDBRANCH  17  21
ENDBRANCH  16  17
ENDBRANCH  14  16
ENDBRANCH  13  14
ENDBRANCH   1  13
TORSDOF 6
ENDMDL
MODEL 8
REMARK VINA RESULT:      -6.6      1.213      1.910
REMARK  Name = 
REMARK  10 active torsions:
REMARK  status: ('A' for Active; 'I' for Inactive)
REMARK    1  A    between atoms: C_1  and  N_2
REMARK    2  A    between atoms: C_3  and  C_5
REMARK    3  A    between atoms: C_5  and  C_6
REMARK    4  A    between atoms: C_5  and  C_7
REMARK    5  A    between atoms: C_7  and  N_8
REMARK    6  A    between atoms: N_8  and  C_9
REMARK    7  A    between atoms: N_8  and  C_10
REMARK    8  A    between atoms: C_10  and  C_11
REMARK    9  A    between atoms: C_16  and  C_17
REMARK   10  A    between atoms: N_21  and  C_22
REMARK                            x       y       z     vdW  Elec       q    Type
REMARK                         _______ _______ _______ _____ _____    ______ ____
ROOT
ATOM      1  C   UNL     1       2.686   6.046  18.512  0.00  0.00    +0.000 A 
ATOM      2  C   UNL     1       2.722   7.404  18.093  0.00  0.00    +0.000 A 
ATOM      3  C   UNL     1       2.175   8.440  18.847  0.00  0.00    +0.000 A 
ATOM      4  C   UNL     1       1.590   8.148  20.061  0.00  0.00    +0.000 A 
ATOM      5  C   UNL     1       1.568   6.828  20.511  0.00  0.00    +0.000 A 
ATOM      6  C   UNL     1       2.102   5.741  19.763  0.00  0.00    +0.000 A 
ENDROOT
BRANCH   6   7
ATOM      7  C   UNL     1       1.893   4.410  20.390  0.00  0.00    +0.000 A 
ATOM      8  C   UNL     1       2.390   4.010  21.630  0.00  0.00    +0.000 A 
ATOM      9  C   UNL     1       2.117   2.644  21.757  0.00  0.00    +0.000 A 
ATOM     10  N   UNL     1       1.478   2.175  20.695  0.00  0.00    +0.000 NA
ATOM     11  N   UNL     1       1.334   3.251  19.882  0.00  0.00    +0.000 N 
ATOM     12  C   UNL     1       0.730   2.992  18.601  0.00  0.00    +0.000 C 
ENDBRANCH   6   7
BRANCH   1  13
ATOM     13  C   UNL     1       3.350   5.083  17.547  0.00  0.00    +0.000 C 
BRANCH  13  14
ATOM     14  N   UNL     1       4.460   4.261  18.056  0.00  0.00    +0.000 NA
ATOM     15  C   UNL     1       5.100   4.992  19.163  0.00  0.00    +0.000 C 
BRANCH  14  16
ATOM     16  C   UNL     1       5.454   3.927  17.009  0.00  0.00    +0.000 C 
BRANCH  16  17
ATOM     17  C   UNL     1       5.544   4.970  15.874  0.00  0.00    +0.000 C 
ATOM     18  C   UNL     1       5.633   4.325  14.489  0.00  0.00    +0.000 C 
BRANCH  17  21
ATOM     19  C   UNL     1       7.608   7.795  17.344  0.00  0.00    +0.000 C 
ATOM     20  N   UNL     1       6.583   6.823  17.102  0.00  0.00    +0.000 N 
ATOM     21  C   UNL     1       6.710   5.930  16.053  0.00  0.00    +0.000 C 
ATOM     22  O   UNL     1       7.714   5.863  15.348  0.00  0.00    +0.000 OA
ATOM     23  H   UNL     1       5.667   6.984  17.493  0.00  0.00    +0.000 HD
ENDBRANCH  17  21
ENDBRANCH  16  17
ENDBRANCH  14  16
ENDBRANCH  13  14
ENDBRANCH   1  13
TORSDOF 6
ENDMDL
MODEL 9
REMARK VINA RESULT:      -6.6      3.346      6.531
REMARK  Name = 
REMARK  10 active torsions:
REMARK  status: ('A' for Active; 'I' for Inactive)
REMARK    1  A    between atoms: C_1  and  N_2
REMARK    2  A    between atoms: C_3  and  C_5
REMARK    3  A    between atoms: C_5  and  C_6
REMARK    4  A    between atoms: C_5  and  C_7
REMARK    5  A    between atoms: C_7  and  N_8
REMARK    6  A    between atoms: N_8  and  C_9
REMARK    7  A    between atoms: N_8  and  C_10
REMARK    8  A    between atoms: C_10  and  C_11
REMARK    9  A    between atoms: C_16  and  C_17
REMARK   10  A    between atoms: N_21  and  C_22
REMARK                            x       y       z     vdW  Elec       q    Type
REMARK                         _______ _______ _______ _____ _____    ______ ____
ROOT
ATOM      1  C   UNL     1       2.921   5.083  18.625  0.00  0.00    +0.000 A 
ATOM      2  C   UNL     1       1.690   4.373  18.665  0.00  0.00    +0.000 A 
ATOM      3  C   UNL     1       1.559   3.066  18.201  0.00  0.00    +0.000 A 
ATOM      4  C   UNL     1       2.668   2.419  17.698  0.00  0.00    +0.000 A 
ATOM      5  C   UNL     1       3.896   3.082  17.675  0.00  0.00    +0.000 A 
ATOM      6  C   UNL     1       4.066   4.421  18.125  0.00  0.00    +0.000 A 
ENDROOT
BRANCH   6   7
ATOM      7  C   UNL     1       5.437   4.960  17.929  0.00  0.00    +0.000 A 
ATOM      8  C   UNL     1       6.352   5.240  18.943  0.00  0.00    +0.000 A 
ATOM      9  C   UNL     1       7.438   5.889  18.345  0.00  0.00    +0.000 A 
ATOM     10  N   UNL     1       7.267   6.017  17.037  0.00  0.00    +0.000 NA
ATOM     11  N   UNL     1       6.064   5.440  16.793  0.00  0.00    +0.000 N 
ATOM     12  C   UNL     1       5.596   5.517  15.433  0.00  0.00    +0.000 C 
ENDBRANCH   6   7
BRANCH   1  13
ATOM     13  C   UNL     1       2.845   6.487  19.193  0.00  0.00    +0.000 C 
BRANCH  13  14
ATOM     14  N   UNL     1       2.300   7.546  18.329  0.00  0.00    +0.000 NA
ATOM     15  C   UNL     1       3.365   7.977  17.407  0.00  0.00    +0.000 C 
BRANCH  14  16
ATOM     16  C   UNL     1       1.775   8.701  19.095  0.00  0.00    +0.000 C 
BRANCH  16  17
ATOM     17  C   UNL     1       1.190   9.825  18.212  0.00  0.00    +0.000 C 
ATOM     18  C   UNL     1       1.911  11.161  18.408  0.00  0.00    +0.000 C 
BRANCH  17  21
ATOM     19  C   UNL     1      -2.493  10.202  17.377  0.00  0.00    +0.000 C 
ATOM     20  N   UNL     1      -1.078   9.992  17.289  0.00  0.00    +0.000 N 
ATOM     21  C   UNL     1      -0.302  10.026  18.434  0.00  0.00    +0.000 C 
ATOM     22  O   UNL     1      -0.775  10.144  19.561  0.00  0.00    +0.000 OA
ATOM     23  H   UNL     1      -0.628  10.118  16.395  0.00  0.00    +0.000 HD
ENDBRANCH  17  21
ENDBRANCH  16  17
ENDBRANCH  14  16
ENDBRANCH  13  14
ENDBRANCH   1  13
TORSDOF 6
ENDMDL
