MODEL 1
REMARK VINA RESULT:      -7.2      0.000      0.000
REMARK  Name = 
REMARK  8 active torsions:
REMARK  status: ('A' for Active; 'I' for Inactive)
REMARK    1  A    between atoms: C_1  and  C_2
REMARK    2  A    between atoms: C_2  and  N_3
REMARK    3  A    between atoms: N_3  and  C_20
REMARK    4  A    between atoms: C_4  and  C_6
REMARK    5  A    between atoms: C_6  and  N_7
REMARK    6  A    between atoms: C_11  and  C_12
REMARK    7  A    between atoms: C_15  and  O_16
REMARK    8  A    between atoms: O_16  and  C_17
REMARK                            x       y       z     vdW  Elec       q    Type
REMARK                         _______ _______ _______ _____ _____    ______ ____
ROOT
ATOM      1  N   UNL     1       3.088   3.711  20.643  0.00  0.00    +0.000 NA
ATOM      2  C   UNL     1       2.472   3.030  21.777  0.00  0.00    +0.000 C 
ATOM      3  C   UNL     1       1.114   2.553  21.292  0.00  0.00    +0.000 C 
ATOM      4  C   UNL     1       0.726   3.555  20.223  0.00  0.00    +0.000 C 
ATOM      5  C   UNL     1       2.061   4.049  19.654  0.00  0.00    +0.000 C 
ENDROOT
BRANCH   5   6
ATOM      6  C   UNL     1       2.053   5.550  19.413  0.00  0.00    +0.000 A 
ATOM      7  C   UNL     1       2.282   6.068  18.125  0.00  0.00    +0.000 A 
ATOM      8  C   UNL     1       2.275   7.437  17.893  0.00  0.00    +0.000 A 
ATOM      9  C   UNL     1       2.008   8.321  18.936  0.00  0.00    +0.000 A 
ATOM     10  C   UNL     1       1.777   7.821  20.219  0.00  0.00    +0.000 A 
ATOM     11  C   UNL     1       1.798   6.441  20.454  0.00  0.00    +0.000 A 
BRANCH   9  12
ATOM     12  O   UNL     1       2.036   9.644  18.594  0.00  0.00    +0.000 OA
ATOM     13  C   UNL     1       1.081  10.466  19.252  0.00  0.00    +0.000 C 
ENDBRANCH   9  12
ENDBRANCH   5   6
BRANCH   1  14
ATOM     14  C   UNL     1       4.308   3.099  20.094  0.00  0.00    +0.000 C 
BRANCH  14  16
ATOM     15  N   UNL     1       5.306   4.436  18.197  0.00  0.00    +0.000 N 
ATOM     16  C   UNL     1       4.454   3.381  18.578  0.00  0.00    +0.000 C 
ATOM     17  O   UNL     1       3.817   2.724  17.745  0.00  0.00    +0.000 OA
BRANCH  15  18
ATOM     18  C   UNL     1       5.530   4.640  16.797  0.00  0.00    +0.000 A 
ATOM     19  C   UNL     1       6.205   3.682  16.031  0.00  0.00    +0.000 A 
ATOM     20  C   UNL     1       6.494   3.927  14.685  0.00  0.00    +0.000 A 
ATOM     21  C   UNL     1       6.082   5.117  14.087  0.00  0.00    +0.000 A 
ATOM     22  C   UNL     1       5.390   6.067  14.834  0.00  0.00    +0.000 A 
ATOM     23  C   UNL     1       5.128   5.835  16.187  0.00  0.00    +0.000 A 
ENDBRANCH  15  18
BRANCH  15  25
ATOM     24  C   UNL     1       7.454   5.440  19.002  0.00  0.00    +0.000 C 
ATOM     25  C   UNL     1       5.934   5.398  19.120  0.00  0.00    +0.000 C 
ENDBRANCH  15  25
ENDBRANCH  14  16
ENDBRANCH   1  14
TORSDOF 6
ENDMDL
MODEL 2
REMARK VINA RESULT:      -7.2      2.219      6.697
REMARK  Name = 
REMARK  8 active torsions:
REMARK  status: ('A' for Active; 'I' for Inactive)
REMARK    1  A    between atoms: C_1  and  C_2
REMARK    2  A    between atoms: C_2  and  N_3
REMARK    3  A    between atoms: N_3  and  C_20
REMARK    4  A    between atoms: C_4  and  C_6
REMARK    5  A    between atoms: C_6  and  N_7
REMARK    6  A    between atoms: C_11  and  C_12
REMARK    7  A    between atoms: C_15  and  O_16
REMARK    8  A    between atoms: O_16  and  C_17
REMARK                            x       y       z     vdW  Elec       q    Type
REMARK                         _______ _______ _______ _____ _____    ______ ____
ROOT
ATOM      1  N   UNL     1       2.762   5.604  18.403  0.00  0.00    +0.000 NA
ATOM      2  C   UNL     1       1.483   4.940  18.170  0.00  0.00    +0.000 C 
ATOM      3  C   UNL     1       1.668   3.503  18.626  0.00  0.00    +0.000 C 
ATOM      4  C   UNL     1       3.143   3.231  18.415  0.00  0.00    +0.000 C 
ATOM      5  C   UNL     1       3.816   4.600  18.569  0.00  0.00    +0.000 C 
ENDROOT
BRANCH   5   6
ATOM      6  C   UNL     1       4.903   4.817  17.528  0.00  0.00    +0.000 A 
ATOM      7  C   UNL     1       4.854   4.146  16.293  0.00  0.00    +0.000 A 
ATOM      8  C   UNL     1       5.841   4.339  15.335  0.00  0.00    +0.000 A 
ATOM      9  C   UNL     1       6.884   5.230  15.575  0.00  0.00    +0.000 A 
ATOM     10  C   UNL     1       6.944   5.904  16.796  0.00  0.00    +0.000 A 
ATOM     11  C   UNL     1       5.956   5.699  17.767  0.00  0.00    +0.000 A 
BRANCH   9  12
ATOM     12  O   UNL     1       7.800   5.333  14.567  0.00  0.00    +0.000 OA
ATOM     13  C   UNL     1       7.346   4.926  13.283  0.00  0.00    +0.000 C 
ENDBRANCH   9  12
ENDBRANCH   5   6
BRANCH   1  14
ATOM     14  C   UNL     1       2.767   6.686  19.400  0.00  0.00    +0.000 C 
BRANCH  14  16
ATOM     15  N   UNL     1       1.279   8.696  19.754  0.00  0.00    +0.000 N 
ATOM     16  C   UNL     1       2.082   7.964  18.857  0.00  0.00    +0.000 C 
ATOM     17  O   UNL     1       2.213   8.302  17.674  0.00  0.00    +0.000 OA
BRANCH  15  18
ATOM     18  C   UNL     1       0.725   9.935  19.294  0.00  0.00    +0.000 A 
ATOM     19  C   UNL     1       1.527  11.074  19.159  0.00  0.00    +0.000 A 
ATOM     20  C   UNL     1       0.961  12.299  18.791  0.00  0.00    +0.000 A 
ATOM     21  C   UNL     1      -0.404  12.387  18.523  0.00  0.00    +0.000 A 
ATOM     22  C   UNL     1      -1.206  11.254  18.632  0.00  0.00    +0.000 A 
ATOM     23  C   UNL     1      -0.647  10.037  19.029  0.00  0.00    +0.000 A 
ENDBRANCH  15  18
BRANCH  15  25
ATOM     24  C   UNL     1       1.298   9.255  22.194  0.00  0.00    +0.000 C 
ATOM     25  C   UNL     1       0.900   8.259  21.109  0.00  0.00    +0.000 C 
ENDBRANCH  15  25
ENDBRANCH  14  16
ENDBRANCH   1  14
TORSDOF 6
ENDMDL
MODEL 3
REMARK VINA RESULT:      -7.2      2.233      6.789
REMARK  Name = 
REMARK  8 active torsions:
REMARK  status: ('A' for Active; 'I' for Inactive)
REMARK    1  A    between atoms: C_1  and  C_2
REMARK    2  A    between atoms: C_2  and  N_3
REMARK    3  A    between atoms: N_3  and  C_20
REMARK    4  A    between atoms: C_4  and  C_6
REMARK    5  A    between atoms: C_6  and  N_7
REMARK    6  A    between atoms: C_11  and  C_12
REMARK    7  A    between atoms: C_15  and  O_16
REMARK    8  A    between atoms: O_16  and  C_17
REMARK                            x       y       z     vdW  Elec       q    Type
REMARK                         _______ _______ _______ _____ _____    ______ ____
ROOT
ATOM      1  N   UNL     1       2.813   5.647  18.157  0.00  0.00    +0.000 NA
ATOM      2  C   UNL     1       1.506   5.036  17.937  0.00  0.00    +0.000 C 
ATOM      3  C   UNL     1       1.653   3.578  18.336  0.00  0.00    +0.000 C 
ATOM      4  C   UNL     1       3.112   3.263  18.073  0.00  0.00    +0.000 C 
ATOM      5  C   UNL     1       3.836   4.602  18.256  0.00  0.00    +0.000 C 
ENDROOT
BRANCH   5   6
ATOM      6  C   UNL     1       4.901   4.820  17.194  0.00  0.00    +0.000 A 
ATOM      7  C   UNL     1       6.022   5.626  17.462  0.00  0.00    +0.000 A 
ATOM      8  C   UNL     1       7.002   5.831  16.498  0.00  0.00    +0.000 A 
ATOM      9  C   UNL     1       6.900   5.211  15.255  0.00  0.00    +0.000 A 
ATOM     10  C   UNL     1       5.793   4.408  14.976  0.00  0.00    +0.000 A 
ATOM     11  C   UNL     1       4.799   4.213  15.943  0.00  0.00    +0.000 A 
BRANCH   9  12
ATOM     12  O   UNL     1       7.916   5.491  14.384  0.00  0.00    +0.000 OA
ATOM     13  C   UNL     1       7.714   5.053  13.048  0.00  0.00    +0.000 C 
ENDBRANCH   9  12
ENDBRANCH   5   6
BRANCH   1  14
ATOM     14  C   UNL     1       2.884   6.690  19.192  0.00  0.00    +0.000 C 
BRANCH  14  16
ATOM     15  N   UNL     1       1.375   8.645  19.727  0.00  0.00    +0.000 N 
ATOM     16  C   UNL     1       2.144   7.978  18.753  0.00  0.00    +0.000 C 
ATOM     17  O   UNL     1       2.203   8.378  17.583  0.00  0.00    +0.000 OA
BRANCH  15  18
ATOM     18  C   UNL     1       0.772   9.892  19.362  0.00  0.00    +0.000 A 
ATOM     19  C   UNL     1      -0.606   9.982  19.130  0.00  0.00    +0.000 A 
ATOM     20  C   UNL     1      -1.172  11.183  18.692  0.00  0.00    +0.000 A 
ATOM     21  C   UNL     1      -0.372  12.311  18.515  0.00  0.00    +0.000 A 
ATOM     22  C   UNL     1       0.995  12.237  18.765  0.00  0.00    +0.000 A 
ATOM     23  C   UNL     1       1.567  11.030  19.173  0.00  0.00    +0.000 A 
ENDBRANCH  15  18
BRANCH  15  25
ATOM     24  C   UNL     1       1.304   9.166  22.176  0.00  0.00    +0.000 C 
ATOM     25  C   UNL     1       1.081   8.131  21.077  0.00  0.00    +0.000 C 
ENDBRANCH  15  25
ENDBRANCH  14  16
ENDBRANCH   1  14
TORSDOF 6
ENDMDL
MODEL 4
REMARK VINA RESULT:      -7.2      1.539      2.052
REMARK  Name = 
REMARK  8 active torsions:
REMARK  status: ('A' for Active; 'I' for Inactive)
REMARK    1  A    between atoms: C_1  and  C_2
REMARK    2  A    between atoms: C_2  and  N_3
REMARK    3  A    between atoms: N_3  and  C_20
REMARK    4  A    between atoms: C_4  and  C_6
REMARK    5  A    between atoms: C_6  and  N_7
REMARK    6  A    between atoms: C_11  and  C_12
REMARK    7  A    between atoms: C_15  and  O_16
REMARK    8  A    between atoms: O_16  and  C_17
REMARK                            x       y       z     vdW  Elec       q    Type
REMARK                         _______ _______ _______ _____ _____    ______ ____
ROOT
ATOM      1  N   UNL     1       3.655   4.718  19.117  0.00  0.00    +0.000 NA
ATOM      2  C   UNL     1       3.093   3.424  19.492  0.00  0.00    +0.000 C 
ATOM      3  C   UNL     1       2.094   3.071  18.404  0.00  0.00    +0.000 C 
ATOM      4  C   UNL     1       1.611   4.412  17.890  0.00  0.00    +0.000 C 
ATOM      5  C   UNL     1       2.788   5.365  18.129  0.00  0.00    +0.000 C 
ENDROOT
BRANCH   5   6
ATOM      6  C   UNL     1       2.327   6.715  18.653  0.00  0.00    +0.000 A 
ATOM      7  C   UNL     1       2.200   7.813  17.784  0.00  0.00    +0.000 A 
ATOM      8  C   UNL     1       1.777   9.051  18.252  0.00  0.00    +0.000 A 
ATOM      9  C   UNL     1       1.443   9.213  19.594  0.00  0.00    +0.000 A 
ATOM     10  C   UNL     1       1.563   8.131  20.468  0.00  0.00    +0.000 A 
ATOM     11  C   UNL     1       2.002   6.887  19.998  0.00  0.00    +0.000 A 
BRANCH   9  12
ATOM     12  O   UNL     1       1.049  10.474  19.944  0.00  0.00    +0.000 OA
ATOM     13  C   UNL     1       0.676  11.320  18.864  0.00  0.00    +0.000 C 
ENDBRANCH   9  12
ENDBRANCH   5   6
BRANCH   1  14
ATOM     14  C   UNL     1       5.091   4.742  18.800  0.00  0.00    +0.000 C 
BRANCH  14  16
ATOM     15  N   UNL     1       5.855   5.294  16.456  0.00  0.00    +0.000 N 
ATOM     16  C   UNL     1       5.359   4.312  17.337  0.00  0.00    +0.000 C 
ATOM     17  O   UNL     1       5.111   3.161  16.957  0.00  0.00    +0.000 OA
BRANCH  15  18
ATOM     18  C   UNL     1       6.204   4.884  15.128  0.00  0.00    +0.000 A 
ATOM     19  C   UNL     1       7.433   5.247  14.565  0.00  0.00    +0.000 A 
ATOM     20  C   UNL     1       7.729   4.914  13.239  0.00  0.00    +0.000 A 
ATOM     21  C   UNL     1       6.814   4.188  12.479  0.00  0.00    +0.000 A 
ATOM     22  C   UNL     1       5.599   3.803  13.038  0.00  0.00    +0.000 A 
ATOM     23  C   UNL     1       5.289   4.161  14.352  0.00  0.00    +0.000 A 
ENDBRANCH  15  18
BRANCH  15  25
ATOM     24  C   UNL     1       7.299   7.085  17.444  0.00  0.00    +0.000 C 
ATOM     25  C   UNL     1       5.980   6.729  16.765  0.00  0.00    +0.000 C 
ENDBRANCH  15  25
ENDBRANCH  14  16
ENDBRANCH   1  14
TORSDOF 6
ENDMDL
MODEL 5
REMARK VINA RESULT:      -7.1      1.541      2.252
REMARK  Name = 
REMARK  8 active torsions:
REMARK  status: ('A' for Active; 'I' for Inactive)
REMARK    1  A    between atoms: C_1  and  C_2
REMARK    2  A    between atoms: C_2  and  N_3
REMARK    3  A    between atoms: N_3  and  C_20
REMARK    4  A    between atoms: C_4  and  C_6
REMARK    5  A    between atoms: C_6  and  N_7
REMARK    6  A    between atoms: C_11  and  C_12
REMARK    7  A    between atoms: C_15  and  O_16
REMARK    8  A    between atoms: O_16  and  C_17
REMARK                            x       y       z     vdW  Elec       q    Type
REMARK                         _______ _______ _______ _____ _____    ______ ____
ROOT
ATOM      1  N   UNL     1       3.650   4.670  19.127  0.00  0.00    +0.000 NA
ATOM      2  C   UNL     1       3.106   3.381  19.542  0.00  0.00    +0.000 C 
ATOM      3  C   UNL     1       2.094   2.992  18.479  0.00  0.00    +0.000 C 
ATOM      4  C   UNL     1       1.591   4.316  17.939  0.00  0.00    +0.000 C 
ATOM      5  C   UNL     1       2.763   5.284  18.136  0.00  0.00    +0.000 C 
ENDROOT
BRANCH   5   6
ATOM      6  C   UNL     1       2.297   6.643  18.633  0.00  0.00    +0.000 A 
ATOM      7  C   UNL     1       1.999   6.842  19.994  0.00  0.00    +0.000 A 
ATOM      8  C   UNL     1       1.574   8.080  20.459  0.00  0.00    +0.000 A 
ATOM      9  C   UNL     1       1.466   9.157  19.582  0.00  0.00    +0.000 A 
ATOM     10  C   UNL     1       1.759   8.974  18.230  0.00  0.00    +0.000 A 
ATOM     11  C   UNL     1       2.174   7.722  17.759  0.00  0.00    +0.000 A 
BRANCH   9  12
ATOM     12  O   UNL     1       1.031  10.322  20.148  0.00  0.00    +0.000 OA
ATOM     13  C   UNL     1       0.073  10.177  21.188  0.00  0.00    +0.000 C 
ENDBRANCH   9  12
ENDBRANCH   5   6
BRANCH   1  14
ATOM     14  C   UNL     1       5.081   4.699  18.788  0.00  0.00    +0.000 C 
BRANCH  14  16
ATOM     15  N   UNL     1       5.780   5.326  16.443  0.00  0.00    +0.000 N 
ATOM     16  C   UNL     1       5.324   4.313  17.308  0.00  0.00    +0.000 C 
ATOM     17  O   UNL     1       5.089   3.167  16.903  0.00  0.00    +0.000 OA
BRANCH  15  18
ATOM     18  C   UNL     1       6.107   4.958  15.097  0.00  0.00    +0.000 A 
ATOM     19  C   UNL     1       5.204   4.231  14.312  0.00  0.00    +0.000 A 
ATOM     20  C   UNL     1       5.565   3.803  13.031  0.00  0.00    +0.000 A 
ATOM     21  C   UNL     1       6.819   4.127  12.512  0.00  0.00    +0.000 A 
ATOM     22  C   UNL     1       7.715   4.868  13.277  0.00  0.00    +0.000 A 
ATOM     23  C   UNL     1       7.367   5.270  14.569  0.00  0.00    +0.000 A 
ENDBRANCH  15  18
BRANCH  15  25
ATOM     24  C   UNL     1       7.222   7.124  17.422  0.00  0.00    +0.000 C 
ATOM     25  C   UNL     1       5.885   6.755  16.786  0.00  0.00    +0.000 C 
ENDBRANCH  15  25
ENDBRANCH  14  16
ENDBRANCH   1  14
TORSDOF 6
ENDMDL
MODEL 6
REMARK VINA RESULT:      -7.1      2.233      6.570
REMARK  Name = 
REMARK  8 active torsions:
REMARK  status: ('A' for Active; 'I' for Inactive)
REMARK    1  A    between atoms: C_1  and  C_2
REMARK    2  A    between atoms: C_2  and  N_3
REMARK    3  A    between atoms: N_3  and  C_20
REMARK    4  A    between atoms: C_4  and  C_6
REMARK    5  A    between atoms: C_6  and  N_7
REMARK    6  A    between atoms: C_11  and  C_12
REMARK    7  A    between atoms: C_15  and  O_16
REMARK    8  A    between atoms: O_16  and  C_17
REMARK                            x       y       z     vdW  Elec       q    Type
REMARK                         _______ _______ _______ _____ _____    ______ ____
ROOT
ATOM      1  N   UNL     1       2.043   5.598  20.072  0.00  0.00    +0.000 NA
ATOM      2  C   UNL     1       0.934   4.649  20.068  0.00  0.00    +0.000 C 
ATOM      3  C   UNL     1       1.476   3.369  20.680  0.00  0.00    +0.000 C 
ATOM      4  C   UNL     1       2.953   3.390  20.343  0.00  0.00    +0.000 C 
ATOM      5  C   UNL     1       3.308   4.878  20.247  0.00  0.00    +0.000 C 
ENDROOT
BRANCH   5   6
ATOM      6  C   UNL     1       4.231   5.166  19.074  0.00  0.00    +0.000 A 
ATOM      7  C   UNL     1       3.704   5.392  17.789  0.00  0.00    +0.000 A 
ATOM      8  C   UNL     1       4.538   5.658  16.711  0.00  0.00    +0.000 A 
ATOM      9  C   UNL     1       5.916   5.734  16.896  0.00  0.00    +0.000 A 
ATOM     10  C   UNL     1       6.453   5.513  18.165  0.00  0.00    +0.000 A 
ATOM     11  C   UNL     1       5.612   5.232  19.250  0.00  0.00    +0.000 A 
BRANCH   9  12
ATOM     12  O   UNL     1       6.638   5.992  15.764  0.00  0.00    +0.000 OA
ATOM     13  C   UNL     1       6.972   4.856  14.979  0.00  0.00    +0.000 C 
ENDBRANCH   9  12
ENDBRANCH   5   6
BRANCH   1  14
ATOM     14  C   UNL     1       1.882   6.791  20.918  0.00  0.00    +0.000 C 
BRANCH  14  16
ATOM     15  N   UNL     1       0.545   8.909  20.585  0.00  0.00    +0.000 N 
ATOM     16  C   UNL     1       1.532   8.043  20.075  0.00  0.00    +0.000 C 
ATOM     17  O   UNL     1       2.077   8.247  18.983  0.00  0.00    +0.000 OA
BRANCH  15  18
ATOM     18  C   UNL     1       0.286  10.122  19.868  0.00  0.00    +0.000 A 
ATOM     19  C   UNL     1       1.114  11.240  20.026  0.00  0.00    +0.000 A 
ATOM     20  C   UNL     1       0.805  12.445  19.388  0.00  0.00    +0.000 A 
ATOM     21  C   UNL     1      -0.314  12.533  18.562  0.00  0.00    +0.000 A 
ATOM     22  C   UNL     1      -1.131  11.420  18.380  0.00  0.00    +0.000 A 
ATOM     23  C   UNL     1      -0.840  10.224  19.042  0.00  0.00    +0.000 A 
ENDBRANCH  15  18
BRANCH  15  25
ATOM     24  C   UNL     1      -0.108   9.653  22.885  0.00  0.00    +0.000 C 
ATOM     25  C   UNL     1      -0.299   8.638  21.763  0.00  0.00    +0.000 C 
ENDBRANCH  15  25
ENDBRANCH  14  16
ENDBRANCH   1  14
TORSDOF 6
ENDMDL
MODEL 7
REMARK VINA RESULT:      -7.1      1.705      2.358
REMARK  Name = 
REMARK  8 active torsions:
REMARK  status: ('A' for Active; 'I' for Inactive)
REMARK    1  A    between atoms: C_1  and  C_2
REMARK    2  A    between atoms: C_2  and  N_3
REMARK    3  A    between atoms: N_3  and  C_20
REMARK    4  A    between atoms: C_4  and  C_6
REMARK    5  A    between atoms: C_6  and  N_7
REMARK    6  A    between atoms: C_11  and  C_12
REMARK    7  A    between atoms: C_15  and  O_16
REMARK    8  A    between atoms: O_16  and  C_17
REMARK                            x       y       z     vdW  Elec       q    Type
REMARK                         _______ _______ _______ _____ _____    ______ ____
ROOT
ATOM      1  N   UNL     1       4.084   4.099  18.767  0.00  0.00    +0.000 NA
ATOM      2  C   UNL     1       3.656   2.719  18.975  0.00  0.00    +0.000 C 
ATOM      3  C   UNL     1       2.612   2.439  17.908  0.00  0.00    +0.000 C 
ATOM      4  C   UNL     1       1.986   3.792  17.633  0.00  0.00    +0.000 C 
ATOM      5  C   UNL     1       3.098   4.802  17.941  0.00  0.00    +0.000 C 
ENDROOT
BRANCH   5   6
ATOM      6  C   UNL     1       2.569   6.015  18.690  0.00  0.00    +0.000 A 
ATOM      7  C   UNL     1       2.508   7.271  18.062  0.00  0.00    +0.000 A 
ATOM      8  C   UNL     1       2.025   8.386  18.737  0.00  0.00    +0.000 A 
ATOM      9  C   UNL     1       1.564   8.264  20.046  0.00  0.00    +0.000 A 
ATOM     10  C   UNL     1       1.618   7.023  20.681  0.00  0.00    +0.000 A 
ATOM     11  C   UNL     1       2.118   5.903  20.005  0.00  0.00    +0.000 A 
BRANCH   9  12
ATOM     12  O   UNL     1       1.120   9.426  20.612  0.00  0.00    +0.000 OA
ATOM     13  C   UNL     1       1.010   9.413  22.029  0.00  0.00    +0.000 C 
ENDBRANCH   9  12
ENDBRANCH   5   6
BRANCH   1  14
ATOM     14  C   UNL     1       5.487   4.298  18.370  0.00  0.00    +0.000 C 
BRANCH  14  16
ATOM     15  N   UNL     1       6.038   5.100  16.039  0.00  0.00    +0.000 N 
ATOM     16  C   UNL     1       5.700   4.009  16.864  0.00  0.00    +0.000 C 
ATOM     17  O   UNL     1       5.542   2.870  16.407  0.00  0.00    +0.000 OA
BRANCH  15  18
ATOM     18  C   UNL     1       6.339   4.829  14.665  0.00  0.00    +0.000 A 
ATOM     19  C   UNL     1       5.512   3.999  13.899  0.00  0.00    +0.000 A 
ATOM     20  C   UNL     1       5.860   3.672  12.584  0.00  0.00    +0.000 A 
ATOM     21  C   UNL     1       7.018   4.199  12.015  0.00  0.00    +0.000 A 
ATOM     22  C   UNL     1       7.835   5.043  12.762  0.00  0.00    +0.000 A 
ATOM     23  C   UNL     1       7.505   5.345  14.085  0.00  0.00    +0.000 A 
ENDBRANCH  15  18
BRANCH  15  25
ATOM     24  C   UNL     1       7.275   6.900  17.264  0.00  0.00    +0.000 C 
ATOM     25  C   UNL     1       6.040   6.513  16.456  0.00  0.00    +0.000 C 
ENDBRANCH  15  25
ENDBRANCH  14  16
ENDBRANCH   1  14
TORSDOF 6
ENDMDL
MODEL 8
REMARK VINA RESULT:      -7.1      2.214      2.909
REMARK  Name = 
REMARK  8 active torsions:
REMARK  status: ('A' for Active; 'I' for Inactive)
REMARK    1  A    between atoms: C_1  and  C_2
REMARK    2  A    between atoms: C_2  and  N_3
REMARK    3  A    between atoms: N_3  and  C_20
REMARK    4  A    between atoms: C_4  and  C_6
REMARK    5  A    between atoms: C_6  and  N_7
REMARK    6  A    between atoms: C_11  and  C_12
REMARK    7  A    between atoms: C_15  and  O_16
REMARK    8  A    between atoms: O_16  and  C_17
REMARK                            x       y       z     vdW  Elec       q    Type
REMARK                         _______ _______ _______ _____ _____    ______ ____
ROOT
ATOM      1  N   UNL     1       4.361   6.088  18.567  0.00  0.00    +0.000 NA
ATOM      2  C   UNL     1       4.372   4.675  18.933  0.00  0.00    +0.000 C 
ATOM      3  C   UNL     1       3.342   4.004  18.041  0.00  0.00    +0.000 C 
ATOM      4  C   UNL     1       2.329   5.094  17.753  0.00  0.00    +0.000 C 
ATOM      5  C   UNL     1       3.132   6.398  17.832  0.00  0.00    +0.000 C 
ENDROOT
BRANCH   5   6
ATOM      6  C   UNL     1       2.363   7.493  18.553  0.00  0.00    +0.000 A 
ATOM      7  C   UNL     1       1.931   8.638  17.859  0.00  0.00    +0.000 A 
ATOM      8  C   UNL     1       1.226   9.644  18.509  0.00  0.00    +0.000 A 
ATOM      9  C   UNL     1       0.910   9.516  19.859  0.00  0.00    +0.000 A 
ATOM     10  C   UNL     1       1.332   8.385  20.560  0.00  0.00    +0.000 A 
ATOM     11  C   UNL     1       2.054   7.378  19.908  0.00  0.00    +0.000 A 
BRANCH   9  12
ATOM     12  O   UNL     1       0.222  10.570  20.394  0.00  0.00    +0.000 OA
ATOM     13  C   UNL     1       0.194  11.748  19.600  0.00  0.00    +0.000 C 
ENDBRANCH   9  12
ENDBRANCH   5   6
BRANCH   1  14
ATOM     14  C   UNL     1       5.597   6.620  17.971  0.00  0.00    +0.000 C 
BRANCH  14  16
ATOM     15  N   UNL     1       6.497   5.162  16.115  0.00  0.00    +0.000 N 
ATOM     16  C   UNL     1       5.700   6.270  16.466  0.00  0.00    +0.000 C 
ATOM     17  O   UNL     1       5.132   6.961  15.611  0.00  0.00    +0.000 OA
BRANCH  15  18
ATOM     18  C   UNL     1       6.518   4.765  14.738  0.00  0.00    +0.000 A 
ATOM     19  C   UNL     1       5.558   3.879  14.232  0.00  0.00    +0.000 A 
ATOM     20  C   UNL     1       5.637   3.431  12.910  0.00  0.00    +0.000 A 
ATOM     21  C   UNL     1       6.654   3.891  12.074  0.00  0.00    +0.000 A 
ATOM     22  C   UNL     1       7.599   4.789  12.562  0.00  0.00    +0.000 A 
ATOM     23  C   UNL     1       7.540   5.213  13.892  0.00  0.00    +0.000 A 
ENDBRANCH  15  18
BRANCH  15  25
ATOM     24  C   UNL     1       7.900   5.269  18.186  0.00  0.00    +0.000 C 
ATOM     25  C   UNL     1       7.371   4.416  17.037  0.00  0.00    +0.000 C 
ENDBRANCH  15  25
ENDBRANCH  14  16
ENDBRANCH   1  14
TORSDOF 6
ENDMDL
MODEL 9
REMARK VINA RESULT:      -7.0      1.452      1.880
REMARK  Name = 
REMARK  8 active torsions:
REMARK  status: ('A' for Active; 'I' for Inactive)
REMARK    1  A    between atoms: C_1  and  C_2
REMARK    2  A    between atoms: C_2  and  N_3
REMARK    3  A    between atoms: N_3  and  C_20
REMARK    4  A    between atoms: C_4  and  C_6
REMARK    5  A    between atoms: C_6  and  N_7
REMARK    6  A    between atoms: C_11  and  C_12
REMARK    7  A    between atoms: C_15  and  O_16
REMARK    8  A    between atoms: O_16  and  C_17
REMARK                            x       y       z     vdW  Elec       q    Type
REMARK                         _______ _______ _______ _____ _____    ______ ____
ROOT
ATOM      1  N   UNL     1       3.729   4.923  19.603  0.00  0.00    +0.000 NA
ATOM      2  C   UNL     1       3.241   3.683  20.198  0.00  0.00    +0.000 C 
ATOM      3  C   UNL     1       2.199   3.139  19.237  0.00  0.00    +0.000 C 
ATOM      4  C   UNL     1       1.635   4.372  18.560  0.00  0.00    +0.000 C 
ATOM      5  C   UNL     1       2.784   5.387  18.584  0.00  0.00    +0.000 C 
ENDROOT
BRANCH   5   6
ATOM      6  C   UNL     1       2.298   6.785  18.930  0.00  0.00    +0.000 A 
ATOM      7  C   UNL     1       2.231   7.783  17.940  0.00  0.00    +0.000 A 
ATOM      8  C   UNL     1       1.787   9.063  18.245  0.00  0.00    +0.000 A 
ATOM      9  C   UNL     1       1.370   9.369  19.539  0.00  0.00    +0.000 A 
ATOM     10  C   UNL     1       1.430   8.388  20.530  0.00  0.00    +0.000 A 
ATOM     11  C   UNL     1       1.891   7.101  20.225  0.00  0.00    +0.000 A 
BRANCH   9  12
ATOM     12  O   UNL     1       0.962  10.660  19.725  0.00  0.00    +0.000 OA
ATOM     13  C   UNL     1      -0.438  10.880  19.619  0.00  0.00    +0.000 C 
ENDBRANCH   9  12
ENDBRANCH   5   6
BRANCH   1  14
ATOM     14  C   UNL     1       5.144   4.945  19.200  0.00  0.00    +0.000 C 
BRANCH  14  16
ATOM     15  N   UNL     1       5.758   5.476  16.808  0.00  0.00    +0.000 N 
ATOM     16  C   UNL     1       5.323   4.501  17.727  0.00  0.00    +0.000 C 
ATOM     17  O   UNL     1       5.060   3.344  17.375  0.00  0.00    +0.000 OA
BRANCH  15  18
ATOM     18  C   UNL     1       6.027   5.054  15.465  0.00  0.00    +0.000 A 
ATOM     19  C   UNL     1       5.032   4.447  14.690  0.00  0.00    +0.000 A 
ATOM     20  C   UNL     1       5.328   3.961  13.413  0.00  0.00    +0.000 A 
ATOM     21  C   UNL     1       6.611   4.109  12.887  0.00  0.00    +0.000 A 
ATOM     22  C   UNL     1       7.601   4.732  13.642  0.00  0.00    +0.000 A 
ATOM     23  C   UNL     1       7.315   5.189  14.930  0.00  0.00    +0.000 A 
ENDBRANCH  15  18
BRANCH  15  25
ATOM     24  C   UNL     1       7.305   7.316  17.506  0.00  0.00    +0.000 C 
ATOM     25  C   UNL     1       5.892   6.915  17.093  0.00  0.00    +0.000 C 
ENDBRANCH  15  25
ENDBRANCH  14  16
ENDBRANCH   1  14
TORSDOF 6
ENDMDL
