MODEL 1
REMARK VINA RESULT:      -8.2      0.000      0.000
REMARK  Name = 
REMARK  10 active torsions:
REMARK  status: ('A' for Active; 'I' for Inactive)
REMARK    1  A    between atoms: C_1  and  O_2
REMARK    2  A    between atoms: O_2  and  C_3
REMARK    3  A    between atoms: C_5  and  O_6
REMARK    4  A    between atoms: O_6  and  C_7
REMARK    5  A    between atoms: C_9  and  C_10
REMARK    6  A    between atoms: C_15  and  N_16
REMARK    7  A    between atoms: N_16  and  C_17
REMARK    8  A    between atoms: N_16  and  C_18
REMARK    9  A    between atoms: C_21  and  C_22
REMARK   10  A    between atoms: C_26  and  N_27
REMARK                            x       y       z     vdW  Elec       q    Type
REMARK                         _______ _______ _______ _____ _____    ______ ____
ROOT
ATOM      1  C   UNL     1       1.828   7.702  19.876  0.00  0.00    +0.000 A 
ATOM      2  C   UNL     1       1.329   7.719  21.178  0.00  0.00    +0.000 A 
ATOM      3  C   UNL     1       0.698   8.868  21.694  0.00  0.00    +0.000 A 
ATOM      4  C   UNL     1       0.290   8.949  23.028  0.00  0.00    +0.000 A 
ATOM      5  C   UNL     1      -0.398  10.065  23.530  0.00  0.00    +0.000 A 
ATOM      6  C   UNL     1      -0.792  11.142  22.729  0.00  0.00    +0.000 A 
ATOM      7  C   UNL     1      -0.351  11.056  21.393  0.00  0.00    +0.000 A 
ATOM      8  C   UNL     1       0.411   9.948  20.855  0.00  0.00    +0.000 A 
ATOM      9  C   UNL     1       0.842   9.747  19.506  0.00  0.00    +0.000 A 
ATOM     10  N   UNL     1       1.603   8.735  19.048  0.00  0.00    +0.000 NA
ENDROOT
BRANCH   1  15
ATOM     11  C   UNL     1       3.969   5.721  17.438  0.00  0.00    +0.000 A 
ATOM     12  C   UNL     1       3.630   4.422  17.805  0.00  0.00    +0.000 A 
ATOM     13  C   UNL     1       2.767   4.162  18.869  0.00  0.00    +0.000 A 
ATOM     14  C   UNL     1       2.221   5.229  19.578  0.00  0.00    +0.000 A 
ATOM     15  C   UNL     1       2.513   6.562  19.226  0.00  0.00    +0.000 A 
ATOM     16  C   UNL     1       3.424   6.785  18.159  0.00  0.00    +0.000 A 
BRANCH  11  18
ATOM     17  C   UNL     1       5.221   4.578  15.755  0.00  0.00    +0.000 C 
ATOM     18  O   UNL     1       4.815   5.793  16.368  0.00  0.00    +0.000 OA
ENDBRANCH  11  18
BRANCH  13  19
ATOM     19  O   UNL     1       2.521   2.835  19.092  0.00  0.00    +0.000 OA
ATOM     20  C   UNL     1       3.269   1.901  18.326  0.00  0.00    +0.000 C 
ENDBRANCH  13  19
ENDBRANCH   1  15
BRANCH   9  21
ATOM     21  C   UNL     1       0.175  10.486  18.450  0.00  0.00    +0.000 A 
ATOM     22  C   UNL     1      -0.833   9.804  17.751  0.00  0.00    +0.000 A 
ATOM     23  C   UNL     1      -1.898  10.516  17.236  0.00  0.00    +0.000 A 
ATOM     24  C   UNL     1      -1.927  11.898  17.415  0.00  0.00    +0.000 A 
ATOM     25  C   UNL     1      -0.853  12.573  18.014  0.00  0.00    +0.000 A 
ATOM     26  C   UNL     1       0.278  11.867  18.391  0.00  0.00    +0.000 A 
BRANCH  25  27
ATOM     27  N   UNL     1      -0.878  13.964  18.182  0.00  0.00    +0.000 N 
ATOM     28  H   UNL     1      -0.276  14.254  18.948  0.00  0.00    +0.000 HD
ATOM     29  H   UNL     1      -0.640  14.456  17.324  0.00  0.00    +0.000 HD
ENDBRANCH  25  27
ENDBRANCH   9  21
BRANCH   6  30
ATOM     30  N   UNL     1      -1.611  12.153  23.214  0.00  0.00    +0.000 N 
ATOM     31  C   UNL     1      -1.214  13.561  23.124  0.00  0.00    +0.000 C 
ATOM     32  C   UNL     1      -3.029  11.962  23.516  0.00  0.00    +0.000 C 
ENDBRANCH   6  30
TORSDOF 6
ENDMDL
MODEL 2
REMARK VINA RESULT:      -8.1      1.452      2.503
REMARK  Name = 
REMARK  10 active torsions:
REMARK  status: ('A' for Active; 'I' for Inactive)
REMARK    1  A    between atoms: C_1  and  O_2
REMARK    2  A    between atoms: O_2  and  C_3
REMARK    3  A    between atoms: C_5  and  O_6
REMARK    4  A    between atoms: O_6  and  C_7
REMARK    5  A    between atoms: C_9  and  C_10
REMARK    6  A    between atoms: C_15  and  N_16
REMARK    7  A    between atoms: N_16  and  C_17
REMARK    8  A    between atoms: N_16  and  C_18
REMARK    9  A    between atoms: C_21  and  C_22
REMARK   10  A    between atoms: C_26  and  N_27
REMARK                            x       y       z     vdW  Elec       q    Type
REMARK                         _______ _______ _______ _____ _____    ______ ____
ROOT
ATOM      1  C   UNL     1       1.250   8.761  19.683  0.00  0.00    +0.000 A 
ATOM      2  C   UNL     1       0.900   8.881  21.027  0.00  0.00    +0.000 A 
ATOM      3  C   UNL     1       0.034   9.905  21.458  0.00  0.00    +0.000 A 
ATOM      4  C   UNL     1      -0.245  10.114  22.812  0.00  0.00    +0.000 A 
ATOM      5  C   UNL     1      -1.157  11.089  23.243  0.00  0.00    +0.000 A 
ATOM      6  C   UNL     1      -1.908  11.872  22.360  0.00  0.00    +0.000 A 
ATOM      7  C   UNL     1      -1.598  11.667  21.001  0.00  0.00    +0.000 A 
ATOM      8  C   UNL     1      -0.620  10.711  20.523  0.00  0.00    +0.000 A 
ATOM      9  C   UNL     1      -0.289  10.391  19.170  0.00  0.00    +0.000 A 
ATOM     10  N   UNL     1       0.670   9.540  18.756  0.00  0.00    +0.000 NA
ENDROOT
BRANCH   1  15
ATOM     11  C   UNL     1       3.337   5.599  19.358  0.00  0.00    +0.000 A 
ATOM     12  C   UNL     1       4.042   5.883  18.192  0.00  0.00    +0.000 A 
ATOM     13  C   UNL     1       3.817   7.051  17.465  0.00  0.00    +0.000 A 
ATOM     14  C   UNL     1       2.870   7.965  17.921  0.00  0.00    +0.000 A 
ATOM     15  C   UNL     1       2.152   7.735  19.111  0.00  0.00    +0.000 A 
ATOM     16  C   UNL     1       2.384   6.517  19.805  0.00  0.00    +0.000 A 
BRANCH  11  18
ATOM     17  C   UNL     1       4.539   3.539  19.226  0.00  0.00    +0.000 C 
ATOM     18  O   UNL     1       3.691   4.420  19.949  0.00  0.00    +0.000 OA
ENDBRANCH  11  18
BRANCH  13  19
ATOM     19  O   UNL     1       4.601   7.190  16.353  0.00  0.00    +0.000 OA
ATOM     20  C   UNL     1       5.368   6.061  15.957  0.00  0.00    +0.000 C 
ENDBRANCH  13  19
ENDBRANCH   1  15
BRANCH   9  21
ATOM     21  C   UNL     1      -1.235  10.739  18.126  0.00  0.00    +0.000 A 
ATOM     22  C   UNL     1      -1.393   9.806  17.089  0.00  0.00    +0.000 A 
ATOM     23  C   UNL     1      -2.616   9.700  16.457  0.00  0.00    +0.000 A 
ATOM     24  C   UNL     1      -3.653  10.541  16.861  0.00  0.00    +0.000 A 
ATOM     25  C   UNL     1      -3.439  11.545  17.817  0.00  0.00    +0.000 A 
ATOM     26  C   UNL     1      -2.169  11.742  18.335  0.00  0.00    +0.000 A 
BRANCH  25  27
ATOM     27  N   UNL     1      -4.478  12.397  18.213  0.00  0.00    +0.000 N 
ATOM     28  H   UNL     1      -4.873  12.892  17.418  0.00  0.00    +0.000 HD
ATOM     29  H   UNL     1      -5.202  11.901  18.729  0.00  0.00    +0.000 HD
ENDBRANCH  25  27
ENDBRANCH   9  21
BRANCH   6  30
ATOM     30  N   UNL     1      -2.919  12.713  22.809  0.00  0.00    +0.000 N 
ATOM     31  C   UNL     1      -3.533  13.704  21.921  0.00  0.00    +0.000 C 
ATOM     32  C   UNL     1      -3.685  12.466  24.030  0.00  0.00    +0.000 C 
ENDBRANCH   6  30
TORSDOF 6
ENDMDL
MODEL 3
REMARK VINA RESULT:      -8.1      3.242      8.860
REMARK  Name = 
REMARK  10 active torsions:
REMARK  status: ('A' for Active; 'I' for Inactive)
REMARK    1  A    between atoms: C_1  and  O_2
REMARK    2  A    between atoms: O_2  and  C_3
REMARK    3  A    between atoms: C_5  and  O_6
REMARK    4  A    between atoms: O_6  and  C_7
REMARK    5  A    between atoms: C_9  and  C_10
REMARK    6  A    between atoms: C_15  and  N_16
REMARK    7  A    between atoms: N_16  and  C_17
REMARK    8  A    between atoms: N_16  and  C_18
REMARK    9  A    between atoms: C_21  and  C_22
REMARK   10  A    between atoms: C_26  and  N_27
REMARK                            x       y       z     vdW  Elec       q    Type
REMARK                         _______ _______ _______ _____ _____    ______ ____
ROOT
ATOM      1  C   UNL     1       1.966   8.354  19.036  0.00  0.00    +0.000 A 
ATOM      2  C   UNL     1       2.809   8.464  17.931  0.00  0.00    +0.000 A 
ATOM      3  C   UNL     1       3.581   7.367  17.502  0.00  0.00    +0.000 A 
ATOM      4  C   UNL     1       4.515   7.482  16.468  0.00  0.00    +0.000 A 
ATOM      5  C   UNL     1       5.239   6.378  15.991  0.00  0.00    +0.000 A 
ATOM      6  C   UNL     1       5.034   5.075  16.456  0.00  0.00    +0.000 A 
ATOM      7  C   UNL     1       4.109   4.979  17.514  0.00  0.00    +0.000 A 
ATOM      8  C   UNL     1       3.387   6.106  18.071  0.00  0.00    +0.000 A 
ATOM      9  C   UNL     1       2.388   6.094  19.093  0.00  0.00    +0.000 A 
ATOM     10  N   UNL     1       1.778   7.167  19.633  0.00  0.00    +0.000 NA
ENDROOT
BRANCH   1  15
ATOM     11  C   UNL     1       0.059  10.504  21.526  0.00  0.00    +0.000 A 
ATOM     12  C   UNL     1      -0.688  11.293  20.657  0.00  0.00    +0.000 A 
ATOM     13  C   UNL     1      -0.548  11.192  19.273  0.00  0.00    +0.000 A 
ATOM     14  C   UNL     1       0.355  10.273  18.745  0.00  0.00    +0.000 A 
ATOM     15  C   UNL     1       1.113   9.433  19.585  0.00  0.00    +0.000 A 
ATOM     16  C   UNL     1       0.968   9.589  20.990  0.00  0.00    +0.000 A 
BRANCH  11  18
ATOM     17  C   UNL     1      -1.391  11.443  23.176  0.00  0.00    +0.000 C 
ATOM     18  O   UNL     1      -0.212  10.722  22.847  0.00  0.00    +0.000 OA
ENDBRANCH  11  18
BRANCH  13  19
ATOM     19  O   UNL     1      -1.364  12.024  18.556  0.00  0.00    +0.000 OA
ATOM     20  C   UNL     1      -2.446  11.425  17.859  0.00  0.00    +0.000 C 
ENDBRANCH  13  19
ENDBRANCH   1  15
BRANCH   9  21
ATOM     21  C   UNL     1       1.713   4.843  19.386  0.00  0.00    +0.000 A 
ATOM     22  C   UNL     1       1.448   4.005  18.291  0.00  0.00    +0.000 A 
ATOM     23  C   UNL     1       1.426   2.638  18.477  0.00  0.00    +0.000 A 
ATOM     24  C   UNL     1       1.654   2.133  19.757  0.00  0.00    +0.000 A 
ATOM     25  C   UNL     1       1.800   2.991  20.857  0.00  0.00    +0.000 A 
ATOM     26  C   UNL     1       1.669   4.360  20.684  0.00  0.00    +0.000 A 
BRANCH  25  27
ATOM     27  N   UNL     1       2.017   2.483  22.145  0.00  0.00    +0.000 N 
ATOM     28  H   UNL     1       1.829   3.184  22.856  0.00  0.00    +0.000 HD
ATOM     29  H   UNL     1       1.477   1.637  22.316  0.00  0.00    +0.000 HD
ENDBRANCH  25  27
ENDBRANCH   9  21
BRANCH   6  30
ATOM     30  N   UNL     1       5.645   3.981  15.856  0.00  0.00    +0.000 N 
ATOM     31  C   UNL     1       5.290   2.611  16.234  0.00  0.00    +0.000 C 
ATOM     32  C   UNL     1       6.394   4.068  14.603  0.00  0.00    +0.000 C 
ENDBRANCH   6  30
TORSDOF 6
ENDMDL
MODEL 4
REMARK VINA RESULT:      -8.1      3.296      8.757
REMARK  Name = 
REMARK  10 active torsions:
REMARK  status: ('A' for Active; 'I' for Inactive)
REMARK    1  A    between atoms: C_1  and  O_2
REMARK    2  A    between atoms: O_2  and  C_3
REMARK    3  A    between atoms: C_5  and  O_6
REMARK    4  A    between atoms: O_6  and  C_7
REMARK    5  A    between atoms: C_9  and  C_10
REMARK    6  A    between atoms: C_15  and  N_16
REMARK    7  A    between atoms: N_16  and  C_17
REMARK    8  A    between atoms: N_16  and  C_18
REMARK    9  A    between atoms: C_21  and  C_22
REMARK   10  A    between atoms: C_26  and  N_27
REMARK                            x       y       z     vdW  Elec       q    Type
REMARK                         _______ _______ _______ _____ _____    ______ ____
ROOT
ATOM      1  C   UNL     1       1.885   8.359  19.057  0.00  0.00    +0.000 A 
ATOM      2  C   UNL     1       2.733   8.498  17.959  0.00  0.00    +0.000 A 
ATOM      3  C   UNL     1       3.539   7.425  17.531  0.00  0.00    +0.000 A 
ATOM      4  C   UNL     1       4.477   7.571  16.505  0.00  0.00    +0.000 A 
ATOM      5  C   UNL     1       5.235   6.489  16.030  0.00  0.00    +0.000 A 
ATOM      6  C   UNL     1       5.064   5.179  16.488  0.00  0.00    +0.000 A 
ATOM      7  C   UNL     1       4.133   5.053  17.538  0.00  0.00    +0.000 A 
ATOM      8  C   UNL     1       3.376   6.157  18.094  0.00  0.00    +0.000 A 
ATOM      9  C   UNL     1       2.370   6.112  19.108  0.00  0.00    +0.000 A 
ATOM     10  N   UNL     1       1.725   7.164  19.648  0.00  0.00    +0.000 NA
ENDROOT
BRANCH   1  15
ATOM     11  C   UNL     1      -0.317  11.454  19.245  0.00  0.00    +0.000 A 
ATOM     12  C   UNL     1      -0.477  11.565  20.623  0.00  0.00    +0.000 A 
ATOM     13  C   UNL     1       0.061  10.624  21.502  0.00  0.00    +0.000 A 
ATOM     14  C   UNL     1       0.785   9.551  20.989  0.00  0.00    +0.000 A 
ATOM     15  C   UNL     1       0.997   9.411  19.603  0.00  0.00    +0.000 A 
ATOM     16  C   UNL     1       0.404  10.371  18.739  0.00  0.00    +0.000 A 
BRANCH  11  18
ATOM     17  C   UNL     1      -0.216  13.711  18.469  0.00  0.00    +0.000 C 
ATOM     18  O   UNL     1      -0.897  12.466  18.536  0.00  0.00    +0.000 OA
ENDBRANCH  11  18
BRANCH  13  19
ATOM     19  O   UNL     1      -0.170  10.883  22.825  0.00  0.00    +0.000 OA
ATOM     20  C   UNL     1      -1.462  11.359  23.175  0.00  0.00    +0.000 C 
ENDBRANCH  13  19
ENDBRANCH   1  15
BRANCH   9  21
ATOM     21  C   UNL     1       1.729   4.841  19.391  0.00  0.00    +0.000 A 
ATOM     22  C   UNL     1       1.447   4.024  18.284  0.00  0.00    +0.000 A 
ATOM     23  C   UNL     1       1.457   2.652  18.439  0.00  0.00    +0.000 A 
ATOM     24  C   UNL     1       1.733   2.123  19.699  0.00  0.00    +0.000 A 
ATOM     25  C   UNL     1       1.895   2.958  20.815  0.00  0.00    +0.000 A 
ATOM     26  C   UNL     1       1.733   4.327  20.678  0.00  0.00    +0.000 A 
BRANCH  25  27
ATOM     27  N   UNL     1       2.160   2.424  22.083  0.00  0.00    +0.000 N 
ATOM     28  H   UNL     1       2.854   1.683  22.035  0.00  0.00    +0.000 HD
ATOM     29  H   UNL     1       2.439   3.142  22.748  0.00  0.00    +0.000 HD
ENDBRANCH  25  27
ENDBRANCH   9  21
BRANCH   6  30
ATOM     30  N   UNL     1       5.710   4.106  15.888  0.00  0.00    +0.000 N 
ATOM     31  C   UNL     1       5.375   2.723  16.241  0.00  0.00    +0.000 C 
ATOM     32  C   UNL     1       6.484   4.223  14.653  0.00  0.00    +0.000 C 
ENDBRANCH   6  30
TORSDOF 6
ENDMDL
MODEL 5
REMARK VINA RESULT:      -8.1      3.309      8.629
REMARK  Name = 
REMARK  10 active torsions:
REMARK  status: ('A' for Active; 'I' for Inactive)
REMARK    1  A    between atoms: C_1  and  O_2
REMARK    2  A    between atoms: O_2  and  C_3
REMARK    3  A    between atoms: C_5  and  O_6
REMARK    4  A    between atoms: O_6  and  C_7
REMARK    5  A    between atoms: C_9  and  C_10
REMARK    6  A    between atoms: C_15  and  N_16
REMARK    7  A    between atoms: N_16  and  C_17
REMARK    8  A    between atoms: N_16  and  C_18
REMARK    9  A    between atoms: C_21  and  C_22
REMARK   10  A    between atoms: C_26  and  N_27
REMARK                            x       y       z     vdW  Elec       q    Type
REMARK                         _______ _______ _______ _____ _____    ______ ____
ROOT
ATOM      1  C   UNL     1       1.568   8.450  18.959  0.00  0.00    +0.000 A 
ATOM      2  C   UNL     1       2.573   8.619  18.006  0.00  0.00    +0.000 A 
ATOM      3  C   UNL     1       3.547   7.623  17.801  0.00  0.00    +0.000 A 
ATOM      4  C   UNL     1       4.626   7.814  16.934  0.00  0.00    +0.000 A 
ATOM      5  C   UNL     1       5.563   6.801  16.675  0.00  0.00    +0.000 A 
ATOM      6  C   UNL     1       5.453   5.510  17.201  0.00  0.00    +0.000 A 
ATOM      7  C   UNL     1       4.374   5.340  18.092  0.00  0.00    +0.000 A 
ATOM      8  C   UNL     1       3.423   6.380  18.428  0.00  0.00    +0.000 A 
ATOM      9  C   UNL     1       2.268   6.281  19.265  0.00  0.00    +0.000 A 
ATOM     10  N   UNL     1       1.435   7.282  19.608  0.00  0.00    +0.000 NA
ENDROOT
BRANCH   1  15
ATOM     11  C   UNL     1      -1.124  11.092  18.485  0.00  0.00    +0.000 A 
ATOM     12  C   UNL     1      -1.357  11.454  19.808  0.00  0.00    +0.000 A 
ATOM     13  C   UNL     1      -0.707  10.820  20.866  0.00  0.00    +0.000 A 
ATOM     14  C   UNL     1       0.207   9.805  20.593  0.00  0.00    +0.000 A 
ATOM     15  C   UNL     1       0.496   9.423  19.268  0.00  0.00    +0.000 A 
ATOM     16  C   UNL     1      -0.212  10.069  18.219  0.00  0.00    +0.000 A 
BRANCH  11  18
ATOM     17  C   UNL     1      -3.177  11.439  17.313  0.00  0.00    +0.000 C 
ATOM     18  O   UNL     1      -1.835  11.823  17.576  0.00  0.00    +0.000 OA
ENDBRANCH  11  18
BRANCH  13  19
ATOM     19  O   UNL     1      -1.032  11.301  22.105  0.00  0.00    +0.000 OA
ATOM     20  C   UNL     1      -0.777  10.453  23.215  0.00  0.00    +0.000 C 
ENDBRANCH  13  19
ENDBRANCH   1  15
BRANCH   9  21
ATOM     21  C   UNL     1       1.724   4.964  19.538  0.00  0.00    +0.000 A 
ATOM     22  C   UNL     1       1.421   4.169  18.421  0.00  0.00    +0.000 A 
ATOM     23  C   UNL     1       1.523   2.796  18.522  0.00  0.00    +0.000 A 
ATOM     24  C   UNL     1       1.911   2.242  19.742  0.00  0.00    +0.000 A 
ATOM     25  C   UNL     1       2.094   3.047  20.876  0.00  0.00    +0.000 A 
ATOM     26  C   UNL     1       1.842   4.407  20.802  0.00  0.00    +0.000 A 
BRANCH  25  27
ATOM     27  N   UNL     1       2.472   2.487  22.104  0.00  0.00    +0.000 N 
ATOM     28  H   UNL     1       3.223   3.017  22.536  0.00  0.00    +0.000 HD
ATOM     29  H   UNL     1       1.681   2.392  22.738  0.00  0.00    +0.000 HD
ENDBRANCH  25  27
ENDBRANCH   9  21
BRANCH   6  30
ATOM     30  N   UNL     1       6.299   4.484  16.801  0.00  0.00    +0.000 N 
ATOM     31  C   UNL     1       6.057   3.738  15.563  0.00  0.00    +0.000 C 
ATOM     32  C   UNL     1       7.644   4.294  17.346  0.00  0.00    +0.000 C 
ENDBRANCH   6  30
TORSDOF 6
ENDMDL
MODEL 6
REMARK VINA RESULT:      -8.1      0.443      1.986
REMARK  Name = 
REMARK  10 active torsions:
REMARK  status: ('A' for Active; 'I' for Inactive)
REMARK    1  A    between atoms: C_1  and  O_2
REMARK    2  A    between atoms: O_2  and  C_3
REMARK    3  A    between atoms: C_5  and  O_6
REMARK    4  A    between atoms: O_6  and  C_7
REMARK    5  A    between atoms: C_9  and  C_10
REMARK    6  A    between atoms: C_15  and  N_16
REMARK    7  A    between atoms: N_16  and  C_17
REMARK    8  A    between atoms: N_16  and  C_18
REMARK    9  A    between atoms: C_21  and  C_22
REMARK   10  A    between atoms: C_26  and  N_27
REMARK                            x       y       z     vdW  Elec       q    Type
REMARK                         _______ _______ _______ _____ _____    ______ ____
ROOT
ATOM      1  C   UNL     1       1.801   7.730  19.831  0.00  0.00    +0.000 A 
ATOM      2  C   UNL     1       1.307   7.733  21.135  0.00  0.00    +0.000 A 
ATOM      3  C   UNL     1       0.684   8.879  21.667  0.00  0.00    +0.000 A 
ATOM      4  C   UNL     1       0.280   8.945  23.003  0.00  0.00    +0.000 A 
ATOM      5  C   UNL     1      -0.400  10.059  23.522  0.00  0.00    +0.000 A 
ATOM      6  C   UNL     1      -0.790  11.147  22.735  0.00  0.00    +0.000 A 
ATOM      7  C   UNL     1      -0.354  11.076  21.397  0.00  0.00    +0.000 A 
ATOM      8  C   UNL     1       0.400   9.971  20.842  0.00  0.00    +0.000 A 
ATOM      9  C   UNL     1       0.825   9.784  19.490  0.00  0.00    +0.000 A 
ATOM     10  N   UNL     1       1.579   8.774  19.016  0.00  0.00    +0.000 NA
ENDROOT
BRANCH   1  15
ATOM     11  C   UNL     1       3.099   4.219  19.163  0.00  0.00    +0.000 A 
ATOM     12  C   UNL     1       3.944   4.465  18.085  0.00  0.00    +0.000 A 
ATOM     13  C   UNL     1       4.063   5.734  17.521  0.00  0.00    +0.000 A 
ATOM     14  C   UNL     1       3.324   6.788  18.055  0.00  0.00    +0.000 A 
ATOM     15  C   UNL     1       2.477   6.594  19.164  0.00  0.00    +0.000 A 
ATOM     16  C   UNL     1       2.357   5.279  19.689  0.00  0.00    +0.000 A 
BRANCH  11  18
ATOM     17  C   UNL     1       1.874   2.316  19.928  0.00  0.00    +0.000 C 
ATOM     18  O   UNL     1       3.114   2.924  19.598  0.00  0.00    +0.000 OA
ENDBRANCH  11  18
BRANCH  13  19
ATOM     19  O   UNL     1       4.945   5.815  16.479  0.00  0.00    +0.000 OA
ATOM     20  C   UNL     1       5.342   4.593  15.872  0.00  0.00    +0.000 C 
ENDBRANCH  13  19
ENDBRANCH   1  15
BRANCH   9  21
ATOM     21  C   UNL     1       0.159  10.540  18.446  0.00  0.00    +0.000 A 
ATOM     22  C   UNL     1      -0.860   9.875  17.745  0.00  0.00    +0.000 A 
ATOM     23  C   UNL     1      -1.920  10.602  17.244  0.00  0.00    +0.000 A 
ATOM     24  C   UNL     1      -1.935  11.983  17.438  0.00  0.00    +0.000 A 
ATOM     25  C   UNL     1      -0.851  12.642  18.037  0.00  0.00    +0.000 A 
ATOM     26  C   UNL     1       0.275  11.921  18.400  0.00  0.00    +0.000 A 
BRANCH  25  27
ATOM     27  N   UNL     1      -0.863  14.030  18.219  0.00  0.00    +0.000 N 
ATOM     28  H   UNL     1      -0.886  14.520  17.330  0.00  0.00    +0.000 HD
ATOM     29  H   UNL     1      -1.628  14.330  18.820  0.00  0.00    +0.000 HD
ENDBRANCH  25  27
ENDBRANCH   9  21
BRANCH   6  30
ATOM     30  N   UNL     1      -1.602  12.157  23.236  0.00  0.00    +0.000 N 
ATOM     31  C   UNL     1      -1.181  13.560  23.196  0.00  0.00    +0.000 C 
ATOM     32  C   UNL     1      -3.029  11.980  23.506  0.00  0.00    +0.000 C 
ENDBRANCH   6  30
TORSDOF 6
ENDMDL
MODEL 7
REMARK VINA RESULT:      -8.0      3.338      8.725
REMARK  Name = 
REMARK  10 active torsions:
REMARK  status: ('A' for Active; 'I' for Inactive)
REMARK    1  A    between atoms: C_1  and  O_2
REMARK    2  A    between atoms: O_2  and  C_3
REMARK    3  A    between atoms: C_5  and  O_6
REMARK    4  A    between atoms: O_6  and  C_7
REMARK    5  A    between atoms: C_9  and  C_10
REMARK    6  A    between atoms: C_15  and  N_16
REMARK    7  A    between atoms: N_16  and  C_17
REMARK    8  A    between atoms: N_16  and  C_18
REMARK    9  A    between atoms: C_21  and  C_22
REMARK   10  A    between atoms: C_26  and  N_27
REMARK                            x       y       z     vdW  Elec       q    Type
REMARK                         _______ _______ _______ _____ _____    ______ ____
ROOT
ATOM      1  C   UNL     1       1.673   8.481  19.375  0.00  0.00    +0.000 A 
ATOM      2  C   UNL     1       2.352   8.561  18.160  0.00  0.00    +0.000 A 
ATOM      3  C   UNL     1       3.322   7.602  17.812  0.00  0.00    +0.000 A 
ATOM      4  C   UNL     1       4.094   7.721  16.652  0.00  0.00    +0.000 A 
ATOM      5  C   UNL     1       5.016   6.735  16.266  0.00  0.00    +0.000 A 
ATOM      6  C   UNL     1       5.182   5.533  16.962  0.00  0.00    +0.000 A 
ATOM      7  C   UNL     1       4.415   5.440  18.141  0.00  0.00    +0.000 A 
ATOM      8  C   UNL     1       3.498   6.463  18.601  0.00  0.00    +0.000 A 
ATOM      9  C   UNL     1       2.637   6.426  19.742  0.00  0.00    +0.000 A 
ATOM     10  N   UNL     1       1.839   7.419  20.179  0.00  0.00    +0.000 NA
ENDROOT
BRANCH   1  15
ATOM     11  C   UNL     1      -1.128  11.052  19.342  0.00  0.00    +0.000 A 
ATOM     12  C   UNL     1      -1.154  11.413  20.686  0.00  0.00    +0.000 A 
ATOM     13  C   UNL     1      -0.325  10.801  21.625  0.00  0.00    +0.000 A 
ATOM     14  C   UNL     1       0.558   9.808  21.208  0.00  0.00    +0.000 A 
ATOM     15  C   UNL     1       0.640   9.428  19.854  0.00  0.00    +0.000 A 
ATOM     16  C   UNL     1      -0.245  10.051  18.933  0.00  0.00    +0.000 A 
BRANCH  11  18
ATOM     17  C   UNL     1      -2.284  11.262  17.262  0.00  0.00    +0.000 C 
ATOM     18  O   UNL     1      -1.995  11.761  18.560  0.00  0.00    +0.000 OA
ENDBRANCH  11  18
BRANCH  13  19
ATOM     19  O   UNL     1      -0.459  11.278  22.900  0.00  0.00    +0.000 OA
ATOM     20  C   UNL     1      -1.349  12.368  23.092  0.00  0.00    +0.000 C 
ENDBRANCH  13  19
ENDBRANCH   1  15
BRANCH   9  21
ATOM     21  C   UNL     1       2.320   5.137  20.327  0.00  0.00    +0.000 A 
ATOM     22  C   UNL     1       1.000   4.686  20.169  0.00  0.00    +0.000 A 
ATOM     23  C   UNL     1       0.755   3.330  20.089  0.00  0.00    +0.000 A 
ATOM     24  C   UNL     1       1.831   2.449  20.186  0.00  0.00    +0.000 A 
ATOM     25  C   UNL     1       3.125   2.915  20.462  0.00  0.00    +0.000 A 
ATOM     26  C   UNL     1       3.335   4.265  20.690  0.00  0.00    +0.000 A 
BRANCH  25  27
ATOM     27  N   UNL     1       4.204   2.027  20.571  0.00  0.00    +0.000 N 
ATOM     28  H   UNL     1       5.084   2.486  20.353  0.00  0.00    +0.000 HD
ATOM     29  H   UNL     1       4.241   1.584  21.487  0.00  0.00    +0.000 HD
ENDBRANCH  25  27
ENDBRANCH   9  21
BRANCH   6  30
ATOM     30  N   UNL     1       5.979   4.508  16.470  0.00  0.00    +0.000 N 
ATOM     31  C   UNL     1       5.588   3.745  15.282  0.00  0.00    +0.000 C 
ATOM     32  C   UNL     1       7.383   4.334  16.842  0.00  0.00    +0.000 C 
ENDBRANCH   6  30
TORSDOF 6
ENDMDL
MODEL 8
REMARK VINA RESULT:      -8.0      3.318      8.678
REMARK  Name = 
REMARK  10 active torsions:
REMARK  status: ('A' for Active; 'I' for Inactive)
REMARK    1  A    between atoms: C_1  and  O_2
REMARK    2  A    between atoms: O_2  and  C_3
REMARK    3  A    between atoms: C_5  and  O_6
REMARK    4  A    between atoms: O_6  and  C_7
REMARK    5  A    between atoms: C_9  and  C_10
REMARK    6  A    between atoms: C_15  and  N_16
REMARK    7  A    between atoms: N_16  and  C_17
REMARK    8  A    between atoms: N_16  and  C_18
REMARK    9  A    between atoms: C_21  and  C_22
REMARK   10  A    between atoms: C_26  and  N_27
REMARK                            x       y       z     vdW  Elec       q    Type
REMARK                         _______ _______ _______ _____ _____    ______ ____
ROOT
ATOM      1  C   UNL     1       1.675   8.583  18.833  0.00  0.00    +0.000 A 
ATOM      2  C   UNL     1       2.687   8.701  17.881  0.00  0.00    +0.000 A 
ATOM      3  C   UNL     1       3.633   7.673  17.704  0.00  0.00    +0.000 A 
ATOM      4  C   UNL     1       4.720   7.812  16.836  0.00  0.00    +0.000 A 
ATOM      5  C   UNL     1       5.629   6.767  16.606  0.00  0.00    +0.000 A 
ATOM      6  C   UNL     1       5.480   5.492  17.161  0.00  0.00    +0.000 A 
ATOM      7  C   UNL     1       4.394   5.375  18.052  0.00  0.00    +0.000 A 
ATOM      8  C   UNL     1       3.471   6.449  18.359  0.00  0.00    +0.000 A 
ATOM      9  C   UNL     1       2.311   6.403  19.193  0.00  0.00    +0.000 A 
ATOM     10  N   UNL     1       1.506   7.436  19.509  0.00  0.00    +0.000 NA
ENDROOT
BRANCH   1  15
ATOM     11  C   UNL     1      -0.599  10.954  20.747  0.00  0.00    +0.000 A 
ATOM     12  C   UNL     1      -1.494  11.310  19.743  0.00  0.00    +0.000 A 
ATOM     13  C   UNL     1      -1.348  10.850  18.435  0.00  0.00    +0.000 A 
ATOM     14  C   UNL     1      -0.285  10.004  18.125  0.00  0.00    +0.000 A 
ATOM     15  C   UNL     1       0.630   9.594  19.115  0.00  0.00    +0.000 A 
ATOM     16  C   UNL     1       0.468  10.112  20.428  0.00  0.00    +0.000 A 
BRANCH  11  18
ATOM     17  C   UNL     1      -0.982  10.599  23.079  0.00  0.00    +0.000 C 
ATOM     18  O   UNL     1      -0.898  11.483  21.971  0.00  0.00    +0.000 OA
ENDBRANCH  11  18
BRANCH  13  19
ATOM     19  O   UNL     1      -2.318  11.276  17.569  0.00  0.00    +0.000 OA
ATOM     20  C   UNL     1      -2.449  10.568  16.345  0.00  0.00    +0.000 C 
ENDBRANCH  13  19
ENDBRANCH   1  15
BRANCH   9  21
ATOM     21  C   UNL     1       1.728   5.109  19.495  0.00  0.00    +0.000 A 
ATOM     22  C   UNL     1       1.410   4.295  18.396  0.00  0.00    +0.000 A 
ATOM     23  C   UNL     1       1.473   2.923  18.532  0.00  0.00    +0.000 A 
ATOM     24  C   UNL     1       1.837   2.389  19.768  0.00  0.00    +0.000 A 
ATOM     25  C   UNL     1       2.036   3.216  20.883  0.00  0.00    +0.000 A 
ATOM     26  C   UNL     1       1.823   4.580  20.773  0.00  0.00    +0.000 A 
BRANCH  25  27
ATOM     27  N   UNL     1       2.390   2.677  22.126  0.00  0.00    +0.000 N 
ATOM     28  H   UNL     1       1.674   2.858  22.825  0.00  0.00    +0.000 HD
ATOM     29  H   UNL     1       2.596   1.682  22.066  0.00  0.00    +0.000 HD
ENDBRANCH  25  27
ENDBRANCH   9  21
BRANCH   6  30
ATOM     30  N   UNL     1       6.298   4.434  16.790  0.00  0.00    +0.000 N 
ATOM     31  C   UNL     1       6.000   3.622  15.607  0.00  0.00    +0.000 C 
ATOM     32  C   UNL     1       7.660   4.256  17.294  0.00  0.00    +0.000 C 
ENDBRANCH   6  30
TORSDOF 6
ENDMDL
MODEL 9
REMARK VINA RESULT:      -7.9      1.457      1.741
REMARK  Name = 
REMARK  10 active torsions:
REMARK  status: ('A' for Active; 'I' for Inactive)
REMARK    1  A    between atoms: C_1  and  O_2
REMARK    2  A    between atoms: O_2  and  C_3
REMARK    3  A    between atoms: C_5  and  O_6
REMARK    4  A    between atoms: O_6  and  C_7
REMARK    5  A    between atoms: C_9  and  C_10
REMARK    6  A    between atoms: C_15  and  N_16
REMARK    7  A    between atoms: N_16  and  C_17
REMARK    8  A    between atoms: N_16  and  C_18
REMARK    9  A    between atoms: C_21  and  C_22
REMARK   10  A    between atoms: C_26  and  N_27
REMARK                            x       y       z     vdW  Elec       q    Type
REMARK                         _______ _______ _______ _____ _____    ______ ____
ROOT
ATOM      1  C   UNL     1       1.279   8.720  19.879  0.00  0.00    +0.000 A 
ATOM      2  C   UNL     1       0.868   8.849  21.205  0.00  0.00    +0.000 A 
ATOM      3  C   UNL     1      -0.017   9.875  21.589  0.00  0.00    +0.000 A 
ATOM      4  C   UNL     1      -0.357  10.094  22.927  0.00  0.00    +0.000 A 
ATOM      5  C   UNL     1      -1.288  11.072  23.309  0.00  0.00    +0.000 A 
ATOM      6  C   UNL     1      -1.999  11.848  22.387  0.00  0.00    +0.000 A 
ATOM      7  C   UNL     1      -1.627  11.634  21.045  0.00  0.00    +0.000 A 
ATOM      8  C   UNL     1      -0.627  10.674  20.619  0.00  0.00    +0.000 A 
ATOM      9  C   UNL     1      -0.235  10.345  19.284  0.00  0.00    +0.000 A 
ATOM     10  N   UNL     1       0.741   9.491  18.921  0.00  0.00    +0.000 NA
ENDROOT
BRANCH   1  15
ATOM     11  C   UNL     1       3.717   6.922  17.580  0.00  0.00    +0.000 A 
ATOM     12  C   UNL     1       3.770   5.675  18.197  0.00  0.00    +0.000 A 
ATOM     13  C   UNL     1       3.082   5.413  19.380  0.00  0.00    +0.000 A 
ATOM     14  C   UNL     1       2.313   6.420  19.958  0.00  0.00    +0.000 A 
ATOM     15  C   UNL     1       2.206   7.690  19.356  0.00  0.00    +0.000 A 
ATOM     16  C   UNL     1       2.950   7.929  18.169  0.00  0.00    +0.000 A 
BRANCH  11  18
ATOM     17  C   UNL     1       5.212   5.873  16.040  0.00  0.00    +0.000 C 
ATOM     18  O   UNL     1       4.440   7.002  16.424  0.00  0.00    +0.000 OA
ENDBRANCH  11  18
BRANCH  13  19
ATOM     19  O   UNL     1       3.223   4.136  19.850  0.00  0.00    +0.000 OA
ATOM     20  C   UNL     1       2.361   3.736  20.906  0.00  0.00    +0.000 C 
ENDBRANCH  13  19
ENDBRANCH   1  15
BRANCH   9  21
ATOM     21  C   UNL     1      -1.133  10.685  18.196  0.00  0.00    +0.000 A 
ATOM     22  C   UNL     1      -1.257   9.737  17.168  0.00  0.00    +0.000 A 
ATOM     23  C   UNL     1      -2.452   9.632  16.486  0.00  0.00    +0.000 A 
ATOM     24  C   UNL     1      -3.497  10.488  16.833  0.00  0.00    +0.000 A 
ATOM     25  C   UNL     1      -3.315  11.505  17.781  0.00  0.00    +0.000 A 
ATOM     26  C   UNL     1      -2.066  11.699  18.351  0.00  0.00    +0.000 A 
BRANCH  25  27
ATOM     27  N   UNL     1      -4.362  12.372  18.120  0.00  0.00    +0.000 N 
ATOM     28  H   UNL     1      -4.974  11.958  18.817  0.00  0.00    +0.000 HD
ATOM     29  H   UNL     1      -4.020  13.280  18.429  0.00  0.00    +0.000 HD
ENDBRANCH  25  27
ENDBRANCH   9  21
BRANCH   6  30
ATOM     30  N   UNL     1      -3.029  12.691  22.784  0.00  0.00    +0.000 N 
ATOM     31  C   UNL     1      -3.682  13.592  21.830  0.00  0.00    +0.000 C 
ATOM     32  C   UNL     1      -3.773  12.519  24.031  0.00  0.00    +0.000 C 
ENDBRANCH   6  30
TORSDOF 6
ENDMDL
