MODEL 1
REMARK VINA RESULT:      -7.4      0.000      0.000
REMARK  Name = 
REMARK  8 active torsions:
REMARK  status: ('A' for Active; 'I' for Inactive)
REMARK    1  A    between atoms: C_1  and  C_2
REMARK    2  A    between atoms: N_8  and  C_9
REMARK    3  A    between atoms: C_9  and  C_10
REMARK    4  A    between atoms: C_10  and  C_11
REMARK    5  A    between atoms: N_13  and  C_14
REMARK    6  A    between atoms: C_14  and  C_15
REMARK    7  A    between atoms: C_21  and  C_22
REMARK    8  A    between atoms: C_23  and  C_24
REMARK                            x       y       z     vdW  Elec       q    Type
REMARK                         _______ _______ _______ _____ _____    ______ ____
ROOT
ATOM      1  C   UNL     1       5.181   7.347  16.315  0.00  0.00    +0.000 C 
ATOM      2  C   UNL     1       5.870   6.573  17.384  0.00  0.00    +0.000 A 
ATOM      3  N   UNL     1       5.336   5.351  17.788  0.00  0.00    +0.000 NA
ATOM      4  C   UNL     1       6.121   4.820  18.695  0.00  0.00    +0.000 A 
ATOM      5  N   UNL     1       5.990   3.642  19.360  0.00  0.00    +0.000 N 
ATOM      6  C   UNL     1       4.890   2.859  19.400  0.00  0.00    +0.000 C 
ATOM      7  O   UNL     1       4.925   1.812  20.047  0.00  0.00    +0.000 OA
ATOM      8  N   UNL     1       3.764   3.296  18.773  0.00  0.00    +0.000 N 
ATOM      9  S   UNL     1       7.493   5.707  19.150  0.00  0.00    +0.000 S 
ATOM     10  C   UNL     1       7.020   6.941  18.062  0.00  0.00    +0.000 A 
ATOM     11  H   UNL     1       6.760   3.338  19.936  0.00  0.00    +0.000 HD
ATOM     12  H   UNL     1       3.818   4.146  18.211  0.00  0.00    +0.000 HD
ENDROOT
BRANCH  10  13
ATOM     13  C   UNL     1       7.758   8.142  17.938  0.00  0.00    +0.000 C 
ATOM     14  C   UNL     1       8.343   9.193  17.987  0.00  0.00    +0.000 C 
BRANCH  14  15
ATOM     15  C   UNL     1       8.979  10.449  18.201  0.00  0.00    +0.000 A 
ATOM     16  C   UNL     1      10.072  10.542  19.058  0.00  0.00    +0.000 A 
ATOM     17  C   UNL     1      10.646  11.788  19.296  0.00  0.00    +0.000 A 
ATOM     18  C   UNL     1      10.103  12.893  18.662  0.00  0.00    +0.000 A 
ATOM     19  N   UNL     1       9.050  12.834  17.816  0.00  0.00    +0.000 NA
ATOM     20  C   UNL     1       8.509  11.610  17.606  0.00  0.00    +0.000 A 
ENDBRANCH  14  15
ENDBRANCH  10  13
BRANCH   8  21
ATOM     21  C   UNL     1       2.542   2.528  18.852  0.00  0.00    +0.000 C 
BRANCH  21  22
ATOM     22  C   UNL     1       1.295   3.311  19.252  0.00  0.00    +0.000 C 
BRANCH  22  23
ATOM     23  C   UNL     1       1.542   4.753  19.533  0.00  0.00    +0.000 A 
ATOM     24  C   UNL     1       1.306   5.473  20.688  0.00  0.00    +0.000 A 
ATOM     25  N   UNL     1       1.707   6.747  20.403  0.00  0.00    +0.000 N 
ATOM     26  C   UNL     1       2.127   6.770  19.105  0.00  0.00    +0.000 A 
ATOM     27  N   UNL     1       2.039   5.581  18.554  0.00  0.00    +0.000 NA
BRANCH  25  28
ATOM     28  C   UNL     1       1.658   7.886  21.290  0.00  0.00    +0.000 C 
BRANCH  28  29
ATOM     29  C   UNL     1       0.399   8.707  21.117  0.00  0.00    +0.000 C 
ATOM     30  F   UNL     1      -0.677   8.023  21.579  0.00  0.00    +0.000 F 
ATOM     31  F   UNL     1       0.493   9.824  21.888  0.00  0.00    +0.000 F 
ENDBRANCH  28  29
ENDBRANCH  25  28
ENDBRANCH  22  23
ENDBRANCH  21  22
ENDBRANCH   8  21
TORSDOF 7
ENDMDL
MODEL 2
REMARK VINA RESULT:      -7.4      5.054      6.586
REMARK  Name = 
REMARK  8 active torsions:
REMARK  status: ('A' for Active; 'I' for Inactive)
REMARK    1  A    between atoms: C_1  and  C_2
REMARK    2  A    between atoms: N_8  and  C_9
REMARK    3  A    between atoms: C_9  and  C_10
REMARK    4  A    between atoms: C_10  and  C_11
REMARK    5  A    between atoms: N_13  and  C_14
REMARK    6  A    between atoms: C_14  and  C_15
REMARK    7  A    between atoms: C_21  and  C_22
REMARK    8  A    between atoms: C_23  and  C_24
REMARK                            x       y       z     vdW  Elec       q    Type
REMARK                         _______ _______ _______ _____ _____    ______ ____
ROOT
ATOM      1  C   UNL     1       2.867   7.832  17.191  0.00  0.00    +0.000 C 
ATOM      2  C   UNL     1       2.359   7.638  18.578  0.00  0.00    +0.000 A 
ATOM      3  N   UNL     1       2.487   6.387  19.177  0.00  0.00    +0.000 NA
ATOM      4  C   UNL     1       2.026   6.450  20.404  0.00  0.00    +0.000 A 
ATOM      5  N   UNL     1       1.954   5.474  21.346  0.00  0.00    +0.000 N 
ATOM      6  C   UNL     1       2.132   4.149  21.147  0.00  0.00    +0.000 C 
ATOM      7  O   UNL     1       2.038   3.384  22.106  0.00  0.00    +0.000 OA
ATOM      8  N   UNL     1       2.346   3.711  19.876  0.00  0.00    +0.000 N 
ATOM      9  S   UNL     1       1.398   7.938  20.920  0.00  0.00    +0.000 S 
ATOM     10  C   UNL     1       1.741   8.587  19.373  0.00  0.00    +0.000 A 
ATOM     11  H   UNL     1       1.680   5.738  22.280  0.00  0.00    +0.000 HD
ATOM     12  H   UNL     1       2.465   4.402  19.136  0.00  0.00    +0.000 HD
ENDROOT
BRANCH  10  13
ATOM     13  C   UNL     1       1.402   9.920  19.037  0.00  0.00    +0.000 C 
ATOM     14  C   UNL     1       1.220  11.097  18.866  0.00  0.00    +0.000 C 
BRANCH  14  15
ATOM     15  C   UNL     1       1.114  12.515  18.787  0.00  0.00    +0.000 A 
ATOM     16  C   UNL     1       2.264  13.298  18.727  0.00  0.00    +0.000 A 
ATOM     17  C   UNL     1       2.142  14.684  18.703  0.00  0.00    +0.000 A 
ATOM     18  C   UNL     1       0.870  15.232  18.738  0.00  0.00    +0.000 A 
ATOM     19  N   UNL     1      -0.264  14.499  18.786  0.00  0.00    +0.000 NA
ATOM     20  C   UNL     1      -0.116  13.153  18.810  0.00  0.00    +0.000 A 
ENDBRANCH  14  15
ENDBRANCH  10  13
BRANCH   8  21
ATOM     21  C   UNL     1       2.468   2.296  19.605  0.00  0.00    +0.000 C 
BRANCH  21  22
ATOM     22  C   UNL     1       3.534   1.910  18.585  0.00  0.00    +0.000 C 
BRANCH  22  23
ATOM     23  C   UNL     1       4.286   3.063  18.018  0.00  0.00    +0.000 A 
ATOM     24  C   UNL     1       4.209   3.627  16.759  0.00  0.00    +0.000 A 
ATOM     25  N   UNL     1       5.114   4.649  16.769  0.00  0.00    +0.000 N 
ATOM     26  C   UNL     1       5.726   4.651  17.988  0.00  0.00    +0.000 A 
ATOM     27  N   UNL     1       5.247   3.706  18.763  0.00  0.00    +0.000 NA
BRANCH  25  28
ATOM     28  C   UNL     1       5.414   5.546  15.676  0.00  0.00    +0.000 C 
BRANCH  28  29
ATOM     29  C   UNL     1       6.378   4.945  14.676  0.00  0.00    +0.000 C 
ATOM     30  F   UNL     1       7.624   4.873  15.206  0.00  0.00    +0.000 F 
ATOM     31  F   UNL     1       6.003   3.662  14.421  0.00  0.00    +0.000 F 
ENDBRANCH  28  29
ENDBRANCH  25  28
ENDBRANCH  22  23
ENDBRANCH  21  22
ENDBRANCH   8  21
TORSDOF 7
ENDMDL
MODEL 3
REMARK VINA RESULT:      -7.4      1.531      1.740
REMARK  Name = 
REMARK  8 active torsions:
REMARK  status: ('A' for Active; 'I' for Inactive)
REMARK    1  A    between atoms: C_1  and  C_2
REMARK    2  A    between atoms: N_8  and  C_9
REMARK    3  A    between atoms: C_9  and  C_10
REMARK    4  A    between atoms: C_10  and  C_11
REMARK    5  A    between atoms: N_13  and  C_14
REMARK    6  A    between atoms: C_14  and  C_15
REMARK    7  A    between atoms: C_21  and  C_22
REMARK    8  A    between atoms: C_23  and  C_24
REMARK                            x       y       z     vdW  Elec       q    Type
REMARK                         _______ _______ _______ _____ _____    ______ ____
ROOT
ATOM      1  C   UNL     1       5.686   6.867  15.712  0.00  0.00    +0.000 C 
ATOM      2  C   UNL     1       6.064   6.193  16.985  0.00  0.00    +0.000 A 
ATOM      3  N   UNL     1       5.438   4.997  17.329  0.00  0.00    +0.000 NA
ATOM      4  C   UNL     1       5.952   4.553  18.452  0.00  0.00    +0.000 A 
ATOM      5  N   UNL     1       5.645   3.428  19.152  0.00  0.00    +0.000 N 
ATOM      6  C   UNL     1       4.572   2.630  18.961  0.00  0.00    +0.000 C 
ATOM      7  O   UNL     1       4.431   1.639  19.676  0.00  0.00    +0.000 OA
ATOM      8  N   UNL     1       3.654   2.996  18.024  0.00  0.00    +0.000 N 
ATOM      9  S   UNL     1       7.156   5.498  19.181  0.00  0.00    +0.000 S 
ATOM     10  C   UNL     1       6.993   6.634  17.911  0.00  0.00    +0.000 A 
ATOM     11  H   UNL     1       6.233   3.185  19.934  0.00  0.00    +0.000 HD
ATOM     12  H   UNL     1       3.859   3.799  17.430  0.00  0.00    +0.000 HD
ENDROOT
BRANCH  10  13
ATOM     13  C   UNL     1       7.741   7.835  17.892  0.00  0.00    +0.000 C 
ATOM     14  C   UNL     1       8.272   8.912  17.985  0.00  0.00    +0.000 C 
BRANCH  14  15
ATOM     15  C   UNL     1       8.779  10.224  18.205  0.00  0.00    +0.000 A 
ATOM     16  C   UNL     1       9.768  10.440  19.161  0.00  0.00    +0.000 A 
ATOM     17  C   UNL     1      10.213  11.737  19.399  0.00  0.00    +0.000 A 
ATOM     18  C   UNL     1       9.651  12.769  18.666  0.00  0.00    +0.000 A 
ATOM     19  N   UNL     1       8.697  12.591  17.725  0.00  0.00    +0.000 NA
ATOM     20  C   UNL     1       8.280  11.319  17.516  0.00  0.00    +0.000 A 
ENDBRANCH  14  15
ENDBRANCH  10  13
BRANCH   8  21
ATOM     21  C   UNL     1       2.453   2.214  17.837  0.00  0.00    +0.000 C 
BRANCH  21  22
ATOM     22  C   UNL     1       1.206   2.744  18.537  0.00  0.00    +0.000 C 
BRANCH  22  23
ATOM     23  C   UNL     1       1.415   4.017  19.281  0.00  0.00    +0.000 A 
ATOM     24  C   UNL     1       1.508   5.308  18.800  0.00  0.00    +0.000 A 
ATOM     25  N   UNL     1       1.704   6.088  19.904  0.00  0.00    +0.000 N 
ATOM     26  C   UNL     1       1.763   5.264  20.990  0.00  0.00    +0.000 A 
ATOM     27  N   UNL     1       1.592   4.008  20.646  0.00  0.00    +0.000 NA
BRANCH  25  28
ATOM     28  C   UNL     1       1.869   7.523  19.929  0.00  0.00    +0.000 C 
BRANCH  28  29
ATOM     29  C   UNL     1       2.442   8.066  18.638  0.00  0.00    +0.000 C 
ATOM     30  F   UNL     1       3.389   7.225  18.151  0.00  0.00    +0.000 F 
ATOM     31  F   UNL     1       1.456   8.105  17.701  0.00  0.00    +0.000 F 
ENDBRANCH  28  29
ENDBRANCH  25  28
ENDBRANCH  22  23
ENDBRANCH  21  22
ENDBRANCH   8  21
TORSDOF 7
ENDMDL
MODEL 4
REMARK VINA RESULT:      -7.2      0.653      1.001
REMARK  Name = 
REMARK  8 active torsions:
REMARK  status: ('A' for Active; 'I' for Inactive)
REMARK    1  A    between atoms: C_1  and  C_2
REMARK    2  A    between atoms: N_8  and  C_9
REMARK    3  A    between atoms: C_9  and  C_10
REMARK    4  A    between atoms: C_10  and  C_11
REMARK    5  A    between atoms: N_13  and  C_14
REMARK    6  A    between atoms: C_14  and  C_15
REMARK    7  A    between atoms: C_21  and  C_22
REMARK    8  A    between atoms: C_23  and  C_24
REMARK                            x       y       z     vdW  Elec       q    Type
REMARK                         _______ _______ _______ _____ _____    ______ ____
ROOT
ATOM      1  C   UNL     1       5.217   7.388  16.249  0.00  0.00    +0.000 C 
ATOM      2  C   UNL     1       5.890   6.620  17.332  0.00  0.00    +0.000 A 
ATOM      3  N   UNL     1       5.348   5.401  17.735  0.00  0.00    +0.000 NA
ATOM      4  C   UNL     1       6.119   4.874  18.656  0.00  0.00    +0.000 A 
ATOM      5  N   UNL     1       5.977   3.699  19.326  0.00  0.00    +0.000 N 
ATOM      6  C   UNL     1       4.875   2.918  19.354  0.00  0.00    +0.000 C 
ATOM      7  O   UNL     1       4.899   1.875  20.007  0.00  0.00    +0.000 OA
ATOM      8  N   UNL     1       3.758   3.353  18.708  0.00  0.00    +0.000 N 
ATOM      9  S   UNL     1       7.485   5.761  19.126  0.00  0.00    +0.000 S 
ATOM     10  C   UNL     1       7.030   6.990  18.025  0.00  0.00    +0.000 A 
ATOM     11  H   UNL     1       6.737   3.397  19.915  0.00  0.00    +0.000 HD
ATOM     12  H   UNL     1       3.822   4.200  18.142  0.00  0.00    +0.000 HD
ENDROOT
BRANCH  10  13
ATOM     13  C   UNL     1       7.772   8.189  17.905  0.00  0.00    +0.000 C 
ATOM     14  C   UNL     1       8.354   9.242  17.955  0.00  0.00    +0.000 C 
BRANCH  14  15
ATOM     15  C   UNL     1       8.978  10.504  18.167  0.00  0.00    +0.000 A 
ATOM     16  C   UNL     1       8.458  11.649  17.569  0.00  0.00    +0.000 A 
ATOM     17  C   UNL     1       9.113  12.865  17.744  0.00  0.00    +0.000 A 
ATOM     18  C   UNL     1      10.263  12.886  18.516  0.00  0.00    +0.000 A 
ATOM     19  N   UNL     1      10.786  11.794  19.118  0.00  0.00    +0.000 NA
ATOM     20  C   UNL     1      10.131  10.625  18.928  0.00  0.00    +0.000 A 
ENDBRANCH  14  15
ENDBRANCH  10  13
BRANCH   8  21
ATOM     21  C   UNL     1       2.534   2.587  18.774  0.00  0.00    +0.000 C 
BRANCH  21  22
ATOM     22  C   UNL     1       1.300   3.355  19.239  0.00  0.00    +0.000 C 
BRANCH  22  23
ATOM     23  C   UNL     1       1.543   4.799  19.510  0.00  0.00    +0.000 A 
ATOM     24  C   UNL     1       1.233   5.545  20.631  0.00  0.00    +0.000 A 
ATOM     25  N   UNL     1       1.669   6.808  20.351  0.00  0.00    +0.000 N 
ATOM     26  C   UNL     1       2.183   6.800  19.087  0.00  0.00    +0.000 A 
ATOM     27  N   UNL     1       2.121   5.602  18.554  0.00  0.00    +0.000 NA
BRANCH  25  28
ATOM     28  C   UNL     1       1.570   7.965  21.210  0.00  0.00    +0.000 C 
BRANCH  28  29
ATOM     29  C   UNL     1       0.137   8.340  21.522  0.00  0.00    +0.000 C 
ATOM     30  F   UNL     1       0.065   8.974  22.719  0.00  0.00    +0.000 F 
ATOM     31  F   UNL     1      -0.294   9.236  20.594  0.00  0.00    +0.000 F 
ENDBRANCH  28  29
ENDBRANCH  25  28
ENDBRANCH  22  23
ENDBRANCH  21  22
ENDBRANCH   8  21
TORSDOF 7
ENDMDL
MODEL 5
REMARK VINA RESULT:      -7.1      4.186      6.862
REMARK  Name = 
REMARK  8 active torsions:
REMARK  status: ('A' for Active; 'I' for Inactive)
REMARK    1  A    between atoms: C_1  and  C_2
REMARK    2  A    between atoms: N_8  and  C_9
REMARK    3  A    between atoms: C_9  and  C_10
REMARK    4  A    between atoms: C_10  and  C_11
REMARK    5  A    between atoms: N_13  and  C_14
REMARK    6  A    between atoms: C_14  and  C_15
REMARK    7  A    between atoms: C_21  and  C_22
REMARK    8  A    between atoms: C_23  and  C_24
REMARK                            x       y       z     vdW  Elec       q    Type
REMARK                         _______ _______ _______ _____ _____    ______ ____
ROOT
ATOM      1  C   UNL     1       2.287   9.064  17.692  0.00  0.00    +0.000 C 
ATOM      2  C   UNL     1       1.920   8.441  18.994  0.00  0.00    +0.000 A 
ATOM      3  N   UNL     1       2.155   7.082  19.184  0.00  0.00    +0.000 NA
ATOM      4  C   UNL     1       1.808   6.754  20.407  0.00  0.00    +0.000 A 
ATOM      5  N   UNL     1       1.865   5.543  21.021  0.00  0.00    +0.000 N 
ATOM      6  C   UNL     1       2.079   4.349  20.426  0.00  0.00    +0.000 C 
ATOM      7  O   UNL     1       2.107   3.333  21.119  0.00  0.00    +0.000 OA
ATOM      8  N   UNL     1       2.191   4.315  19.069  0.00  0.00    +0.000 N 
ATOM      9  S   UNL     1       1.170   7.982  21.387  0.00  0.00    +0.000 S 
ATOM     10  C   UNL     1       1.339   9.074  20.080  0.00  0.00    +0.000 A 
ATOM     11  H   UNL     1       1.669   5.506  22.009  0.00  0.00    +0.000 HD
ATOM     12  H   UNL     1       2.212   5.199  18.560  0.00  0.00    +0.000 HD
ENDROOT
BRANCH  10  13
ATOM     13  C   UNL     1       0.915  10.421  20.180  0.00  0.00    +0.000 C 
ATOM     14  C   UNL     1       0.589  11.577  20.106  0.00  0.00    +0.000 C 
BRANCH  14  15
ATOM     15  C   UNL     1       0.247  12.937  19.859  0.00  0.00    +0.000 A 
ATOM     16  C   UNL     1      -0.919  13.474  20.400  0.00  0.00    +0.000 A 
ATOM     17  C   UNL     1      -1.263  14.789  20.103  0.00  0.00    +0.000 A 
ATOM     18  C   UNL     1      -0.424  15.518  19.277  0.00  0.00    +0.000 A 
ATOM     19  N   UNL     1       0.719  15.029  18.745  0.00  0.00    +0.000 NA
ATOM     20  C   UNL     1       1.028  13.746  19.048  0.00  0.00    +0.000 A 
ENDBRANCH  14  15
ENDBRANCH  10  13
BRANCH   8  21
ATOM     21  C   UNL     1       2.345   3.052  18.383  0.00  0.00    +0.000 C 
BRANCH  21  22
ATOM     22  C   UNL     1       3.783   2.632  18.091  0.00  0.00    +0.000 C 
BRANCH  22  23
ATOM     23  C   UNL     1       4.770   3.745  18.151  0.00  0.00    +0.000 A 
ATOM     24  C   UNL     1       5.428   4.389  17.121  0.00  0.00    +0.000 A 
ATOM     25  N   UNL     1       6.218   5.322  17.730  0.00  0.00    +0.000 N 
ATOM     26  C   UNL     1       6.051   5.193  19.078  0.00  0.00    +0.000 A 
ATOM     27  N   UNL     1       5.183   4.249  19.362  0.00  0.00    +0.000 NA
BRANCH  25  28
ATOM     28  C   UNL     1       7.110   6.254  17.079  0.00  0.00    +0.000 C 
BRANCH  28  29
ATOM     29  C   UNL     1       7.513   7.401  17.980  0.00  0.00    +0.000 C 
ATOM     30  F   UNL     1       8.581   7.052  18.739  0.00  0.00    +0.000 F 
ATOM     31  F   UNL     1       7.925   8.443  17.207  0.00  0.00    +0.000 F 
ENDBRANCH  28  29
ENDBRANCH  25  28
ENDBRANCH  22  23
ENDBRANCH  21  22
ENDBRANCH   8  21
TORSDOF 7
ENDMDL
MODEL 6
REMARK VINA RESULT:      -7.0      5.438      8.818
REMARK  Name = 
REMARK  8 active torsions:
REMARK  status: ('A' for Active; 'I' for Inactive)
REMARK    1  A    between atoms: C_1  and  C_2
REMARK    2  A    between atoms: N_8  and  C_9
REMARK    3  A    between atoms: C_9  and  C_10
REMARK    4  A    between atoms: C_10  and  C_11
REMARK    5  A    between atoms: N_13  and  C_14
REMARK    6  A    between atoms: C_14  and  C_15
REMARK    7  A    between atoms: C_21  and  C_22
REMARK    8  A    between atoms: C_23  and  C_24
REMARK                            x       y       z     vdW  Elec       q    Type
REMARK                         _______ _______ _______ _____ _____    ______ ____
ROOT
ATOM      1  C   UNL     1       1.726  10.328  18.167  0.00  0.00    +0.000 C 
ATOM      2  C   UNL     1       1.603   9.245  19.182  0.00  0.00    +0.000 A 
ATOM      3  N   UNL     1       2.330   8.070  19.011  0.00  0.00    +0.000 NA
ATOM      4  C   UNL     1       2.115   7.280  20.037  0.00  0.00    +0.000 A 
ATOM      5  N   UNL     1       2.616   6.042  20.287  0.00  0.00    +0.000 N 
ATOM      6  C   UNL     1       3.273   5.248  19.413  0.00  0.00    +0.000 C 
ATOM      7  O   UNL     1       3.673   4.147  19.791  0.00  0.00    +0.000 OA
ATOM      8  N   UNL     1       3.409   5.677  18.128  0.00  0.00    +0.000 N 
ATOM      9  S   UNL     1       1.047   7.834  21.231  0.00  0.00    +0.000 S 
ATOM     10  C   UNL     1       0.811   9.262  20.317  0.00  0.00    +0.000 A 
ATOM     11  H   UNL     1       2.435   5.634  21.191  0.00  0.00    +0.000 HD
ATOM     12  H   UNL     1       3.103   6.622  17.895  0.00  0.00    +0.000 HD
ENDROOT
BRANCH  10  13
ATOM     13  C   UNL     1      -0.092  10.269  20.737  0.00  0.00    +0.000 C 
ATOM     14  C   UNL     1      -0.816  11.204  20.957  0.00  0.00    +0.000 C 
BRANCH  14  15
ATOM     15  C   UNL     1      -1.615  12.377  21.077  0.00  0.00    +0.000 A 
ATOM     16  C   UNL     1      -1.325  13.501  20.307  0.00  0.00    +0.000 A 
ATOM     17  C   UNL     1      -2.084  14.656  20.478  0.00  0.00    +0.000 A 
ATOM     18  C   UNL     1      -3.106  14.638  21.412  0.00  0.00    +0.000 A 
ATOM     19  N   UNL     1      -3.418  13.561  22.167  0.00  0.00    +0.000 NA
ATOM     20  C   UNL     1      -2.662  12.452  21.983  0.00  0.00    +0.000 A 
ENDBRANCH  14  15
ENDBRANCH  10  13
BRANCH   8  21
ATOM     21  C   UNL     1       4.039   4.830  17.141  0.00  0.00    +0.000 C 
BRANCH  21  22
ATOM     22  C   UNL     1       5.553   4.970  17.021  0.00  0.00    +0.000 C 
BRANCH  22  23
ATOM     23  C   UNL     1       6.079   4.771  15.642  0.00  0.00    +0.000 A 
ATOM     24  C   UNL     1       5.622   3.934  14.642  0.00  0.00    +0.000 A 
ATOM     25  N   UNL     1       6.467   4.141  13.589  0.00  0.00    +0.000 N 
ATOM     26  C   UNL     1       7.410   5.044  13.984  0.00  0.00    +0.000 A 
ATOM     27  N   UNL     1       7.202   5.442  15.218  0.00  0.00    +0.000 NA
BRANCH  25  28
ATOM     28  C   UNL     1       6.412   3.493  12.299  0.00  0.00    +0.000 C 
BRANCH  28  29
ATOM     29  C   UNL     1       5.038   2.947  11.978  0.00  0.00    +0.000 C 
ATOM     30  F   UNL     1       4.312   3.868  11.296  0.00  0.00    +0.000 F 
ATOM     31  F   UNL     1       5.173   1.881  11.143  0.00  0.00    +0.000 F 
ENDBRANCH  28  29
ENDBRANCH  25  28
ENDBRANCH  22  23
ENDBRANCH  21  22
ENDBRANCH   8  21
TORSDOF 7
ENDMDL
MODEL 7
REMARK VINA RESULT:      -7.0      5.003      7.868
REMARK  Name = 
REMARK  8 active torsions:
REMARK  status: ('A' for Active; 'I' for Inactive)
REMARK    1  A    between atoms: C_1  and  C_2
REMARK    2  A    between atoms: N_8  and  C_9
REMARK    3  A    between atoms: C_9  and  C_10
REMARK    4  A    between atoms: C_10  and  C_11
REMARK    5  A    between atoms: N_13  and  C_14
REMARK    6  A    between atoms: C_14  and  C_15
REMARK    7  A    between atoms: C_21  and  C_22
REMARK    8  A    between atoms: C_23  and  C_24
REMARK                            x       y       z     vdW  Elec       q    Type
REMARK                         _______ _______ _______ _____ _____    ______ ____
ROOT
ATOM      1  C   UNL     1       1.991   9.891  17.644  0.00  0.00    +0.000 C 
ATOM      2  C   UNL     1       1.648   9.208  18.922  0.00  0.00    +0.000 A 
ATOM      3  N   UNL     1       0.894   9.891  19.874  0.00  0.00    +0.000 NA
ATOM      4  C   UNL     1       0.666   9.094  20.891  0.00  0.00    +0.000 A 
ATOM      5  N   UNL     1      -0.024   9.339  22.036  0.00  0.00    +0.000 N 
ATOM      6  C   UNL     1      -0.435  10.546  22.485  0.00  0.00    +0.000 C 
ATOM      7  O   UNL     1      -1.056  10.609  23.546  0.00  0.00    +0.000 OA
ATOM      8  N   UNL     1      -0.085  11.653  21.774  0.00  0.00    +0.000 N 
ATOM      9  S   UNL     1       1.327   7.535  20.818  0.00  0.00    +0.000 S 
ATOM     10  C   UNL     1       2.011   7.927  19.299  0.00  0.00    +0.000 A 
ATOM     11  H   UNL     1      -0.202   8.564  22.655  0.00  0.00    +0.000 HD
ATOM     12  H   UNL     1       0.385  11.526  20.876  0.00  0.00    +0.000 HD
ENDROOT
BRANCH  10  13
ATOM     13  C   UNL     1       2.827   7.008  18.595  0.00  0.00    +0.000 C 
ATOM     14  C   UNL     1       3.558   6.353  17.899  0.00  0.00    +0.000 C 
BRANCH  14  15
ATOM     15  C   UNL     1       4.445   5.716  16.986  0.00  0.00    +0.000 A 
ATOM     16  C   UNL     1       4.622   4.335  17.032  0.00  0.00    +0.000 A 
ATOM     17  C   UNL     1       5.533   3.737  16.167  0.00  0.00    +0.000 A 
ATOM     18  C   UNL     1       6.231   4.547  15.286  0.00  0.00    +0.000 A 
ATOM     19  N   UNL     1       6.075   5.887  15.210  0.00  0.00    +0.000 NA
ATOM     20  C   UNL     1       5.184   6.443  16.065  0.00  0.00    +0.000 A 
ENDBRANCH  14  15
ENDBRANCH  10  13
BRANCH   8  21
ATOM     21  C   UNL     1      -0.437  12.969  22.255  0.00  0.00    +0.000 C 
BRANCH  21  22
ATOM     22  C   UNL     1      -1.255  13.826  21.293  0.00  0.00    +0.000 C 
BRANCH  22  23
ATOM     23  C   UNL     1      -1.950  13.054  20.226  0.00  0.00    +0.000 A 
ATOM     24  C   UNL     1      -1.496  12.683  18.975  0.00  0.00    +0.000 A 
ATOM     25  N   UNL     1      -2.533  11.999  18.408  0.00  0.00    +0.000 N 
ATOM     26  C   UNL     1      -3.572  12.009  19.292  0.00  0.00    +0.000 A 
ATOM     27  N   UNL     1      -3.250  12.639  20.398  0.00  0.00    +0.000 NA
BRANCH  25  28
ATOM     28  C   UNL     1      -2.556  11.406  17.090  0.00  0.00    +0.000 C 
BRANCH  28  29
ATOM     29  C   UNL     1      -1.805  10.093  17.028  0.00  0.00    +0.000 C 
ATOM     30  F   UNL     1      -1.896   9.441  18.214  0.00  0.00    +0.000 F 
ATOM     31  F   UNL     1      -2.404   9.288  16.108  0.00  0.00    +0.000 F 
ENDBRANCH  28  29
ENDBRANCH  25  28
ENDBRANCH  22  23
ENDBRANCH  21  22
ENDBRANCH   8  21
TORSDOF 7
ENDMDL
MODEL 8
REMARK VINA RESULT:      -7.0      4.267      7.323
REMARK  Name = 
REMARK  8 active torsions:
REMARK  status: ('A' for Active; 'I' for Inactive)
REMARK    1  A    between atoms: C_1  and  C_2
REMARK    2  A    between atoms: N_8  and  C_9
REMARK    3  A    between atoms: C_9  and  C_10
REMARK    4  A    between atoms: C_10  and  C_11
REMARK    5  A    between atoms: N_13  and  C_14
REMARK    6  A    between atoms: C_14  and  C_15
REMARK    7  A    between atoms: C_21  and  C_22
REMARK    8  A    between atoms: C_23  and  C_24
REMARK                            x       y       z     vdW  Elec       q    Type
REMARK                         _______ _______ _______ _____ _____    ______ ____
ROOT
ATOM      1  C   UNL     1       1.357   7.173  21.190  0.00  0.00    +0.000 C 
ATOM      2  C   UNL     1       1.703   7.859  19.914  0.00  0.00    +0.000 A 
ATOM      3  N   UNL     1       2.658   7.288  19.076  0.00  0.00    +0.000 NA
ATOM      4  C   UNL     1       2.772   8.022  17.994  0.00  0.00    +0.000 A 
ATOM      5  N   UNL     1       3.578   7.843  16.915  0.00  0.00    +0.000 N 
ATOM      6  C   UNL     1       4.618   6.985  16.822  0.00  0.00    +0.000 C 
ATOM      7  O   UNL     1       5.256   6.933  15.771  0.00  0.00    +0.000 OA
ATOM      8  N   UNL     1       4.955   6.258  17.922  0.00  0.00    +0.000 N 
ATOM      9  S   UNL     1       1.811   9.416  17.899  0.00  0.00    +0.000 S 
ATOM     10  C   UNL     1       1.177   9.051  19.446  0.00  0.00    +0.000 A 
ATOM     11  H   UNL     1       3.440   8.445  16.118  0.00  0.00    +0.000 HD
ATOM     12  H   UNL     1       4.352   6.309  18.744  0.00  0.00    +0.000 HD
ENDROOT
BRANCH  10  13
ATOM     13  C   UNL     1       0.249   9.906  20.087  0.00  0.00    +0.000 C 
ATOM     14  C   UNL     1      -0.424  10.746  20.625  0.00  0.00    +0.000 C 
BRANCH  14  15
ATOM     15  C   UNL     1      -1.087  11.841  21.248  0.00  0.00    +0.000 A 
ATOM     16  C   UNL     1      -0.865  12.118  22.595  0.00  0.00    +0.000 A 
ATOM     17  C   UNL     1      -1.563  13.160  23.199  0.00  0.00    +0.000 A 
ATOM     18  C   UNL     1      -2.456  13.886  22.429  0.00  0.00    +0.000 A 
ATOM     19  N   UNL     1      -2.686  13.649  21.118  0.00  0.00    +0.000 NA
ATOM     20  C   UNL     1      -1.996  12.628  20.556  0.00  0.00    +0.000 A 
ENDBRANCH  14  15
ENDBRANCH  10  13
BRANCH   8  21
ATOM     21  C   UNL     1       6.105   5.383  17.892  0.00  0.00    +0.000 C 
BRANCH  21  22
ATOM     22  C   UNL     1       5.802   3.891  17.999  0.00  0.00    +0.000 C 
BRANCH  22  23
ATOM     23  C   UNL     1       4.380   3.576  18.307  0.00  0.00    +0.000 A 
ATOM     24  C   UNL     1       3.814   3.149  19.493  0.00  0.00    +0.000 A 
ATOM     25  N   UNL     1       2.483   3.007  19.222  0.00  0.00    +0.000 N 
ATOM     26  C   UNL     1       2.292   3.305  17.905  0.00  0.00    +0.000 A 
ATOM     27  N   UNL     1       3.419   3.652  17.326  0.00  0.00    +0.000 NA
BRANCH  25  28
ATOM     28  C   UNL     1       1.457   2.573  20.143  0.00  0.00    +0.000 C 
BRANCH  28  29
ATOM     29  C   UNL     1       1.882   2.696  21.590  0.00  0.00    +0.000 C 
ATOM     30  F   UNL     1       2.126   3.994  21.901  0.00  0.00    +0.000 F 
ATOM     31  F   UNL     1       0.850   2.306  22.386  0.00  0.00    +0.000 F 
ENDBRANCH  28  29
ENDBRANCH  25  28
ENDBRANCH  22  23
ENDBRANCH  21  22
ENDBRANCH   8  21
TORSDOF 7
ENDMDL
MODEL 9
REMARK VINA RESULT:      -7.0      4.105      6.717
REMARK  Name = 
REMARK  8 active torsions:
REMARK  status: ('A' for Active; 'I' for Inactive)
REMARK    1  A    between atoms: C_1  and  C_2
REMARK    2  A    between atoms: N_8  and  C_9
REMARK    3  A    between atoms: C_9  and  C_10
REMARK    4  A    between atoms: C_10  and  C_11
REMARK    5  A    between atoms: N_13  and  C_14
REMARK    6  A    between atoms: C_14  and  C_15
REMARK    7  A    between atoms: C_21  and  C_22
REMARK    8  A    between atoms: C_23  and  C_24
REMARK                            x       y       z     vdW  Elec       q    Type
REMARK                         _______ _______ _______ _____ _____    ______ ____
ROOT
ATOM      1  C   UNL     1       2.642   8.214  17.476  0.00  0.00    +0.000 C 
ATOM      2  C   UNL     1       2.157   7.844  18.834  0.00  0.00    +0.000 A 
ATOM      3  N   UNL     1       2.409   6.562  19.318  0.00  0.00    +0.000 NA
ATOM      4  C   UNL     1       1.944   6.466  20.540  0.00  0.00    +0.000 A 
ATOM      5  N   UNL     1       1.970   5.405  21.389  0.00  0.00    +0.000 N 
ATOM      6  C   UNL     1       2.281   4.128  21.071  0.00  0.00    +0.000 C 
ATOM      7  O   UNL     1       2.264   3.272  21.955  0.00  0.00    +0.000 OA
ATOM      8  N   UNL     1       2.538   3.832  19.768  0.00  0.00    +0.000 N 
ATOM      9  S   UNL     1       1.169   7.830  21.185  0.00  0.00    +0.000 S 
ATOM     10  C   UNL     1       1.446   8.649  19.707  0.00  0.00    +0.000 A 
ATOM     11  H   UNL     1       1.671   5.553  22.340  0.00  0.00    +0.000 HD
ATOM     12  H   UNL     1       2.587   4.598  19.095  0.00  0.00    +0.000 HD
ENDROOT
BRANCH  10  13
ATOM     13  C   UNL     1       0.974   9.966  19.491  0.00  0.00    +0.000 C 
ATOM     14  C   UNL     1       0.590  11.106  19.468  0.00  0.00    +0.000 C 
BRANCH  14  15
ATOM     15  C   UNL     1       0.155  12.455  19.607  0.00  0.00    +0.000 A 
ATOM     16  C   UNL     1       0.386  13.372  18.584  0.00  0.00    +0.000 A 
ATOM     17  C   UNL     1       0.001  14.698  18.760  0.00  0.00    +0.000 A 
ATOM     18  C   UNL     1      -0.604  15.053  19.954  0.00  0.00    +0.000 A 
ATOM     19  N   UNL     1      -0.851  14.186  20.961  0.00  0.00    +0.000 NA
ATOM     20  C   UNL     1      -0.464  12.903  20.764  0.00  0.00    +0.000 A 
ENDBRANCH  14  15
ENDBRANCH  10  13
BRANCH   8  21
ATOM     21  C   UNL     1       2.801   2.468  19.369  0.00  0.00    +0.000 C 
BRANCH  21  22
ATOM     22  C   UNL     1       3.801   2.295  18.230  0.00  0.00    +0.000 C 
BRANCH  22  23
ATOM     23  C   UNL     1       4.459   3.558  17.795  0.00  0.00    +0.000 A 
ATOM     24  C   UNL     1       5.354   4.360  18.477  0.00  0.00    +0.000 A 
ATOM     25  N   UNL     1       5.634   5.389  17.624  0.00  0.00    +0.000 N 
ATOM     26  C   UNL     1       4.891   5.207  16.495  0.00  0.00    +0.000 A 
ATOM     27  N   UNL     1       4.171   4.110  16.569  0.00  0.00    +0.000 NA
BRANCH  25  28
ATOM     28  C   UNL     1       6.520   6.502  17.877  0.00  0.00    +0.000 C 
BRANCH  28  29
ATOM     29  C   UNL     1       7.744   6.104  18.673  0.00  0.00    +0.000 C 
ATOM     30  F   UNL     1       8.592   7.156  18.790  0.00  0.00    +0.000 F 
ATOM     31  F   UNL     1       7.361   5.787  19.939  0.00  0.00    +0.000 F 
ENDBRANCH  28  29
ENDBRANCH  25  28
ENDBRANCH  22  23
ENDBRANCH  21  22
ENDBRANCH   8  21
TORSDOF 7
ENDMDL
