MODEL 1
REMARK VINA RESULT:      -7.0      0.000      0.000
REMARK  Name = 
REMARK  10 active torsions:
REMARK  status: ('A' for Active; 'I' for Inactive)
REMARK    1  A    between atoms: C_1  and  C_2
REMARK    2  A    between atoms: C_2  and  O_3
REMARK    3  A    between atoms: O_3  and  P_4
REMARK    4  A    between atoms: P_4  and  O_6
REMARK    5  A    between atoms: P_4  and  C_9
REMARK    6  A    between atoms: O_6  and  C_7
REMARK    7  A    between atoms: C_7  and  C_8
REMARK    8  A    between atoms: C_11  and  C_12
REMARK    9  A    between atoms: N_14  and  C_15
REMARK   10  A    between atoms: N_23  and  C_24
REMARK                            x       y       z     vdW  Elec       q    Type
REMARK                         _______ _______ _______ _____ _____    ______ ____
ROOT
ATOM      1  C   UNL     1       5.783   4.489  17.363  0.00  0.00    +0.000 C 
ATOM      2  C   UNL     1       4.365   3.924  17.253  0.00  0.00    +0.000 C 
ATOM      3  C   UNL     1       3.655   4.415  18.504  0.00  0.00    +0.000 C 
ATOM      4  O   UNL     1       4.690   4.910  19.371  0.00  0.00    +0.000 OA
ATOM      5  N   UNL     1       5.960   4.489  18.817  0.00  0.00    +0.000 NA
ATOM      6  C   UNL     1       6.976   5.342  19.402  0.00  0.00    +0.000 C 
ENDROOT
BRANCH   3   7
ATOM      7  C   UNL     1       2.618   5.547  18.432  0.00  0.00    +0.000 C 
ATOM      8  O   UNL     1       1.569   5.365  17.809  0.00  0.00    +0.000 OA
ATOM      9  N   UNL     1       2.986   6.775  18.964  0.00  0.00    +0.000 N 
ATOM     10  H   UNL     1       3.927   6.897  19.317  0.00  0.00    +0.000 HD
BRANCH   9  11
ATOM     11  C   UNL     1       2.185   7.957  18.946  0.00  0.00    +0.000 A 
ATOM     12  C   UNL     1       2.177   8.850  17.862  0.00  0.00    +0.000 A 
ATOM     13  C   UNL     1       1.426  10.030  17.892  0.00  0.00    +0.000 A 
ATOM     14  C   UNL     1       0.648  10.333  19.001  0.00  0.00    +0.000 A 
ATOM     15  C   UNL     1       0.606   9.445  20.075  0.00  0.00    +0.000 A 
ATOM     16  C   UNL     1       1.364   8.263  20.044  0.00  0.00    +0.000 A 
ATOM     17 CL   UNL     1       1.280   7.212  21.416  0.00  0.00    +0.000 Cl
ENDBRANCH   9  11
ENDBRANCH   3   7
BRANCH   1  18
ATOM     18  P   UNL     1       5.871   6.058  16.484  0.00  0.00    +0.000 P 
ATOM     19  O   UNL     1       4.657   6.930  16.670  0.00  0.00    +0.000 OA
BRANCH  18  20
ATOM     20  O   UNL     1       7.268   6.830  16.718  0.00  0.00    +0.000 OA
BRANCH  20  22
ATOM     21  C   UNL     1       8.348   8.530  18.085  0.00  0.00    +0.000 C 
ATOM     22  C   UNL     1       7.124   8.127  17.292  0.00  0.00    +0.000 C 
ENDBRANCH  20  22
ENDBRANCH  18  20
BRANCH  18  23
ATOM     23  O   UNL     1       6.031   5.567  14.936  0.00  0.00    +0.000 OA
BRANCH  23  24
ATOM     24  C   UNL     1       6.588   4.279  14.724  0.00  0.00    +0.000 C 
ATOM     25  C   UNL     1       6.215   3.749  13.352  0.00  0.00    +0.000 C 
ENDBRANCH  23  24
ENDBRANCH  18  23
ENDBRANCH   1  18
TORSDOF 7
ENDMDL
MODEL 2
REMARK VINA RESULT:      -6.8      2.482      4.350
REMARK  Name = 
REMARK  10 active torsions:
REMARK  status: ('A' for Active; 'I' for Inactive)
REMARK    1  A    between atoms: C_1  and  C_2
REMARK    2  A    between atoms: C_2  and  O_3
REMARK    3  A    between atoms: O_3  and  P_4
REMARK    4  A    between atoms: P_4  and  O_6
REMARK    5  A    between atoms: P_4  and  C_9
REMARK    6  A    between atoms: O_6  and  C_7
REMARK    7  A    between atoms: C_7  and  C_8
REMARK    8  A    between atoms: C_11  and  C_12
REMARK    9  A    between atoms: N_14  and  C_15
REMARK   10  A    between atoms: N_23  and  C_24
REMARK                            x       y       z     vdW  Elec       q    Type
REMARK                         _______ _______ _______ _____ _____    ______ ____
ROOT
ATOM      1  C   UNL     1       6.283   5.707  16.077  0.00  0.00    +0.000 C 
ATOM      2  C   UNL     1       5.061   5.141  15.350  0.00  0.00    +0.000 C 
ATOM      3  C   UNL     1       4.838   3.773  15.974  0.00  0.00    +0.000 C 
ATOM      4  O   UNL     1       6.032   3.488  16.725  0.00  0.00    +0.000 OA
ATOM      5  N   UNL     1       7.025   4.475  16.354  0.00  0.00    +0.000 NA
ATOM      6  C   UNL     1       8.026   4.477  17.403  0.00  0.00    +0.000 C 
ENDROOT
BRANCH   3   7
ATOM      7  C   UNL     1       3.681   3.530  16.957  0.00  0.00    +0.000 C 
ATOM      8  O   UNL     1       2.536   3.398  16.518  0.00  0.00    +0.000 OA
ATOM      9  N   UNL     1       3.974   3.611  18.310  0.00  0.00    +0.000 N 
ATOM     10  H   UNL     1       4.906   3.884  18.598  0.00  0.00    +0.000 HD
BRANCH   9  11
ATOM     11  C   UNL     1       3.029   3.470  19.371  0.00  0.00    +0.000 A 
ATOM     12  C   UNL     1       1.790   4.130  19.375  0.00  0.00    +0.000 A 
ATOM     13  C   UNL     1       0.905   4.019  20.453  0.00  0.00    +0.000 A 
ATOM     14  C   UNL     1       1.231   3.224  21.544  0.00  0.00    +0.000 A 
ATOM     15  C   UNL     1       2.437   2.525  21.548  0.00  0.00    +0.000 A 
ATOM     16  C   UNL     1       3.326   2.642  20.467  0.00  0.00    +0.000 A 
ATOM     17 CL   UNL     1       4.813   1.760  20.543  0.00  0.00    +0.000 Cl
ENDBRANCH   9  11
ENDBRANCH   3   7
BRANCH   1  18
ATOM     18  P   UNL     1       5.739   6.715  17.465  0.00  0.00    +0.000 P 
ATOM     19  O   UNL     1       5.722   5.983  18.782  0.00  0.00    +0.000 OA
BRANCH  18  20
ATOM     20  O   UNL     1       6.480   8.147  17.527  0.00  0.00    +0.000 OA
BRANCH  20  22
ATOM     21  C   UNL     1       8.465   9.386  18.199  0.00  0.00    +0.000 C 
ATOM     22  C   UNL     1       7.886   8.063  17.746  0.00  0.00    +0.000 C 
ENDBRANCH  20  22
ENDBRANCH  18  20
BRANCH  18  23
ATOM     23  O   UNL     1       4.238   7.150  16.997  0.00  0.00    +0.000 OA
BRANCH  23  24
ATOM     24  C   UNL     1       3.250   7.245  18.012  0.00  0.00    +0.000 C 
ATOM     25  C   UNL     1       2.353   8.446  17.781  0.00  0.00    +0.000 C 
ENDBRANCH  23  24
ENDBRANCH  18  23
ENDBRANCH   1  18
TORSDOF 7
ENDMDL
MODEL 3
REMARK VINA RESULT:      -6.5      1.081      1.510
REMARK  Name = 
REMARK  10 active torsions:
REMARK  status: ('A' for Active; 'I' for Inactive)
REMARK    1  A    between atoms: C_1  and  C_2
REMARK    2  A    between atoms: C_2  and  O_3
REMARK    3  A    between atoms: O_3  and  P_4
REMARK    4  A    between atoms: P_4  and  O_6
REMARK    5  A    between atoms: P_4  and  C_9
REMARK    6  A    between atoms: O_6  and  C_7
REMARK    7  A    between atoms: C_7  and  C_8
REMARK    8  A    between atoms: C_11  and  C_12
REMARK    9  A    between atoms: N_14  and  C_15
REMARK   10  A    between atoms: N_23  and  C_24
REMARK                            x       y       z     vdW  Elec       q    Type
REMARK                         _______ _______ _______ _____ _____    ______ ____
ROOT
ATOM      1  C   UNL     1       5.941   4.595  17.531  0.00  0.00    +0.000 C 
ATOM      2  C   UNL     1       4.563   3.930  17.505  0.00  0.00    +0.000 C 
ATOM      3  C   UNL     1       3.920   4.319  18.826  0.00  0.00    +0.000 C 
ATOM      4  O   UNL     1       4.982   4.858  19.633  0.00  0.00    +0.000 OA
ATOM      5  N   UNL     1       6.232   4.555  18.966  0.00  0.00    +0.000 NA
ATOM      6  C   UNL     1       7.227   5.459  19.508  0.00  0.00    +0.000 C 
ENDROOT
BRANCH   3   7
ATOM      7  C   UNL     1       2.803   5.373  18.882  0.00  0.00    +0.000 C 
ATOM      8  O   UNL     1       1.881   5.316  18.065  0.00  0.00    +0.000 OA
ATOM      9  N   UNL     1       2.968   6.422  19.774  0.00  0.00    +0.000 N 
ATOM     10  H   UNL     1       3.830   6.491  20.301  0.00  0.00    +0.000 HD
BRANCH   9  11
ATOM     11  C   UNL     1       2.070   7.521  19.934  0.00  0.00    +0.000 A 
ATOM     12  C   UNL     1       1.298   7.707  21.091  0.00  0.00    +0.000 A 
ATOM     13  C   UNL     1       0.384   8.761  21.200  0.00  0.00    +0.000 A 
ATOM     14  C   UNL     1       0.239   9.668  20.159  0.00  0.00    +0.000 A 
ATOM     15  C   UNL     1       1.023   9.531  19.014  0.00  0.00    +0.000 A 
ATOM     16  C   UNL     1       1.936   8.469  18.905  0.00  0.00    +0.000 A 
ATOM     17 CL   UNL     1       2.866   8.347  17.451  0.00  0.00    +0.000 Cl
ENDBRANCH   9  11
ENDBRANCH   3   7
BRANCH   1  18
ATOM     18  P   UNL     1       5.847   6.197  16.716  0.00  0.00    +0.000 P 
ATOM     19  O   UNL     1       4.630   7.002  17.092  0.00  0.00    +0.000 OA
BRANCH  18  20
ATOM     20  O   UNL     1       7.227   7.027  16.803  0.00  0.00    +0.000 OA
BRANCH  20  22
ATOM     21  C   UNL     1       8.376   8.764  18.064  0.00  0.00    +0.000 C 
ATOM     22  C   UNL     1       7.093   8.315  17.399  0.00  0.00    +0.000 C 
ENDBRANCH  20  22
ENDBRANCH  18  20
BRANCH  18  23
ATOM     23  O   UNL     1       5.826   5.772  15.141  0.00  0.00    +0.000 OA
BRANCH  23  24
ATOM     24  C   UNL     1       6.806   4.839  14.713  0.00  0.00    +0.000 C 
ATOM     25  C   UNL     1       6.228   3.878  13.692  0.00  0.00    +0.000 C 
ENDBRANCH  23  24
ENDBRANCH  18  23
ENDBRANCH   1  18
TORSDOF 7
ENDMDL
MODEL 4
REMARK VINA RESULT:      -6.2      2.983      6.908
REMARK  Name = 
REMARK  10 active torsions:
REMARK  status: ('A' for Active; 'I' for Inactive)
REMARK    1  A    between atoms: C_1  and  C_2
REMARK    2  A    between atoms: C_2  and  O_3
REMARK    3  A    between atoms: O_3  and  P_4
REMARK    4  A    between atoms: P_4  and  O_6
REMARK    5  A    between atoms: P_4  and  C_9
REMARK    6  A    between atoms: O_6  and  C_7
REMARK    7  A    between atoms: C_7  and  C_8
REMARK    8  A    between atoms: C_11  and  C_12
REMARK    9  A    between atoms: N_14  and  C_15
REMARK   10  A    between atoms: N_23  and  C_24
REMARK                            x       y       z     vdW  Elec       q    Type
REMARK                         _______ _______ _______ _____ _____    ______ ____
ROOT
ATOM      1  C   UNL     1       4.788   5.421  19.298  0.00  0.00    +0.000 C 
ATOM      2  C   UNL     1       5.781   6.341  18.584  0.00  0.00    +0.000 C 
ATOM      3  C   UNL     1       6.550   5.427  17.644  0.00  0.00    +0.000 C 
ATOM      4  O   UNL     1       6.235   4.087  18.060  0.00  0.00    +0.000 OA
ATOM      5  N   UNL     1       5.557   4.176  19.337  0.00  0.00    +0.000 NA
ATOM      6  C   UNL     1       4.856   2.921  19.528  0.00  0.00    +0.000 C 
ENDROOT
BRANCH   3   7
ATOM      7  C   UNL     1       6.287   5.447  16.130  0.00  0.00    +0.000 C 
ATOM      8  O   UNL     1       5.599   6.351  15.651  0.00  0.00    +0.000 OA
ATOM      9  N   UNL     1       6.731   4.356  15.397  0.00  0.00    +0.000 N 
ATOM     10  H   UNL     1       7.147   3.572  15.884  0.00  0.00    +0.000 HD
BRANCH   9  11
ATOM     11  C   UNL     1       6.535   4.167  13.995  0.00  0.00    +0.000 A 
ATOM     12  C   UNL     1       5.485   3.396  13.474  0.00  0.00    +0.000 A 
ATOM     13  C   UNL     1       5.348   3.179  12.098  0.00  0.00    +0.000 A 
ATOM     14  C   UNL     1       6.249   3.751  11.210  0.00  0.00    +0.000 A 
ATOM     15  C   UNL     1       7.279   4.555  11.698  0.00  0.00    +0.000 A 
ATOM     16  C   UNL     1       7.417   4.766  13.080  0.00  0.00    +0.000 A 
ATOM     17 CL   UNL     1       8.725   5.762  13.619  0.00  0.00    +0.000 Cl
ENDBRANCH   9  11
ENDBRANCH   3   7
BRANCH   1  18
ATOM     18  P   UNL     1       3.219   5.437  18.416  0.00  0.00    +0.000 P 
ATOM     19  O   UNL     1       3.155   4.465  17.267  0.00  0.00    +0.000 OA
BRANCH  18  20
ATOM     20  O   UNL     1       1.945   5.362  19.403  0.00  0.00    +0.000 OA
BRANCH  20  22
ATOM     21  C   UNL     1       1.252   3.488  20.794  0.00  0.00    +0.000 C 
ATOM     22  C   UNL     1       1.291   4.095  19.408  0.00  0.00    +0.000 C 
ENDBRANCH  20  22
ENDBRANCH  18  20
BRANCH  18  23
ATOM     23  O   UNL     1       3.137   6.984  17.904  0.00  0.00    +0.000 OA
BRANCH  23  24
ATOM     24  C   UNL     1       2.231   7.840  18.584  0.00  0.00    +0.000 C 
ATOM     25  C   UNL     1       2.032   9.133  17.817  0.00  0.00    +0.000 C 
ENDBRANCH  23  24
ENDBRANCH  18  23
ENDBRANCH   1  18
TORSDOF 7
ENDMDL
MODEL 5
REMARK VINA RESULT:      -6.2      1.294      1.542
REMARK  Name = 
REMARK  10 active torsions:
REMARK  status: ('A' for Active; 'I' for Inactive)
REMARK    1  A    between atoms: C_1  and  C_2
REMARK    2  A    between atoms: C_2  and  O_3
REMARK    3  A    between atoms: O_3  and  P_4
REMARK    4  A    between atoms: P_4  and  O_6
REMARK    5  A    between atoms: P_4  and  C_9
REMARK    6  A    between atoms: O_6  and  C_7
REMARK    7  A    between atoms: C_7  and  C_8
REMARK    8  A    between atoms: C_11  and  C_12
REMARK    9  A    between atoms: N_14  and  C_15
REMARK   10  A    between atoms: N_23  and  C_24
REMARK                            x       y       z     vdW  Elec       q    Type
REMARK                         _______ _______ _______ _____ _____    ______ ____
ROOT
ATOM      1  C   UNL     1       5.060   5.063  17.477  0.00  0.00    +0.000 C 
ATOM      2  C   UNL     1       3.536   5.168  17.373  0.00  0.00    +0.000 C 
ATOM      3  C   UNL     1       3.114   5.918  18.626  0.00  0.00    +0.000 C 
ATOM      4  O   UNL     1       4.264   5.914  19.489  0.00  0.00    +0.000 OA
ATOM      5  N   UNL     1       5.224   4.985  18.930  0.00  0.00    +0.000 NA
ATOM      6  C   UNL     1       6.512   5.312  19.511  0.00  0.00    +0.000 C 
ENDROOT
BRANCH   3   7
ATOM      7  C   UNL     1       2.671   7.388  18.557  0.00  0.00    +0.000 C 
ATOM      8  O   UNL     1       3.276   8.165  17.815  0.00  0.00    +0.000 OA
ATOM      9  N   UNL     1       1.689   7.794  19.449  0.00  0.00    +0.000 N 
ATOM     10  H   UNL     1       1.350   7.138  20.142  0.00  0.00    +0.000 HD
BRANCH   9  11
ATOM     11  C   UNL     1       1.185   9.125  19.575  0.00  0.00    +0.000 A 
ATOM     12  C   UNL     1       0.829   9.908  18.466  0.00  0.00    +0.000 A 
ATOM     13  C   UNL     1       0.390  11.229  18.613  0.00  0.00    +0.000 A 
ATOM     14  C   UNL     1       0.277  11.789  19.879  0.00  0.00    +0.000 A 
ATOM     15  C   UNL     1       0.586  11.020  21.000  0.00  0.00    +0.000 A 
ATOM     16  C   UNL     1       1.030   9.696  20.849  0.00  0.00    +0.000 A 
ATOM     17 CL   UNL     1       1.411   8.802  22.281  0.00  0.00    +0.000 Cl
ENDBRANCH   9  11
ENDBRANCH   3   7
BRANCH   1  18
ATOM     18  P   UNL     1       5.816   6.438  16.597  0.00  0.00    +0.000 P 
ATOM     19  O   UNL     1       4.980   6.971  15.462  0.00  0.00    +0.000 OA
BRANCH  18  20
ATOM     20  O   UNL     1       6.374   7.584  17.586  0.00  0.00    +0.000 OA
BRANCH  20  22
ATOM     21  C   UNL     1       8.178   9.167  17.993  0.00  0.00    +0.000 C 
ATOM     22  C   UNL     1       7.781   7.795  17.492  0.00  0.00    +0.000 C 
ENDBRANCH  20  22
ENDBRANCH  18  20
BRANCH  18  23
ATOM     23  O   UNL     1       7.205   5.772  16.061  0.00  0.00    +0.000 OA
BRANCH  23  24
ATOM     24  C   UNL     1       7.100   4.545  15.355  0.00  0.00    +0.000 C 
ATOM     25  C   UNL     1       7.145   4.778  13.857  0.00  0.00    +0.000 C 
ENDBRANCH  23  24
ENDBRANCH  18  23
ENDBRANCH   1  18
TORSDOF 7
ENDMDL
MODEL 6
REMARK VINA RESULT:      -6.1      1.628      2.056
REMARK  Name = 
REMARK  10 active torsions:
REMARK  status: ('A' for Active; 'I' for Inactive)
REMARK    1  A    between atoms: C_1  and  C_2
REMARK    2  A    between atoms: C_2  and  O_3
REMARK    3  A    between atoms: O_3  and  P_4
REMARK    4  A    between atoms: P_4  and  O_6
REMARK    5  A    between atoms: P_4  and  C_9
REMARK    6  A    between atoms: O_6  and  C_7
REMARK    7  A    between atoms: C_7  and  C_8
REMARK    8  A    between atoms: C_11  and  C_12
REMARK    9  A    between atoms: N_14  and  C_15
REMARK   10  A    between atoms: N_23  and  C_24
REMARK                            x       y       z     vdW  Elec       q    Type
REMARK                         _______ _______ _______ _____ _____    ______ ____
ROOT
ATOM      1  C   UNL     1       4.915   3.014  18.158  0.00  0.00    +0.000 C 
ATOM      2  C   UNL     1       3.871   3.177  17.051  0.00  0.00    +0.000 C 
ATOM      3  C   UNL     1       2.556   3.381  17.785  0.00  0.00    +0.000 C 
ATOM      4  O   UNL     1       2.813   3.021  19.153  0.00  0.00    +0.000 OA
ATOM      5  N   UNL     1       4.106   2.370  19.196  0.00  0.00    +0.000 NA
ATOM      6  C   UNL     1       4.557   2.423  20.573  0.00  0.00    +0.000 C 
ENDROOT
BRANCH   3   7
ATOM      7  C   UNL     1       1.895   4.768  17.854  0.00  0.00    +0.000 C 
ATOM      8  O   UNL     1       0.843   4.964  17.243  0.00  0.00    +0.000 OA
ATOM      9  N   UNL     1       2.602   5.772  18.499  0.00  0.00    +0.000 N 
ATOM     10  H   UNL     1       3.537   5.578  18.838  0.00  0.00    +0.000 HD
BRANCH   9  11
ATOM     11  C   UNL     1       2.182   7.132  18.620  0.00  0.00    +0.000 A 
ATOM     12  C   UNL     1       2.306   8.060  17.574  0.00  0.00    +0.000 A 
ATOM     13  C   UNL     1       1.938   9.400  17.737  0.00  0.00    +0.000 A 
ATOM     14  C   UNL     1       1.416   9.837  18.947  0.00  0.00    +0.000 A 
ATOM     15  C   UNL     1       1.244   8.928  19.990  0.00  0.00    +0.000 A 
ATOM     16  C   UNL     1       1.619   7.584  19.825  0.00  0.00    +0.000 A 
ATOM     17 CL   UNL     1       1.394   6.512  21.165  0.00  0.00    +0.000 Cl
ENDBRANCH   9  11
ENDBRANCH   3   7
BRANCH   1  18
ATOM     18  P   UNL     1       5.661   4.613  18.516  0.00  0.00    +0.000 P 
ATOM     19  O   UNL     1       5.077   5.303  19.722  0.00  0.00    +0.000 OA
BRANCH  18  20
ATOM     20  O   UNL     1       7.273   4.567  18.511  0.00  0.00    +0.000 OA
BRANCH  20  22
ATOM     21  C   UNL     1       8.093   6.853  18.674  0.00  0.00    +0.000 C 
ATOM     22  C   UNL     1       7.883   5.527  19.371  0.00  0.00    +0.000 C 
ENDBRANCH  20  22
ENDBRANCH  18  20
BRANCH  18  23
ATOM     23  O   UNL     1       5.359   5.440  17.142  0.00  0.00    +0.000 OA
BRANCH  23  24
ATOM     24  C   UNL     1       6.338   5.363  16.117  0.00  0.00    +0.000 C 
ATOM     25  C   UNL     1       5.684   5.228  14.755  0.00  0.00    +0.000 C 
ENDBRANCH  23  24
ENDBRANCH  18  23
ENDBRANCH   1  18
TORSDOF 7
ENDMDL
MODEL 7
REMARK VINA RESULT:      -6.1      1.000      1.029
REMARK  Name = 
REMARK  10 active torsions:
REMARK  status: ('A' for Active; 'I' for Inactive)
REMARK    1  A    between atoms: C_1  and  C_2
REMARK    2  A    between atoms: C_2  and  O_3
REMARK    3  A    between atoms: O_3  and  P_4
REMARK    4  A    between atoms: P_4  and  O_6
REMARK    5  A    between atoms: P_4  and  C_9
REMARK    6  A    between atoms: O_6  and  C_7
REMARK    7  A    between atoms: C_7  and  C_8
REMARK    8  A    between atoms: C_11  and  C_12
REMARK    9  A    between atoms: N_14  and  C_15
REMARK   10  A    between atoms: N_23  and  C_24
REMARK                            x       y       z     vdW  Elec       q    Type
REMARK                         _______ _______ _______ _____ _____    ______ ____
ROOT
ATOM      1  C   UNL     1       6.035   4.504  17.616  0.00  0.00    +0.000 C 
ATOM      2  C   UNL     1       4.510   4.422  17.526  0.00  0.00    +0.000 C 
ATOM      3  C   UNL     1       4.007   5.314  18.649  0.00  0.00    +0.000 C 
ATOM      4  O   UNL     1       5.151   5.581  19.478  0.00  0.00    +0.000 OA
ATOM      5  N   UNL     1       6.210   4.685  19.059  0.00  0.00    +0.000 NA
ATOM      6  C   UNL     1       7.453   5.244  19.553  0.00  0.00    +0.000 C 
ENDROOT
BRANCH   3   7
ATOM      7  C   UNL     1       3.400   6.695  18.350  0.00  0.00    +0.000 C 
ATOM      8  O   UNL     1       3.883   7.382  17.447  0.00  0.00    +0.000 OA
ATOM      9  N   UNL     1       2.418   7.154  19.216  0.00  0.00    +0.000 N 
ATOM     10  H   UNL     1       2.184   6.604  20.033  0.00  0.00    +0.000 HD
BRANCH   9  11
ATOM     11  C   UNL     1       1.775   8.427  19.137  0.00  0.00    +0.000 A 
ATOM     12  C   UNL     1       1.747   9.190  17.959  0.00  0.00    +0.000 A 
ATOM     13  C   UNL     1       1.159  10.459  17.922  0.00  0.00    +0.000 A 
ATOM     14  C   UNL     1       0.565  10.985  19.062  0.00  0.00    +0.000 A 
ATOM     15  C   UNL     1       0.542  10.231  20.235  0.00  0.00    +0.000 A 
ATOM     16  C   UNL     1       1.138   8.959  20.270  0.00  0.00    +0.000 A 
ATOM     17 CL   UNL     1       1.089   8.084  21.762  0.00  0.00    +0.000 Cl
ENDBRANCH   9  11
ENDBRANCH   3   7
BRANCH   1  18
ATOM     18  P   UNL     1       6.630   5.792  16.508  0.00  0.00    +0.000 P 
ATOM     19  O   UNL     1       5.532   6.538  15.794  0.00  0.00    +0.000 OA
BRANCH  18  20
ATOM     20  O   UNL     1       7.728   6.753  17.197  0.00  0.00    +0.000 OA
BRANCH  20  22
ATOM     21  C   UNL     1       8.329   8.937  18.089  0.00  0.00    +0.000 C 
ATOM     22  C   UNL     1       7.279   8.091  17.402  0.00  0.00    +0.000 C 
ENDBRANCH  20  22
ENDBRANCH  18  20
BRANCH  18  23
ATOM     23  O   UNL     1       7.555   4.941  15.469  0.00  0.00    +0.000 OA
BRANCH  23  24
ATOM     24  C   UNL     1       7.125   4.890  14.117  0.00  0.00    +0.000 C 
ATOM     25  C   UNL     1       6.176   3.728  13.895  0.00  0.00    +0.000 C 
ENDBRANCH  23  24
ENDBRANCH  18  23
ENDBRANCH   1  18
TORSDOF 7
ENDMDL
MODEL 8
REMARK VINA RESULT:      -5.9      3.710      6.756
REMARK  Name = 
REMARK  10 active torsions:
REMARK  status: ('A' for Active; 'I' for Inactive)
REMARK    1  A    between atoms: C_1  and  C_2
REMARK    2  A    between atoms: C_2  and  O_3
REMARK    3  A    between atoms: O_3  and  P_4
REMARK    4  A    between atoms: P_4  and  O_6
REMARK    5  A    between atoms: P_4  and  C_9
REMARK    6  A    between atoms: O_6  and  C_7
REMARK    7  A    between atoms: C_7  and  C_8
REMARK    8  A    between atoms: C_11  and  C_12
REMARK    9  A    between atoms: N_14  and  C_15
REMARK   10  A    between atoms: N_23  and  C_24
REMARK                            x       y       z     vdW  Elec       q    Type
REMARK                         _______ _______ _______ _____ _____    ______ ____
ROOT
ATOM      1  C   UNL     1       5.792   5.880  19.042  0.00  0.00    +0.000 C 
ATOM      2  C   UNL     1       5.292   6.982  18.105  0.00  0.00    +0.000 C 
ATOM      3  C   UNL     1       6.314   7.029  16.982  0.00  0.00    +0.000 C 
ATOM      4  O   UNL     1       7.439   6.262  17.445  0.00  0.00    +0.000 OA
ATOM      5  N   UNL     1       7.240   6.007  18.857  0.00  0.00    +0.000 NA
ATOM      6  C   UNL     1       8.095   4.890  19.207  0.00  0.00    +0.000 C 
ENDROOT
BRANCH   3   7
ATOM      7  C   UNL     1       5.989   6.460  15.591  0.00  0.00    +0.000 C 
ATOM      8  O   UNL     1       5.008   6.890  14.979  0.00  0.00    +0.000 OA
ATOM      9  N   UNL     1       6.748   5.384  15.156  0.00  0.00    +0.000 N 
ATOM     10  H   UNL     1       7.434   4.978  15.781  0.00  0.00    +0.000 HD
BRANCH   9  11
ATOM     11  C   UNL     1       6.564   4.687  13.923  0.00  0.00    +0.000 A 
ATOM     12  C   UNL     1       5.491   3.810  13.701  0.00  0.00    +0.000 A 
ATOM     13  C   UNL     1       5.364   3.096  12.504  0.00  0.00    +0.000 A 
ATOM     14  C   UNL     1       6.299   3.263  11.491  0.00  0.00    +0.000 A 
ATOM     15  C   UNL     1       7.353   4.158  11.669  0.00  0.00    +0.000 A 
ATOM     16  C   UNL     1       7.481   4.869  12.873  0.00  0.00    +0.000 A 
ATOM     17 CL   UNL     1       8.821   5.953  13.035  0.00  0.00    +0.000 Cl
ENDBRANCH   9  11
ENDBRANCH   3   7
BRANCH   1  18
ATOM     18  P   UNL     1       5.002   4.322  18.607  0.00  0.00    +0.000 P 
ATOM     19  O   UNL     1       5.238   3.895  17.181  0.00  0.00    +0.000 OA
BRANCH  18  20
ATOM     20  O   UNL     1       5.278   3.156  19.688  0.00  0.00    +0.000 OA
BRANCH  20  22
ATOM     21  C   UNL     1       3.895   1.314  18.900  0.00  0.00    +0.000 C 
ATOM     22  C   UNL     1       4.138   2.351  19.975  0.00  0.00    +0.000 C 
ENDBRANCH  20  22
ENDBRANCH  18  20
BRANCH  18  23
ATOM     23  O   UNL     1       3.430   4.653  18.886  0.00  0.00    +0.000 OA
BRANCH  23  24
ATOM     24  C   UNL     1       2.583   4.758  17.751  0.00  0.00    +0.000 C 
ATOM     25  C   UNL     1       1.370   3.860  17.898  0.00  0.00    +0.000 C 
ENDBRANCH  23  24
ENDBRANCH  18  23
ENDBRANCH   1  18
TORSDOF 7
ENDMDL
MODEL 9
REMARK VINA RESULT:      -5.7      5.541      9.175
REMARK  Name = 
REMARK  10 active torsions:
REMARK  status: ('A' for Active; 'I' for Inactive)
REMARK    1  A    between atoms: C_1  and  C_2
REMARK    2  A    between atoms: C_2  and  O_3
REMARK    3  A    between atoms: O_3  and  P_4
REMARK    4  A    between atoms: P_4  and  O_6
REMARK    5  A    between atoms: P_4  and  C_9
REMARK    6  A    between atoms: O_6  and  C_7
REMARK    7  A    between atoms: C_7  and  C_8
REMARK    8  A    between atoms: C_11  and  C_12
REMARK    9  A    between atoms: N_14  and  C_15
REMARK   10  A    between atoms: N_23  and  C_24
REMARK                            x       y       z     vdW  Elec       q    Type
REMARK                         _______ _______ _______ _____ _____    ______ ____
ROOT
ATOM      1  C   UNL     1      -1.022  13.878  20.170  0.00  0.00    +0.000 C 
ATOM      2  C   UNL     1      -2.021  12.870  19.597  0.00  0.00    +0.000 C 
ATOM      3  C   UNL     1      -1.322  12.279  18.383  0.00  0.00    +0.000 C 
ATOM      4  O   UNL     1      -0.194  13.134  18.128  0.00  0.00    +0.000 OA
ATOM      5  N   UNL     1      -0.354  14.320  18.944  0.00  0.00    +0.000 NA
ATOM      6  C   UNL     1       0.951  14.944  19.039  0.00  0.00    +0.000 C 
ENDROOT
BRANCH   3   7
ATOM      7  C   UNL     1      -0.744  10.855  18.418  0.00  0.00    +0.000 C 
ATOM      8  O   UNL     1      -1.512   9.892  18.362  0.00  0.00    +0.000 OA
ATOM      9  N   UNL     1       0.618  10.732  18.652  0.00  0.00    +0.000 N 
ATOM     10  H   UNL     1       1.161  11.563  18.851  0.00  0.00    +0.000 HD
BRANCH   9  11
ATOM     11  C   UNL     1       1.328   9.499  18.773  0.00  0.00    +0.000 A 
ATOM     12  C   UNL     1       2.134   8.985  17.745  0.00  0.00    +0.000 A 
ATOM     13  C   UNL     1       2.774   7.747  17.866  0.00  0.00    +0.000 A 
ATOM     14  C   UNL     1       2.641   7.004  19.032  0.00  0.00    +0.000 A 
ATOM     15  C   UNL     1       1.879   7.510  20.085  0.00  0.00    +0.000 A 
ATOM     16  C   UNL     1       1.233   8.751  19.958  0.00  0.00    +0.000 A 
ATOM     17 CL   UNL     1       0.291   9.313  21.297  0.00  0.00    +0.000 Cl
ENDBRANCH   9  11
ENDBRANCH   3   7
BRANCH   1  18
ATOM     18  P   UNL     1      -0.036  13.081  21.448  0.00  0.00    +0.000 P 
ATOM     19  O   UNL     1       1.258  12.494  20.945  0.00  0.00    +0.000 OA
BRANCH  18  20
ATOM     20  O   UNL     1       0.135  13.994  22.767  0.00  0.00    +0.000 OA
BRANCH  20  22
ATOM     21  C   UNL     1       0.928  16.296  22.766  0.00  0.00    +0.000 C 
ATOM     22  C   UNL     1      -0.244  15.356  22.582  0.00  0.00    +0.000 C 
ENDBRANCH  20  22
ENDBRANCH  18  20
BRANCH  18  23
ATOM     23  O   UNL     1      -1.053  11.926  21.987  0.00  0.00    +0.000 OA
BRANCH  23  24
ATOM     24  C   UNL     1      -1.594  12.099  23.288  0.00  0.00    +0.000 C 
ATOM     25  C   UNL     1      -3.094  12.311  23.226  0.00  0.00    +0.000 C 
ENDBRANCH  23  24
ENDBRANCH  18  23
ENDBRANCH   1  18
TORSDOF 7
ENDMDL
