MODEL 1
REMARK VINA RESULT:      -7.5      0.000      0.000
REMARK  Name = 
REMARK  5 active torsions:
REMARK  status: ('A' for Active; 'I' for Inactive)
REMARK    1  A    between atoms: C_1  and  C_2
REMARK    2  A    between atoms: C_2  and  C_3
REMARK    3  A    between atoms: C_3  and  C_4
REMARK    4  A    between atoms: C_4  and  C_5
REMARK    5  A    between atoms: C_15  and  C_16
REMARK                            x       y       z     vdW  Elec       q    Type
REMARK                         _______ _______ _______ _____ _____    ______ ____
ROOT
ATOM      1  C   UNL     1       4.852   3.960  17.433  0.00  0.00    +0.000 A 
ATOM      2  C   UNL     1       3.719   3.187  17.683  0.00  0.00    +0.000 A 
ATOM      3  C   UNL     1       2.941   3.404  18.826  0.00  0.00    +0.000 A 
ATOM      4  C   UNL     1       1.801   2.662  19.160  0.00  0.00    +0.000 A 
ATOM      5  N   UNL     1       1.262   1.711  18.291  0.00  0.00    +0.000 N 
ATOM      6  N   UNL     1       1.117   2.860  20.287  0.00  0.00    +0.000 NA
ATOM      7  C   UNL     1       1.589   3.817  21.089  0.00  0.00    +0.000 A 
ATOM      8  N   UNL     1       2.651   4.600  20.852  0.00  0.00    +0.000 NA
ATOM      9  C   UNL     1       3.321   4.402  19.724  0.00  0.00    +0.000 A 
ATOM     10  N   UNL     1       4.374   5.187  19.463  0.00  0.00    +0.000 NA
ATOM     11  C   UNL     1       5.123   4.988  18.341  0.00  0.00    +0.000 A 
ATOM     12  H   UNL     1       1.940   1.027  17.979  0.00  0.00    +0.000 HD
ATOM     13  H   UNL     1       0.471   1.276  18.760  0.00  0.00    +0.000 HD
ENDROOT
BRANCH  11  14
ATOM     14  C   UNL     1       6.246   5.929  18.162  0.00  0.00    +0.000 A 
ATOM     15  C   UNL     1       7.481   5.952  18.796  0.00  0.00    +0.000 A 
ATOM     16  C   UNL     1       8.218   7.143  18.547  0.00  0.00    +0.000 A 
ATOM     17  C   UNL     1       7.613   7.919  17.587  0.00  0.00    +0.000 A 
ATOM     18  S   UNL     1       6.135   7.239  17.053  0.00  0.00    +0.000 S 
ENDBRANCH  11  14
BRANCH   1  19
ATOM     19  C   UNL     1       5.739   3.547  16.285  0.00  0.00    +0.000 C 
BRANCH  19  20
ATOM     20  C   UNL     1       5.329   4.246  14.988  0.00  0.00    +0.000 C 
BRANCH  20  22
ATOM     21  C   UNL     1       5.680   3.478  12.621  0.00  0.00    +0.000 C 
ATOM     22  C   UNL     1       6.352   3.995  13.881  0.00  0.00    +0.000 C 
ENDBRANCH  20  22
ENDBRANCH  19  20
ENDBRANCH   1  19
TORSDOF 4
ENDMDL
MODEL 2
REMARK VINA RESULT:      -7.2      3.083      5.755
REMARK  Name = 
REMARK  5 active torsions:
REMARK  status: ('A' for Active; 'I' for Inactive)
REMARK    1  A    between atoms: C_1  and  C_2
REMARK    2  A    between atoms: C_2  and  C_3
REMARK    3  A    between atoms: C_3  and  C_4
REMARK    4  A    between atoms: C_4  and  C_5
REMARK    5  A    between atoms: C_15  and  C_16
REMARK                            x       y       z     vdW  Elec       q    Type
REMARK                         _______ _______ _______ _____ _____    ______ ____
ROOT
ATOM      1  C   UNL     1       2.864   5.272  17.784  0.00  0.00    +0.000 A 
ATOM      2  C   UNL     1       3.775   4.452  17.120  0.00  0.00    +0.000 A 
ATOM      3  C   UNL     1       5.038   4.933  16.754  0.00  0.00    +0.000 A 
ATOM      4  C   UNL     1       6.003   4.184  16.070  0.00  0.00    +0.000 A 
ATOM      5  N   UNL     1       5.828   2.823  15.809  0.00  0.00    +0.000 N 
ATOM      6  N   UNL     1       7.174   4.694  15.687  0.00  0.00    +0.000 NA
ATOM      7  C   UNL     1       7.374   5.977  15.996  0.00  0.00    +0.000 A 
ATOM      8  N   UNL     1       6.531   6.773  16.669  0.00  0.00    +0.000 NA
ATOM      9  C   UNL     1       5.372   6.255  17.053  0.00  0.00    +0.000 A 
ATOM     10  N   UNL     1       4.525   7.030  17.742  0.00  0.00    +0.000 NA
ATOM     11  C   UNL     1       3.301   6.558  18.114  0.00  0.00    +0.000 A 
ATOM     12  H   UNL     1       4.954   2.615  15.344  0.00  0.00    +0.000 HD
ATOM     13  H   UNL     1       6.631   2.505  15.272  0.00  0.00    +0.000 HD
ENDROOT
BRANCH  11  14
ATOM     14  C   UNL     1       2.469   7.506  18.880  0.00  0.00    +0.000 A 
ATOM     15  C   UNL     1       2.062   7.444  20.206  0.00  0.00    +0.000 A 
ATOM     16  C   UNL     1       1.071   8.411  20.535  0.00  0.00    +0.000 A 
ATOM     17  C   UNL     1       0.877   9.303  19.508  0.00  0.00    +0.000 A 
ATOM     18  S   UNL     1       1.835   8.925  18.141  0.00  0.00    +0.000 S 
ENDBRANCH  11  14
BRANCH   1  19
ATOM     19  C   UNL     1       1.464   4.744  17.979  0.00  0.00    +0.000 C 
BRANCH  19  20
ATOM     20  C   UNL     1       1.450   3.547  18.932  0.00  0.00    +0.000 C 
BRANCH  20  22
ATOM     21  C   UNL     1       1.901   3.428  21.401  0.00  0.00    +0.000 C 
ATOM     22  C   UNL     1       0.971   3.957  20.322  0.00  0.00    +0.000 C 
ENDBRANCH  20  22
ENDBRANCH  19  20
ENDBRANCH   1  19
TORSDOF 4
ENDMDL
MODEL 3
REMARK VINA RESULT:      -7.0      3.278      5.927
REMARK  Name = 
REMARK  5 active torsions:
REMARK  status: ('A' for Active; 'I' for Inactive)
REMARK    1  A    between atoms: C_1  and  C_2
REMARK    2  A    between atoms: C_2  and  C_3
REMARK    3  A    between atoms: C_3  and  C_4
REMARK    4  A    between atoms: C_4  and  C_5
REMARK    5  A    between atoms: C_15  and  C_16
REMARK                            x       y       z     vdW  Elec       q    Type
REMARK                         _______ _______ _______ _____ _____    ______ ____
ROOT
ATOM      1  C   UNL     1       2.286   5.648  19.447  0.00  0.00    +0.000 A 
ATOM      2  C   UNL     1       3.046   4.710  18.750  0.00  0.00    +0.000 A 
ATOM      3  C   UNL     1       3.902   5.107  17.715  0.00  0.00    +0.000 A 
ATOM      4  C   UNL     1       4.684   4.230  16.954  0.00  0.00    +0.000 A 
ATOM      5  N   UNL     1       4.774   2.870  17.261  0.00  0.00    +0.000 N 
ATOM      6  N   UNL     1       5.444   4.638  15.938  0.00  0.00    +0.000 NA
ATOM      7  C   UNL     1       5.414   5.948  15.685  0.00  0.00    +0.000 A 
ATOM      8  N   UNL     1       4.725   6.874  16.366  0.00  0.00    +0.000 NA
ATOM      9  C   UNL     1       3.978   6.461  17.380  0.00  0.00    +0.000 A 
ATOM     10  N   UNL     1       3.295   7.373  18.083  0.00  0.00    +0.000 NA
ATOM     11  C   UNL     1       2.475   6.990  19.103  0.00  0.00    +0.000 A 
ATOM     12  H   UNL     1       3.872   2.419  17.341  0.00  0.00    +0.000 HD
ATOM     13  H   UNL     1       5.359   2.432  16.554  0.00  0.00    +0.000 HD
ENDROOT
BRANCH  11  14
ATOM     14  C   UNL     1       1.792   8.093  19.806  0.00  0.00    +0.000 A 
ATOM     15  C   UNL     1       1.503   8.227  21.158  0.00  0.00    +0.000 A 
ATOM     16  C   UNL     1       0.624   9.309  21.440  0.00  0.00    +0.000 A 
ATOM     17  C   UNL     1       0.407  10.085  20.327  0.00  0.00    +0.000 A 
ATOM     18  S   UNL     1       1.205   9.463  18.946  0.00  0.00    +0.000 S 
ENDBRANCH  11  14
BRANCH   1  19
ATOM     19  C   UNL     1       1.255   5.128  20.417  0.00  0.00    +0.000 C 
BRANCH  19  20
ATOM     20  C   UNL     1       0.971   3.643  20.181  0.00  0.00    +0.000 C 
BRANCH  20  22
ATOM     21  C   UNL     1       2.738   2.507  21.559  0.00  0.00    +0.000 C 
ATOM     22  C   UNL     1       1.257   2.822  21.437  0.00  0.00    +0.000 C 
ENDBRANCH  20  22
ENDBRANCH  19  20
ENDBRANCH   1  19
TORSDOF 4
ENDMDL
MODEL 4
REMARK VINA RESULT:      -7.0      3.171      4.221
REMARK  Name = 
REMARK  5 active torsions:
REMARK  status: ('A' for Active; 'I' for Inactive)
REMARK    1  A    between atoms: C_1  and  C_2
REMARK    2  A    between atoms: C_2  and  C_3
REMARK    3  A    between atoms: C_3  and  C_4
REMARK    4  A    between atoms: C_4  and  C_5
REMARK    5  A    between atoms: C_15  and  C_16
REMARK                            x       y       z     vdW  Elec       q    Type
REMARK                         _______ _______ _______ _____ _____    ______ ____
ROOT
ATOM      1  C   UNL     1       3.676   6.232  18.405  0.00  0.00    +0.000 A 
ATOM      2  C   UNL     1       4.102   4.933  18.677  0.00  0.00    +0.000 A 
ATOM      3  C   UNL     1       3.504   4.181  19.695  0.00  0.00    +0.000 A 
ATOM      4  C   UNL     1       3.882   2.879  20.046  0.00  0.00    +0.000 A 
ATOM      5  N   UNL     1       4.822   2.162  19.301  0.00  0.00    +0.000 N 
ATOM      6  N   UNL     1       3.328   2.214  21.059  0.00  0.00    +0.000 NA
ATOM      7  C   UNL     1       2.379   2.872  21.730  0.00  0.00    +0.000 A 
ATOM      8  N   UNL     1       1.925   4.103  21.462  0.00  0.00    +0.000 NA
ATOM      9  C   UNL     1       2.476   4.754  20.447  0.00  0.00    +0.000 A 
ATOM     10  N   UNL     1       2.023   5.980  20.153  0.00  0.00    +0.000 NA
ATOM     11  C   UNL     1       2.593   6.707  19.151  0.00  0.00    +0.000 A 
ATOM     12  H   UNL     1       5.691   2.662  19.167  0.00  0.00    +0.000 HD
ATOM     13  H   UNL     1       4.965   1.267  19.764  0.00  0.00    +0.000 HD
ENDROOT
BRANCH  11  14
ATOM     14  C   UNL     1       1.992   8.035  18.919  0.00  0.00    +0.000 A 
ATOM     15  C   UNL     1       1.961   8.794  17.757  0.00  0.00    +0.000 A 
ATOM     16  C   UNL     1       1.505  10.125  17.967  0.00  0.00    +0.000 A 
ATOM     17  C   UNL     1       1.028  10.298  19.244  0.00  0.00    +0.000 A 
ATOM     18  S   UNL     1       1.199   8.881  20.190  0.00  0.00    +0.000 S 
ENDBRANCH  11  14
BRANCH   1  19
ATOM     19  C   UNL     1       4.488   7.041  17.424  0.00  0.00    +0.000 C 
BRANCH  19  20
ATOM     20  C   UNL     1       5.716   6.263  16.946  0.00  0.00    +0.000 C 
BRANCH  20  22
ATOM     21  C   UNL     1       7.641   6.223  18.560  0.00  0.00    +0.000 C 
ATOM     22  C   UNL     1       7.007   6.949  17.386  0.00  0.00    +0.000 C 
ENDBRANCH  20  22
ENDBRANCH  19  20
ENDBRANCH   1  19
TORSDOF 4
ENDMDL
MODEL 5
REMARK VINA RESULT:      -7.0      3.408      6.514
REMARK  Name = 
REMARK  5 active torsions:
REMARK  status: ('A' for Active; 'I' for Inactive)
REMARK    1  A    between atoms: C_1  and  C_2
REMARK    2  A    between atoms: C_2  and  C_3
REMARK    3  A    between atoms: C_3  and  C_4
REMARK    4  A    between atoms: C_4  and  C_5
REMARK    5  A    between atoms: C_15  and  C_16
REMARK                            x       y       z     vdW  Elec       q    Type
REMARK                         _______ _______ _______ _____ _____    ______ ____
ROOT
ATOM      1  C   UNL     1       6.230   5.607  16.722  0.00  0.00    +0.000 A 
ATOM      2  C   UNL     1       7.090   5.728  15.632  0.00  0.00    +0.000 A 
ATOM      3  C   UNL     1       6.848   5.024  14.446  0.00  0.00    +0.000 A 
ATOM      4  C   UNL     1       7.669   5.074  13.314  0.00  0.00    +0.000 A 
ATOM      5  N   UNL     1       8.752   5.954  13.229  0.00  0.00    +0.000 N 
ATOM      6  N   UNL     1       7.438   4.346  12.222  0.00  0.00    +0.000 NA
ATOM      7  C   UNL     1       6.364   3.555  12.272  0.00  0.00    +0.000 A 
ATOM      8  N   UNL     1       5.500   3.453  13.291  0.00  0.00    +0.000 NA
ATOM      9  C   UNL     1       5.733   4.187  14.371  0.00  0.00    +0.000 A 
ATOM     10  N   UNL     1       4.871   4.111  15.392  0.00  0.00    +0.000 NA
ATOM     11  C   UNL     1       5.096   4.809  16.542  0.00  0.00    +0.000 A 
ATOM     12  H   UNL     1       9.386   5.881  14.013  0.00  0.00    +0.000 HD
ATOM     13  H   UNL     1       9.220   5.783  12.342  0.00  0.00    +0.000 HD
ENDROOT
BRANCH  11  14
ATOM     14  C   UNL     1       4.064   4.650  17.585  0.00  0.00    +0.000 A 
ATOM     15  C   UNL     1       2.955   5.442  17.850  0.00  0.00    +0.000 A 
ATOM     16  C   UNL     1       2.316   5.121  19.080  0.00  0.00    +0.000 A 
ATOM     17  C   UNL     1       2.839   3.977  19.635  0.00  0.00    +0.000 A 
ATOM     18  S   UNL     1       4.133   3.348  18.708  0.00  0.00    +0.000 S 
ENDBRANCH  11  14
BRANCH   1  19
ATOM     19  C   UNL     1       6.655   6.246  18.021  0.00  0.00    +0.000 C 
BRANCH  19  20
ATOM     20  C   UNL     1       7.908   7.103  17.833  0.00  0.00    +0.000 C 
BRANCH  20  22
ATOM     21  C   UNL     1       8.617   9.461  18.335  0.00  0.00    +0.000 C 
ATOM     22  C   UNL     1       7.550   8.582  17.705  0.00  0.00    +0.000 C 
ENDBRANCH  20  22
ENDBRANCH  19  20
ENDBRANCH   1  19
TORSDOF 4
ENDMDL
MODEL 6
REMARK VINA RESULT:      -7.0      2.799      4.560
REMARK  Name = 
REMARK  5 active torsions:
REMARK  status: ('A' for Active; 'I' for Inactive)
REMARK    1  A    between atoms: C_1  and  C_2
REMARK    2  A    between atoms: C_2  and  C_3
REMARK    3  A    between atoms: C_3  and  C_4
REMARK    4  A    between atoms: C_4  and  C_5
REMARK    5  A    between atoms: C_15  and  C_16
REMARK                            x       y       z     vdW  Elec       q    Type
REMARK                         _______ _______ _______ _____ _____    ______ ____
ROOT
ATOM      1  C   UNL     1       4.146   5.417  18.741  0.00  0.00    +0.000 A 
ATOM      2  C   UNL     1       3.243   6.052  19.591  0.00  0.00    +0.000 A 
ATOM      3  C   UNL     1       2.609   7.239  19.207  0.00  0.00    +0.000 A 
ATOM      4  C   UNL     1       1.705   7.950  20.006  0.00  0.00    +0.000 A 
ATOM      5  N   UNL     1       1.253   7.447  21.229  0.00  0.00    +0.000 N 
ATOM      6  N   UNL     1       1.164   9.108  19.628  0.00  0.00    +0.000 NA
ATOM      7  C   UNL     1       1.540   9.557  18.429  0.00  0.00    +0.000 A 
ATOM      8  N   UNL     1       2.374   8.945  17.577  0.00  0.00    +0.000 NA
ATOM      9  C   UNL     1       2.901   7.789  17.957  0.00  0.00    +0.000 A 
ATOM     10  N   UNL     1       3.723   7.155  17.111  0.00  0.00    +0.000 NA
ATOM     11  C   UNL     1       4.328   5.989  17.478  0.00  0.00    +0.000 A 
ATOM     12  H   UNL     1       2.004   7.180  21.852  0.00  0.00    +0.000 HD
ATOM     13  H   UNL     1       0.643   8.147  21.644  0.00  0.00    +0.000 HD
ENDROOT
BRANCH  11  14
ATOM     14  C   UNL     1       5.198   5.384  16.451  0.00  0.00    +0.000 A 
ATOM     15  C   UNL     1       4.873   4.481  15.447  0.00  0.00    +0.000 A 
ATOM     16  C   UNL     1       6.012   3.933  14.794  0.00  0.00    +0.000 A 
ATOM     17  C   UNL     1       7.169   4.562  15.187  0.00  0.00    +0.000 A 
ATOM     18  S   UNL     1       6.877   5.751  16.384  0.00  0.00    +0.000 S 
ENDBRANCH  11  14
BRANCH   1  19
ATOM     19  C   UNL     1       4.925   4.251  19.296  0.00  0.00    +0.000 C 
BRANCH  19  20
ATOM     20  C   UNL     1       4.022   3.037  19.521  0.00  0.00    +0.000 C 
BRANCH  20  22
ATOM     21  C   UNL     1       2.187   2.387  17.932  0.00  0.00    +0.000 C 
ATOM     22  C   UNL     1       3.682   2.351  18.200  0.00  0.00    +0.000 C 
ENDBRANCH  20  22
ENDBRANCH  19  20
ENDBRANCH   1  19
TORSDOF 4
ENDMDL
MODEL 7
REMARK VINA RESULT:      -7.0      3.066      5.184
REMARK  Name = 
REMARK  5 active torsions:
REMARK  status: ('A' for Active; 'I' for Inactive)
REMARK    1  A    between atoms: C_1  and  C_2
REMARK    2  A    between atoms: C_2  and  C_3
REMARK    3  A    between atoms: C_3  and  C_4
REMARK    4  A    between atoms: C_4  and  C_5
REMARK    5  A    between atoms: C_15  and  C_16
REMARK                            x       y       z     vdW  Elec       q    Type
REMARK                         _______ _______ _______ _____ _____    ______ ____
ROOT
ATOM      1  C   UNL     1       3.648   5.677  19.104  0.00  0.00    +0.000 A 
ATOM      2  C   UNL     1       2.714   6.421  19.824  0.00  0.00    +0.000 A 
ATOM      3  C   UNL     1       2.224   7.633  19.324  0.00  0.00    +0.000 A 
ATOM      4  C   UNL     1       1.302   8.449  19.989  0.00  0.00    +0.000 A 
ATOM      5  N   UNL     1       0.683   8.044  21.175  0.00  0.00    +0.000 N 
ATOM      6  N   UNL     1       0.900   9.626  19.508  0.00  0.00    +0.000 NA
ATOM      7  C   UNL     1       1.437   9.985  18.340  0.00  0.00    +0.000 A 
ATOM      8  N   UNL     1       2.304   9.270  17.610  0.00  0.00    +0.000 NA
ATOM      9  C   UNL     1       2.692   8.096  18.092  0.00  0.00    +0.000 A 
ATOM     10  N   UNL     1       3.544   7.360  17.369  0.00  0.00    +0.000 NA
ATOM     11  C   UNL     1       4.009   6.171  17.847  0.00  0.00    +0.000 A 
ATOM     12  H   UNL     1       1.339   7.751  21.887  0.00  0.00    +0.000 HD
ATOM     13  H   UNL     1       0.091   8.808  21.492  0.00  0.00    +0.000 HD
ENDROOT
BRANCH  11  14
ATOM     14  C   UNL     1       4.930   5.450  16.946  0.00  0.00    +0.000 A 
ATOM     15  C   UNL     1       4.690   4.336  16.153  0.00  0.00    +0.000 A 
ATOM     16  C   UNL     1       5.875   3.773  15.602  0.00  0.00    +0.000 A 
ATOM     17  C   UNL     1       6.969   4.571  15.837  0.00  0.00    +0.000 A 
ATOM     18  S   UNL     1       6.568   5.947  16.773  0.00  0.00    +0.000 S 
ENDBRANCH  11  14
BRANCH   1  19
ATOM     19  C   UNL     1       4.265   4.483  19.788  0.00  0.00    +0.000 C 
BRANCH  19  20
ATOM     20  C   UNL     1       3.381   3.243  19.644  0.00  0.00    +0.000 C 
BRANCH  20  22
ATOM     21  C   UNL     1       1.235   3.115  20.945  0.00  0.00    +0.000 C 
ATOM     22  C   UNL     1       2.734   2.871  20.977  0.00  0.00    +0.000 C 
ENDBRANCH  20  22
ENDBRANCH  19  20
ENDBRANCH   1  19
TORSDOF 4
ENDMDL
MODEL 8
REMARK VINA RESULT:      -6.9      3.169      3.883
REMARK  Name = 
REMARK  5 active torsions:
REMARK  status: ('A' for Active; 'I' for Inactive)
REMARK    1  A    between atoms: C_1  and  C_2
REMARK    2  A    between atoms: C_2  and  C_3
REMARK    3  A    between atoms: C_3  and  C_4
REMARK    4  A    between atoms: C_4  and  C_5
REMARK    5  A    between atoms: C_15  and  C_16
REMARK                            x       y       z     vdW  Elec       q    Type
REMARK                         _______ _______ _______ _____ _____    ______ ____
ROOT
ATOM      1  C   UNL     1       3.680   6.200  18.455  0.00  0.00    +0.000 A 
ATOM      2  C   UNL     1       4.104   4.901  18.727  0.00  0.00    +0.000 A 
ATOM      3  C   UNL     1       3.495   4.143  19.735  0.00  0.00    +0.000 A 
ATOM      4  C   UNL     1       3.872   2.841  20.084  0.00  0.00    +0.000 A 
ATOM      5  N   UNL     1       4.822   2.128  19.348  0.00  0.00    +0.000 N 
ATOM      6  N   UNL     1       3.306   2.171  21.088  0.00  0.00    +0.000 NA
ATOM      7  C   UNL     1       2.348   2.824  21.750  0.00  0.00    +0.000 A 
ATOM      8  N   UNL     1       1.894   4.056  21.481  0.00  0.00    +0.000 NA
ATOM      9  C   UNL     1       2.457   4.712  20.476  0.00  0.00    +0.000 A 
ATOM     10  N   UNL     1       2.005   5.938  20.182  0.00  0.00    +0.000 NA
ATOM     11  C   UNL     1       2.586   6.670  19.189  0.00  0.00    +0.000 A 
ATOM     12  H   UNL     1       5.691   2.631  19.227  0.00  0.00    +0.000 HD
ATOM     13  H   UNL     1       4.961   1.232  19.809  0.00  0.00    +0.000 HD
ENDROOT
BRANCH  11  14
ATOM     14  C   UNL     1       1.986   7.998  18.956  0.00  0.00    +0.000 A 
ATOM     15  C   UNL     1       1.909   8.732  17.780  0.00  0.00    +0.000 A 
ATOM     16  C   UNL     1       1.473  10.071  17.981  0.00  0.00    +0.000 A 
ATOM     17  C   UNL     1       1.055  10.276  19.274  0.00  0.00    +0.000 A 
ATOM     18  S   UNL     1       1.257   8.878  20.242  0.00  0.00    +0.000 S 
ENDBRANCH  11  14
BRANCH   1  19
ATOM     19  C   UNL     1       4.502   7.015  17.488  0.00  0.00    +0.000 C 
BRANCH  19  20
ATOM     20  C   UNL     1       5.637   6.183  16.887  0.00  0.00    +0.000 C 
BRANCH  20  22
ATOM     21  C   UNL     1       5.500   4.347  15.178  0.00  0.00    +0.000 C 
ATOM     22  C   UNL     1       5.353   5.838  15.427  0.00  0.00    +0.000 C 
ENDBRANCH  20  22
ENDBRANCH  19  20
ENDBRANCH   1  19
TORSDOF 4
ENDMDL
MODEL 9
REMARK VINA RESULT:      -6.9      2.871      6.630
REMARK  Name = 
REMARK  5 active torsions:
REMARK  status: ('A' for Active; 'I' for Inactive)
REMARK    1  A    between atoms: C_1  and  C_2
REMARK    2  A    between atoms: C_2  and  C_3
REMARK    3  A    between atoms: C_3  and  C_4
REMARK    4  A    between atoms: C_4  and  C_5
REMARK    5  A    between atoms: C_15  and  C_16
REMARK                            x       y       z     vdW  Elec       q    Type
REMARK                         _______ _______ _______ _____ _____    ______ ____
ROOT
ATOM      1  C   UNL     1       4.416   5.046  18.430  0.00  0.00    +0.000 A 
ATOM      2  C   UNL     1       5.510   5.735  17.908  0.00  0.00    +0.000 A 
ATOM      3  C   UNL     1       6.055   5.381  16.668  0.00  0.00    +0.000 A 
ATOM      4  C   UNL     1       7.161   6.006  16.082  0.00  0.00    +0.000 A 
ATOM      5  N   UNL     1       7.742   7.148  16.640  0.00  0.00    +0.000 N 
ATOM      6  N   UNL     1       7.688   5.605  14.925  0.00  0.00    +0.000 NA
ATOM      7  C   UNL     1       7.092   4.557  14.352  0.00  0.00    +0.000 A 
ATOM      8  N   UNL     1       6.016   3.905  14.813  0.00  0.00    +0.000 NA
ATOM      9  C   UNL     1       5.493   4.316  15.961  0.00  0.00    +0.000 A 
ATOM     10  N   UNL     1       4.407   3.688  16.428  0.00  0.00    +0.000 NA
ATOM     11  C   UNL     1       3.865   4.043  17.628  0.00  0.00    +0.000 A 
ATOM     12  H   UNL     1       7.989   7.033  17.614  0.00  0.00    +0.000 HD
ATOM     13  H   UNL     1       8.546   7.397  16.069  0.00  0.00    +0.000 HD
ENDROOT
BRANCH  11  14
ATOM     14  C   UNL     1       2.662   3.283  18.022  0.00  0.00    +0.000 A 
ATOM     15  C   UNL     1       1.323   3.616  17.866  0.00  0.00    +0.000 A 
ATOM     16  C   UNL     1       0.444   2.755  18.579  0.00  0.00    +0.000 A 
ATOM     17  C   UNL     1       1.114   1.680  19.114  0.00  0.00    +0.000 A 
ATOM     18  S   UNL     1       2.797   1.759  18.810  0.00  0.00    +0.000 S 
ENDBRANCH  11  14
BRANCH   1  19
ATOM     19  C   UNL     1       4.005   5.362  19.847  0.00  0.00    +0.000 C 
BRANCH  19  20
ATOM     20  C   UNL     1       2.784   6.284  19.878  0.00  0.00    +0.000 C 
BRANCH  20  22
ATOM     21  C   UNL     1       2.125   4.429  21.439  0.00  0.00    +0.000 C 
ATOM     22  C   UNL     1       1.657   5.676  20.709  0.00  0.00    +0.000 C 
ENDBRANCH  20  22
ENDBRANCH  19  20
ENDBRANCH   1  19
TORSDOF 4
ENDMDL
