MODEL 1
REMARK VINA RESULT:      -7.5      0.000      0.000
REMARK  Name = 
REMARK  1 active torsions:
REMARK  status: ('A' for Active; 'I' for Inactive)
REMARK    1  A    between atoms: C_1  and  N_2
REMARK                            x       y       z     vdW  Elec       q    Type
REMARK                         _______ _______ _______ _____ _____    ______ ____
ROOT
ATOM      1  C   UNL     1       1.951   1.759  18.642  0.00  0.00    +0.000 C 
ATOM      2  N   UNL     1       2.780   2.815  19.215  0.00  0.00    +0.000 NA
ATOM      3  C   UNL     1       2.526   2.933  20.652  0.00  0.00    +0.000 C 
ATOM      4  C   UNL     1       1.811   4.154  21.219  0.00  0.00    +0.000 C 
ATOM      5  C   UNL     1       1.977   5.462  20.481  0.00  0.00    +0.000 C 
ATOM      6  C   UNL     1       2.742   5.389  19.178  0.00  0.00    +0.000 C 
ATOM      7  C   UNL     1       4.195   5.832  19.396  0.00  0.00    +0.000 C 
ATOM      8  C   UNL     1       4.846   5.273  18.186  0.00  0.00    +0.000 A 
ATOM      9  C   UNL     1       6.028   5.746  17.626  0.00  0.00    +0.000 A 
ATOM     10  C   UNL     1       6.358   5.232  16.406  0.00  0.00    +0.000 A 
ATOM     11  C   UNL     1       5.587   4.272  15.779  0.00  0.00    +0.000 A 
ATOM     12  C   UNL     1       4.434   3.738  16.359  0.00  0.00    +0.000 A 
ATOM     13  C   UNL     1       4.052   4.261  17.591  0.00  0.00    +0.000 A 
ATOM     14  C   UNL     1       2.765   4.040  18.407  0.00  0.00    +0.000 C 
ATOM     15  O   UNL     1       6.078   3.970  14.543  0.00  0.00    +0.000 OA
ATOM     16  C   UNL     1       7.152   4.936  14.429  0.00  0.00    +0.000 C 
ATOM     17  O   UNL     1       7.414   5.644  15.652  0.00  0.00    +0.000 OA
ENDROOT
TORSDOF 0
ENDMDL
MODEL 2
REMARK VINA RESULT:      -7.2      3.124      5.809
REMARK  Name = 
REMARK  1 active torsions:
REMARK  status: ('A' for Active; 'I' for Inactive)
REMARK    1  A    between atoms: C_1  and  N_2
REMARK                            x       y       z     vdW  Elec       q    Type
REMARK                         _______ _______ _______ _____ _____    ______ ____
ROOT
ATOM      1  C   UNL     1       7.482   5.831  18.946  0.00  0.00    +0.000 C 
ATOM      2  N   UNL     1       6.756   4.900  18.089  0.00  0.00    +0.000 NA
ATOM      3  C   UNL     1       7.552   4.581  16.901  0.00  0.00    +0.000 C 
ATOM      4  C   UNL     1       7.130   5.081  15.524  0.00  0.00    +0.000 C 
ATOM      5  C   UNL     1       5.653   5.283  15.279  0.00  0.00    +0.000 C 
ATOM      6  C   UNL     1       4.754   5.082  16.480  0.00  0.00    +0.000 C 
ATOM      7  C   UNL     1       4.124   3.683  16.437  0.00  0.00    +0.000 C 
ATOM      8  C   UNL     1       3.686   3.527  17.845  0.00  0.00    +0.000 A 
ATOM      9  C   UNL     1       2.668   2.682  18.275  0.00  0.00    +0.000 A 
ATOM     10  C   UNL     1       2.281   2.827  19.575  0.00  0.00    +0.000 A 
ATOM     11  C   UNL     1       2.887   3.730  20.426  0.00  0.00    +0.000 A 
ATOM     12  C   UNL     1       3.955   4.538  20.029  0.00  0.00    +0.000 A 
ATOM     13  C   UNL     1       4.357   4.436  18.700  0.00  0.00    +0.000 A 
ATOM     14  C   UNL     1       5.355   5.292  17.898  0.00  0.00    +0.000 C 
ATOM     15  O   UNL     1       2.280   3.744  21.648  0.00  0.00    +0.000 OA
ATOM     16  C   UNL     1       1.165   2.850  21.413  0.00  0.00    +0.000 C 
ATOM     17  O   UNL     1       1.236   2.170  20.150  0.00  0.00    +0.000 OA
ENDROOT
TORSDOF 0
ENDMDL
MODEL 3
REMARK VINA RESULT:      -7.1      3.537      5.051
REMARK  Name = 
REMARK  1 active torsions:
REMARK  status: ('A' for Active; 'I' for Inactive)
REMARK    1  A    between atoms: C_1  and  N_2
REMARK                            x       y       z     vdW  Elec       q    Type
REMARK                         _______ _______ _______ _____ _____    ______ ____
ROOT
ATOM      1  C   UNL     1       4.846   4.355  17.085  0.00  0.00    +0.000 C 
ATOM      2  N   UNL     1       4.269   4.542  18.412  0.00  0.00    +0.000 NA
ATOM      3  C   UNL     1       4.686   3.456  19.302  0.00  0.00    +0.000 C 
ATOM      4  C   UNL     1       3.682   2.413  19.781  0.00  0.00    +0.000 C 
ATOM      5  C   UNL     1       2.241   2.846  19.919  0.00  0.00    +0.000 C 
ATOM      6  C   UNL     1       1.928   4.248  19.443  0.00  0.00    +0.000 C 
ATOM      7  C   UNL     1       1.874   5.209  20.638  0.00  0.00    +0.000 C 
ATOM      8  C   UNL     1       2.014   6.518  19.955  0.00  0.00    +0.000 A 
ATOM      9  C   UNL     1       1.577   7.736  20.465  0.00  0.00    +0.000 A 
ATOM     10  C   UNL     1       1.616   8.793  19.605  0.00  0.00    +0.000 A 
ATOM     11  C   UNL     1       2.096   8.674  18.315  0.00  0.00    +0.000 A 
ATOM     12  C   UNL     1       2.602   7.474  17.808  0.00  0.00    +0.000 A 
ATOM     13  C   UNL     1       2.550   6.367  18.651  0.00  0.00    +0.000 A 
ATOM     14  C   UNL     1       2.843   4.884  18.360  0.00  0.00    +0.000 C 
ATOM     15  O   UNL     1       1.966   9.845  17.627  0.00  0.00    +0.000 OA
ATOM     16  C   UNL     1       1.242  10.651  18.588  0.00  0.00    +0.000 C 
ATOM     17  O   UNL     1       1.134  10.036  19.881  0.00  0.00    +0.000 OA
ENDROOT
TORSDOF 0
ENDMDL
MODEL 4
REMARK VINA RESULT:      -7.0      2.080      2.518
REMARK  Name = 
REMARK  1 active torsions:
REMARK  status: ('A' for Active; 'I' for Inactive)
REMARK    1  A    between atoms: C_1  and  N_2
REMARK                            x       y       z     vdW  Elec       q    Type
REMARK                         _______ _______ _______ _____ _____    ______ ____
ROOT
ATOM      1  C   UNL     1       3.922   2.116  21.017  0.00  0.00    +0.000 C 
ATOM      2  N   UNL     1       3.187   3.200  20.373  0.00  0.00    +0.000 NA
ATOM      3  C   UNL     1       1.779   3.163  20.775  0.00  0.00    +0.000 C 
ATOM      4  C   UNL     1       0.694   2.776  19.776  0.00  0.00    +0.000 C 
ATOM      5  C   UNL     1       0.944   3.092  18.320  0.00  0.00    +0.000 C 
ATOM      6  C   UNL     1       2.311   3.651  17.995  0.00  0.00    +0.000 C 
ATOM      7  C   UNL     1       2.236   5.178  17.860  0.00  0.00    +0.000 C 
ATOM      8  C   UNL     1       3.666   5.546  18.000  0.00  0.00    +0.000 A 
ATOM      9  C   UNL     1       4.242   6.713  17.508  0.00  0.00    +0.000 A 
ATOM     10  C   UNL     1       5.604   6.775  17.562  0.00  0.00    +0.000 A 
ATOM     11  C   UNL     1       6.366   5.759  18.105  0.00  0.00    +0.000 A 
ATOM     12  C   UNL     1       5.800   4.611  18.664  0.00  0.00    +0.000 A 
ATOM     13  C   UNL     1       4.413   4.501  18.600  0.00  0.00    +0.000 A 
ATOM     14  C   UNL     1       3.495   3.314  18.944  0.00  0.00    +0.000 C 
ATOM     15  O   UNL     1       7.699   6.017  17.979  0.00  0.00    +0.000 OA
ATOM     16  C   UNL     1       7.673   7.231  17.190  0.00  0.00    +0.000 C 
ATOM     17  O   UNL     1       6.355   7.782  17.037  0.00  0.00    +0.000 OA
ENDROOT
TORSDOF 0
ENDMDL
MODEL 5
REMARK VINA RESULT:      -7.0      1.208      2.491
REMARK  Name = 
REMARK  1 active torsions:
REMARK  status: ('A' for Active; 'I' for Inactive)
REMARK    1  A    between atoms: C_1  and  N_2
REMARK                            x       y       z     vdW  Elec       q    Type
REMARK                         _______ _______ _______ _____ _____    ______ ____
ROOT
ATOM      1  C   UNL     1       2.016   6.624  20.262  0.00  0.00    +0.000 C 
ATOM      2  N   UNL     1       2.084   5.268  19.728  0.00  0.00    +0.000 NA
ATOM      3  C   UNL     1       1.033   4.438  20.321  0.00  0.00    +0.000 C 
ATOM      4  C   UNL     1       1.382   3.318  21.295  0.00  0.00    +0.000 C 
ATOM      5  C   UNL     1       2.724   2.644  21.127  0.00  0.00    +0.000 C 
ATOM      6  C   UNL     1       3.634   3.243  20.078  0.00  0.00    +0.000 C 
ATOM      7  C   UNL     1       3.553   2.425  18.782  0.00  0.00    +0.000 C 
ATOM      8  C   UNL     1       4.116   3.387  17.804  0.00  0.00    +0.000 A 
ATOM      9  C   UNL     1       4.707   3.041  16.593  0.00  0.00    +0.000 A 
ATOM     10  C   UNL     1       5.341   4.049  15.928  0.00  0.00    +0.000 A 
ATOM     11  C   UNL     1       5.365   5.344  16.407  0.00  0.00    +0.000 A 
ATOM     12  C   UNL     1       4.720   5.723  17.587  0.00  0.00    +0.000 A 
ATOM     13  C   UNL     1       4.087   4.713  18.306  0.00  0.00    +0.000 A 
ATOM     14  C   UNL     1       3.453   4.742  19.709  0.00  0.00    +0.000 C 
ATOM     15  O   UNL     1       6.119   6.154  15.609  0.00  0.00    +0.000 OA
ATOM     16  C   UNL     1       6.655   5.193  14.668  0.00  0.00    +0.000 C 
ATOM     17  O   UNL     1       6.065   3.888  14.787  0.00  0.00    +0.000 OA
ENDROOT
TORSDOF 0
ENDMDL
MODEL 6
REMARK VINA RESULT:      -7.0      1.679      2.872
REMARK  Name = 
REMARK  1 active torsions:
REMARK  status: ('A' for Active; 'I' for Inactive)
REMARK    1  A    between atoms: C_1  and  N_2
REMARK                            x       y       z     vdW  Elec       q    Type
REMARK                         _______ _______ _______ _____ _____    ______ ____
ROOT
ATOM      1  C   UNL     1       2.565   3.922  21.654  0.00  0.00    +0.000 C 
ATOM      2  N   UNL     1       2.324   4.027  20.219  0.00  0.00    +0.000 NA
ATOM      3  C   UNL     1       0.948   3.634  19.907  0.00  0.00    +0.000 C 
ATOM      4  C   UNL     1       0.660   2.343  19.149  0.00  0.00    +0.000 C 
ATOM      5  C   UNL     1       1.709   1.859  18.175  0.00  0.00    +0.000 C 
ATOM      6  C   UNL     1       2.997   2.651  18.149  0.00  0.00    +0.000 C 
ATOM      7  C   UNL     1       2.986   3.635  16.971  0.00  0.00    +0.000 C 
ATOM      8  C   UNL     1       4.056   4.577  17.379  0.00  0.00    +0.000 A 
ATOM      9  C   UNL     1       4.789   5.378  16.509  0.00  0.00    +0.000 A 
ATOM     10  C   UNL     1       5.860   6.024  17.051  0.00  0.00    +0.000 A 
ATOM     11  C   UNL     1       6.180   5.922  18.391  0.00  0.00    +0.000 A 
ATOM     12  C   UNL     1       5.416   5.177  19.292  0.00  0.00    +0.000 A 
ATOM     13  C   UNL     1       4.331   4.480  18.766  0.00  0.00    +0.000 A 
ATOM     14  C   UNL     1       3.408   3.438  19.425  0.00  0.00    +0.000 C 
ATOM     15  O   UNL     1       7.330   6.596  18.679  0.00  0.00    +0.000 OA
ATOM     16  C   UNL     1       7.747   7.012  17.356  0.00  0.00    +0.000 C 
ATOM     17  O   UNL     1       6.757   6.765  16.344  0.00  0.00    +0.000 OA
ENDROOT
TORSDOF 0
ENDMDL
MODEL 7
REMARK VINA RESULT:      -6.9      3.874      5.526
REMARK  Name = 
REMARK  1 active torsions:
REMARK  status: ('A' for Active; 'I' for Inactive)
REMARK    1  A    between atoms: C_1  and  N_2
REMARK                            x       y       z     vdW  Elec       q    Type
REMARK                         _______ _______ _______ _____ _____    ______ ____
ROOT
ATOM      1  C   UNL     1       1.951   3.778  21.174  0.00  0.00    +0.000 C 
ATOM      2  N   UNL     1       2.251   4.298  19.844  0.00  0.00    +0.000 NA
ATOM      3  C   UNL     1       2.601   3.201  18.940  0.00  0.00    +0.000 C 
ATOM      4  C   UNL     1       4.029   3.038  18.430  0.00  0.00    +0.000 C 
ATOM      5  C   UNL     1       4.862   4.290  18.284  0.00  0.00    +0.000 C 
ATOM      6  C   UNL     1       4.223   5.567  18.782  0.00  0.00    +0.000 C 
ATOM      7  C   UNL     1       3.629   6.352  17.604  0.00  0.00    +0.000 C 
ATOM      8  C   UNL     1       2.702   7.268  18.313  0.00  0.00    +0.000 A 
ATOM      9  C   UNL     1       2.255   8.489  17.820  0.00  0.00    +0.000 A 
ATOM     10  C   UNL     1       1.570   9.274  18.700  0.00  0.00    +0.000 A 
ATOM     11  C   UNL     1       1.302   8.868  19.993  0.00  0.00    +0.000 A 
ATOM     12  C   UNL     1       1.685   7.617  20.483  0.00  0.00    +0.000 A 
ATOM     13  C   UNL     1       2.411   6.801  19.619  0.00  0.00    +0.000 A 
ATOM     14  C   UNL     1       3.134   5.468  19.887  0.00  0.00    +0.000 C 
ATOM     15  O   UNL     1       0.671   9.849  20.700  0.00  0.00    +0.000 OA
ATOM     16  C   UNL     1       0.698  10.938  19.746  0.00  0.00    +0.000 C 
ATOM     17  O   UNL     1       1.146  10.541  18.440  0.00  0.00    +0.000 OA
ENDROOT
TORSDOF 0
ENDMDL
MODEL 8
REMARK VINA RESULT:      -6.7      4.133      5.960
REMARK  Name = 
REMARK  1 active torsions:
REMARK  status: ('A' for Active; 'I' for Inactive)
REMARK    1  A    between atoms: C_1  and  N_2
REMARK                            x       y       z     vdW  Elec       q    Type
REMARK                         _______ _______ _______ _____ _____    ______ ____
ROOT
ATOM      1  C   UNL     1       5.038   6.451  16.485  0.00  0.00    +0.000 C 
ATOM      2  N   UNL     1       4.560   6.159  17.832  0.00  0.00    +0.000 NA
ATOM      3  C   UNL     1       5.306   5.035  18.401  0.00  0.00    +0.000 C 
ATOM      4  C   UNL     1       4.631   3.687  18.627  0.00  0.00    +0.000 C 
ATOM      5  C   UNL     1       3.148   3.692  18.915  0.00  0.00    +0.000 C 
ATOM      6  C   UNL     1       2.465   5.038  18.823  0.00  0.00    +0.000 C 
ATOM      7  C   UNL     1       2.294   5.637  20.226  0.00  0.00    +0.000 C 
ATOM      8  C   UNL     1       2.052   7.064  19.897  0.00  0.00    +0.000 A 
ATOM      9  C   UNL     1       1.385   7.969  20.715  0.00  0.00    +0.000 A 
ATOM     10  C   UNL     1       1.090   9.176  20.153  0.00  0.00    +0.000 A 
ATOM     11  C   UNL     1       1.461   9.498  18.862  0.00  0.00    +0.000 A 
ATOM     12  C   UNL     1       2.190   8.625  18.050  0.00  0.00    +0.000 A 
ATOM     13  C   UNL     1       2.484   7.372  18.582  0.00  0.00    +0.000 A 
ATOM     14  C   UNL     1       3.095   6.128  17.912  0.00  0.00    +0.000 C 
ATOM     15  O   UNL     1       0.991  10.726  18.501  0.00  0.00    +0.000 OA
ATOM     16  C   UNL     1       0.188  11.065  19.657  0.00  0.00    +0.000 C 
ATOM     17  O   UNL     1       0.352  10.151  20.753  0.00  0.00    +0.000 OA
ENDROOT
TORSDOF 0
ENDMDL
MODEL 9
REMARK VINA RESULT:      -6.7      2.921      5.294
REMARK  Name = 
REMARK  1 active torsions:
REMARK  status: ('A' for Active; 'I' for Inactive)
REMARK    1  A    between atoms: C_1  and  N_2
REMARK                            x       y       z     vdW  Elec       q    Type
REMARK                         _______ _______ _______ _____ _____    ______ ____
ROOT
ATOM      1  C   UNL     1       5.816   5.121  14.893  0.00  0.00    +0.000 C 
ATOM      2  N   UNL     1       5.601   5.674  16.226  0.00  0.00    +0.000 NA
ATOM      3  C   UNL     1       6.404   6.885  16.406  0.00  0.00    +0.000 C 
ATOM      4  C   UNL     1       7.594   6.896  17.360  0.00  0.00    +0.000 C 
ATOM      5  C   UNL     1       7.536   5.973  18.555  0.00  0.00    +0.000 C 
ATOM      6  C   UNL     1       6.347   5.040  18.607  0.00  0.00    +0.000 C 
ATOM      7  C   UNL     1       5.275   5.608  19.547  0.00  0.00    +0.000 C 
ATOM      8  C   UNL     1       4.084   4.834  19.118  0.00  0.00    +0.000 A 
ATOM      9  C   UNL     1       2.963   4.592  19.905  0.00  0.00    +0.000 A 
ATOM     10  C   UNL     1       2.065   3.696  19.406  0.00  0.00    +0.000 A 
ATOM     11  C   UNL     1       2.235   3.091  18.176  0.00  0.00    +0.000 A 
ATOM     12  C   UNL     1       3.321   3.373  17.343  0.00  0.00    +0.000 A 
ATOM     13  C   UNL     1       4.272   4.263  17.834  0.00  0.00    +0.000 A 
ATOM     14  C   UNL     1       5.654   4.647  17.273  0.00  0.00    +0.000 C 
ATOM     15  O   UNL     1       1.248   2.183  17.928  0.00  0.00    +0.000 OA
ATOM     16  C   UNL     1       0.531   2.204  19.186  0.00  0.00    +0.000 C 
ATOM     17  O   UNL     1       0.964   3.249  20.071  0.00  0.00    +0.000 OA
ENDROOT
TORSDOF 0
ENDMDL
