MODEL 1
REMARK VINA RESULT:      -9.4      0.000      0.000
REMARK  Name = 
REMARK  6 active torsions:
REMARK  status: ('A' for Active; 'I' for Inactive)
REMARK    1  A    between atoms: C_2  and  C_3
REMARK    2  A    between atoms: C_9  and  C_10
REMARK    3  A    between atoms: C_13  and  C_14
REMARK    4  A    between atoms: C_17  and  C_18
REMARK    5  A    between atoms: C_23  and  O_24
REMARK    6  A    between atoms: O_24  and  C_25
REMARK                            x       y       z     vdW  Elec       q    Type
REMARK                         _______ _______ _______ _____ _____    ______ ____
ROOT
ATOM      1  C   UNL     1       2.844   7.118  18.447  0.00  0.00    +0.000 A 
ATOM      2  C   UNL     1       2.422   8.327  17.860  0.00  0.00    +0.000 A 
ATOM      3  C   UNL     1       1.552   9.218  18.522  0.00  0.00    +0.000 A 
ATOM      4  C   UNL     1       1.068   8.945  19.807  0.00  0.00    +0.000 A 
ATOM      5  C   UNL     1       1.493   7.734  20.386  0.00  0.00    +0.000 A 
ATOM      6  C   UNL     1       2.363   6.862  19.730  0.00  0.00    +0.000 A 
ATOM      7  F   UNL     1       2.779   5.783  20.410  0.00  0.00    +0.000 F 
ENDROOT
BRANCH   1  14
ATOM      8  C   UNL     1       3.654   4.890  17.433  0.00  0.00    +0.000 A 
ATOM      9  N   UNL     1       4.652   4.131  16.883  0.00  0.00    +0.000 NA
ATOM     10  C   UNL     1       5.826   4.740  16.672  0.00  0.00    +0.000 A 
ATOM     11  N   UNL     1       6.868   3.950  16.201  0.00  0.00    +0.000 N 
ATOM     12  C   UNL     1       5.994   6.083  16.978  0.00  0.00    +0.000 A 
ATOM     13  N   UNL     1       5.014   6.851  17.512  0.00  0.00    +0.000 NA
ATOM     14  C   UNL     1       3.823   6.238  17.775  0.00  0.00    +0.000 A 
ATOM     15  H   UNL     1       6.505   3.019  16.015  0.00  0.00    +0.000 HD
ATOM     16  H   UNL     1       7.331   4.344  15.388  0.00  0.00    +0.000 HD
BRANCH   8  18
ATOM     17  N   UNL     1       1.405   3.604  17.652  0.00  0.00    +0.000 NA
ATOM     18  C   UNL     1       2.407   4.186  17.552  0.00  0.00    +0.000 C 
ENDBRANCH   8  18
ENDBRANCH   1  14
BRANCH   4  19
ATOM     19  C   UNL     1       0.167   9.857  20.569  0.00  0.00    +0.000 A 
ATOM     20  C   UNL     1       0.070   9.675  21.972  0.00  0.00    +0.000 A 
ATOM     21  C   UNL     1      -0.637  10.553  22.799  0.00  0.00    +0.000 A 
ATOM     22  C   UNL     1      -1.281  11.660  22.254  0.00  0.00    +0.000 A 
ATOM     23  C   UNL     1      -1.221  11.851  20.868  0.00  0.00    +0.000 A 
ATOM     24  C   UNL     1      -0.554  10.944  20.019  0.00  0.00    +0.000 A 
BRANCH  22  25
ATOM     25  C   UNL     1      -2.046  12.633  23.110  0.00  0.00    +0.000 C 
ATOM     26  F   UNL     1      -1.249  13.437  23.867  0.00  0.00    +0.000 F 
ATOM     27  F   UNL     1      -2.830  13.470  22.375  0.00  0.00    +0.000 F 
ATOM     28  F   UNL     1      -2.884  12.009  23.985  0.00  0.00    +0.000 F 
ENDBRANCH  22  25
BRANCH  24  29
ATOM     29  O   UNL     1      -0.515  11.172  18.654  0.00  0.00    +0.000 OA
BRANCH  29  30
ATOM     30  C   UNL     1      -1.679  10.946  17.917  0.00  0.00    +0.000 A 
ATOM     31  N   UNL     1      -1.626   9.915  17.057  0.00  0.00    +0.000 NA
ATOM     32  C   UNL     1      -2.724   9.716  16.299  0.00  0.00    +0.000 A 
ATOM     33  C   UNL     1      -3.854  10.498  16.369  0.00  0.00    +0.000 A 
ATOM     34  C   UNL     1      -3.807  11.516  17.290  0.00  0.00    +0.000 A 
ATOM     35  N   UNL     1      -2.746  11.754  18.084  0.00  0.00    +0.000 NA
ENDBRANCH  29  30
ENDBRANCH  24  29
ENDBRANCH   4  19
TORSDOF 6
ENDMDL
MODEL 2
REMARK VINA RESULT:      -9.3      2.988      9.178
REMARK  Name = 
REMARK  6 active torsions:
REMARK  status: ('A' for Active; 'I' for Inactive)
REMARK    1  A    between atoms: C_2  and  C_3
REMARK    2  A    between atoms: C_9  and  C_10
REMARK    3  A    between atoms: C_13  and  C_14
REMARK    4  A    between atoms: C_17  and  C_18
REMARK    5  A    between atoms: C_23  and  O_24
REMARK    6  A    between atoms: O_24  and  C_25
REMARK                            x       y       z     vdW  Elec       q    Type
REMARK                         _______ _______ _______ _____ _____    ______ ____
ROOT
ATOM      1  C   UNL     1       0.761   9.947  19.761  0.00  0.00    +0.000 A 
ATOM      2  C   UNL     1       1.234  10.173  18.454  0.00  0.00    +0.000 A 
ATOM      3  C   UNL     1       2.083   9.258  17.795  0.00  0.00    +0.000 A 
ATOM      4  C   UNL     1       2.492   8.069  18.411  0.00  0.00    +0.000 A 
ATOM      5  C   UNL     1       2.016   7.851  19.717  0.00  0.00    +0.000 A 
ATOM      6  C   UNL     1       1.168   8.756  20.360  0.00  0.00    +0.000 A 
ATOM      7  F   UNL     1       0.698   8.405  21.566  0.00  0.00    +0.000 F 
ENDROOT
BRANCH   1  14
ATOM      8  C   UNL     1      -1.419  11.316  19.888  0.00  0.00    +0.000 A 
ATOM      9  N   UNL     1      -2.202  12.243  20.523  0.00  0.00    +0.000 NA
ATOM     10  C   UNL     1      -1.745  12.722  21.688  0.00  0.00    +0.000 A 
ATOM     11  N   UNL     1      -2.491  13.729  22.288  0.00  0.00    +0.000 N 
ATOM     12  C   UNL     1      -0.548  12.267  22.221  0.00  0.00    +0.000 A 
ATOM     13  N   UNL     1       0.233  11.342  21.613  0.00  0.00    +0.000 NA
ATOM     14  C   UNL     1      -0.194  10.873  20.403  0.00  0.00    +0.000 A 
ATOM     15  H   UNL     1      -3.337  13.871  21.743  0.00  0.00    +0.000 HD
ATOM     16  H   UNL     1      -2.697  13.545  23.265  0.00  0.00    +0.000 HD
BRANCH   8  18
ATOM     17  N   UNL     1      -2.509  10.386  17.719  0.00  0.00    +0.000 NA
ATOM     18  C   UNL     1      -2.016  10.795  18.689  0.00  0.00    +0.000 C 
ENDBRANCH   8  18
ENDBRANCH   1  14
BRANCH   4  19
ATOM     19  C   UNL     1       3.366   7.052  17.759  0.00  0.00    +0.000 A 
ATOM     20  C   UNL     1       4.614   7.482  17.241  0.00  0.00    +0.000 A 
ATOM     21  C   UNL     1       5.566   6.594  16.733  0.00  0.00    +0.000 A 
ATOM     22  C   UNL     1       5.309   5.226  16.721  0.00  0.00    +0.000 A 
ATOM     23  C   UNL     1       4.075   4.775  17.205  0.00  0.00    +0.000 A 
ATOM     24  C   UNL     1       3.087   5.667  17.673  0.00  0.00    +0.000 A 
BRANCH  22  25
ATOM     25  C   UNL     1       6.310   4.236  16.188  0.00  0.00    +0.000 C 
ATOM     26  F   UNL     1       7.382   4.051  17.008  0.00  0.00    +0.000 F 
ATOM     27  F   UNL     1       5.769   3.001  15.995  0.00  0.00    +0.000 F 
ATOM     28  F   UNL     1       6.823   4.612  14.984  0.00  0.00    +0.000 F 
ENDBRANCH  22  25
BRANCH  24  29
ATOM     29  O   UNL     1       1.881   5.179  18.146  0.00  0.00    +0.000 OA
BRANCH  29  30
ATOM     30  C   UNL     1       1.908   4.305  19.234  0.00  0.00    +0.000 A 
ATOM     31  N   UNL     1       1.435   3.070  18.992  0.00  0.00    +0.000 NA
ATOM     32  C   UNL     1       1.404   2.228  20.046  0.00  0.00    +0.000 A 
ATOM     33  C   UNL     1       1.821   2.572  21.311  0.00  0.00    +0.000 A 
ATOM     34  C   UNL     1       2.298   3.852  21.445  0.00  0.00    +0.000 A 
ATOM     35  N   UNL     1       2.368   4.732  20.427  0.00  0.00    +0.000 NA
ENDBRANCH  29  30
ENDBRANCH  24  29
ENDBRANCH   4  19
TORSDOF 6
ENDMDL
MODEL 3
REMARK VINA RESULT:      -9.3      0.064      1.054
REMARK  Name = 
REMARK  6 active torsions:
REMARK  status: ('A' for Active; 'I' for Inactive)
REMARK    1  A    between atoms: C_2  and  C_3
REMARK    2  A    between atoms: C_9  and  C_10
REMARK    3  A    between atoms: C_13  and  C_14
REMARK    4  A    between atoms: C_17  and  C_18
REMARK    5  A    between atoms: C_23  and  O_24
REMARK    6  A    between atoms: O_24  and  C_25
REMARK                            x       y       z     vdW  Elec       q    Type
REMARK                         _______ _______ _______ _____ _____    ______ ____
ROOT
ATOM      1  C   UNL     1       2.830   7.112  18.445  0.00  0.00    +0.000 A 
ATOM      2  C   UNL     1       2.393   8.313  17.853  0.00  0.00    +0.000 A 
ATOM      3  C   UNL     1       1.525   9.204  18.518  0.00  0.00    +0.000 A 
ATOM      4  C   UNL     1       1.058   8.939  19.811  0.00  0.00    +0.000 A 
ATOM      5  C   UNL     1       1.498   7.736  20.395  0.00  0.00    +0.000 A 
ATOM      6  C   UNL     1       2.366   6.863  19.736  0.00  0.00    +0.000 A 
ATOM      7  F   UNL     1       2.797   5.794  20.421  0.00  0.00    +0.000 F 
ENDROOT
BRANCH   1  14
ATOM      8  C   UNL     1       3.638   4.883  17.431  0.00  0.00    +0.000 A 
ATOM      9  N   UNL     1       4.635   4.125  16.877  0.00  0.00    +0.000 NA
ATOM     10  C   UNL     1       5.806   4.736  16.658  0.00  0.00    +0.000 A 
ATOM     11  N   UNL     1       6.847   3.948  16.181  0.00  0.00    +0.000 N 
ATOM     12  C   UNL     1       5.973   6.080  16.959  0.00  0.00    +0.000 A 
ATOM     13  N   UNL     1       4.995   6.848  17.498  0.00  0.00    +0.000 NA
ATOM     14  C   UNL     1       3.806   6.232  17.769  0.00  0.00    +0.000 A 
ATOM     15  H   UNL     1       6.485   3.015  16.000  0.00  0.00    +0.000 HD
ATOM     16  H   UNL     1       7.304   4.341  15.365  0.00  0.00    +0.000 HD
BRANCH   8  18
ATOM     17  N   UNL     1       1.381   3.613  17.652  0.00  0.00    +0.000 NA
ATOM     18  C   UNL     1       2.393   4.177  17.560  0.00  0.00    +0.000 C 
ENDBRANCH   8  18
ENDBRANCH   1  14
BRANCH   4  19
ATOM     19  C   UNL     1       0.160   9.851  20.576  0.00  0.00    +0.000 A 
ATOM     20  C   UNL     1       0.046   9.652  21.975  0.00  0.00    +0.000 A 
ATOM     21  C   UNL     1      -0.659  10.527  22.806  0.00  0.00    +0.000 A 
ATOM     22  C   UNL     1      -1.283  11.649  22.270  0.00  0.00    +0.000 A 
ATOM     23  C   UNL     1      -1.206  11.858  20.887  0.00  0.00    +0.000 A 
ATOM     24  C   UNL     1      -0.541  10.955  20.033  0.00  0.00    +0.000 A 
BRANCH  22  25
ATOM     25  C   UNL     1      -2.046  12.620  23.131  0.00  0.00    +0.000 C 
ATOM     26  F   UNL     1      -2.912  12.018  23.993  0.00  0.00    +0.000 F 
ATOM     27  F   UNL     1      -1.228  13.390  23.900  0.00  0.00    +0.000 F 
ATOM     28  F   UNL     1      -2.795  13.489  22.397  0.00  0.00    +0.000 F 
ENDBRANCH  22  25
BRANCH  24  29
ATOM     29  O   UNL     1      -0.485  11.201  18.672  0.00  0.00    +0.000 OA
BRANCH  29  30
ATOM     30  C   UNL     1      -1.631  10.957  17.913  0.00  0.00    +0.000 A 
ATOM     31  N   UNL     1      -2.640  11.824  18.098  0.00  0.00    +0.000 NA
ATOM     32  C   UNL     1      -3.774  11.573  17.411  0.00  0.00    +0.000 A 
ATOM     33  C   UNL     1      -3.931  10.503  16.561  0.00  0.00    +0.000 A 
ATOM     34  C   UNL     1      -2.834   9.688  16.434  0.00  0.00    +0.000 A 
ATOM     35  N   UNL     1      -1.671   9.896  17.081  0.00  0.00    +0.000 NA
ENDBRANCH  29  30
ENDBRANCH  24  29
ENDBRANCH   4  19
TORSDOF 6
ENDMDL
MODEL 4
REMARK VINA RESULT:      -9.2      2.967      9.196
REMARK  Name = 
REMARK  6 active torsions:
REMARK  status: ('A' for Active; 'I' for Inactive)
REMARK    1  A    between atoms: C_2  and  C_3
REMARK    2  A    between atoms: C_9  and  C_10
REMARK    3  A    between atoms: C_13  and  C_14
REMARK    4  A    between atoms: C_17  and  C_18
REMARK    5  A    between atoms: C_23  and  O_24
REMARK    6  A    between atoms: O_24  and  C_25
REMARK                            x       y       z     vdW  Elec       q    Type
REMARK                         _______ _______ _______ _____ _____    ______ ____
ROOT
ATOM      1  C   UNL     1       0.723  10.036  19.785  0.00  0.00    +0.000 A 
ATOM      2  C   UNL     1       1.186  10.242  18.471  0.00  0.00    +0.000 A 
ATOM      3  C   UNL     1       2.019   9.311  17.815  0.00  0.00    +0.000 A 
ATOM      4  C   UNL     1       2.422   8.125  18.442  0.00  0.00    +0.000 A 
ATOM      5  C   UNL     1       1.956   7.928  19.755  0.00  0.00    +0.000 A 
ATOM      6  C   UNL     1       1.123   8.849  20.394  0.00  0.00    +0.000 A 
ATOM      7  F   UNL     1       0.661   8.517  21.609  0.00  0.00    +0.000 F 
ENDROOT
BRANCH   1  14
ATOM      8  C   UNL     1      -1.438  11.437  19.910  0.00  0.00    +0.000 A 
ATOM      9  N   UNL     1      -2.205  12.380  20.542  0.00  0.00    +0.000 NA
ATOM     10  C   UNL     1      -1.738  12.859  21.702  0.00  0.00    +0.000 A 
ATOM     11  N   UNL     1      -2.467  13.880  22.299  0.00  0.00    +0.000 N 
ATOM     12  C   UNL     1      -0.546  12.390  22.235  0.00  0.00    +0.000 A 
ATOM     13  N   UNL     1       0.220  11.451  21.629  0.00  0.00    +0.000 NA
ATOM     14  C   UNL     1      -0.218  10.981  20.424  0.00  0.00    +0.000 A 
ATOM     15  H   UNL     1      -3.313  14.030  21.755  0.00  0.00    +0.000 HD
ATOM     16  H   UNL     1      -2.672  13.705  23.277  0.00  0.00    +0.000 HD
BRANCH   8  18
ATOM     17  N   UNL     1      -2.528  10.505  17.742  0.00  0.00    +0.000 NA
ATOM     18  C   UNL     1      -2.046  10.918  18.717  0.00  0.00    +0.000 C 
ENDBRANCH   8  18
ENDBRANCH   1  14
BRANCH   4  19
ATOM     19  C   UNL     1       3.279   7.091  17.794  0.00  0.00    +0.000 A 
ATOM     20  C   UNL     1       4.535   7.500  17.276  0.00  0.00    +0.000 A 
ATOM     21  C   UNL     1       5.472   6.594  16.771  0.00  0.00    +0.000 A 
ATOM     22  C   UNL     1       5.193   5.230  16.765  0.00  0.00    +0.000 A 
ATOM     23  C   UNL     1       3.951   4.801  17.250  0.00  0.00    +0.000 A 
ATOM     24  C   UNL     1       2.978   5.711  17.714  0.00  0.00    +0.000 A 
BRANCH  22  25
ATOM     25  C   UNL     1       6.178   4.222  16.237  0.00  0.00    +0.000 C 
ATOM     26  F   UNL     1       5.655   2.972  16.096  0.00  0.00    +0.000 F 
ATOM     27  F   UNL     1       6.666   4.562  15.012  0.00  0.00    +0.000 F 
ATOM     28  F   UNL     1       7.264   4.081  17.046  0.00  0.00    +0.000 F 
ENDBRANCH  22  25
BRANCH  24  29
ATOM     29  O   UNL     1       1.765   5.245  18.188  0.00  0.00    +0.000 OA
BRANCH  29  30
ATOM     30  C   UNL     1       1.780   4.311  19.227  0.00  0.00    +0.000 A 
ATOM     31  N   UNL     1       2.160   4.788  20.424  0.00  0.00    +0.000 NA
ATOM     32  C   UNL     1       2.230   3.888  21.427  0.00  0.00    +0.000 A 
ATOM     33  C   UNL     1       1.940   2.552  21.277  0.00  0.00    +0.000 A 
ATOM     34  C   UNL     1       1.549   2.174  20.016  0.00  0.00    +0.000 A 
ATOM     35  N   UNL     1       1.446   3.029  18.980  0.00  0.00    +0.000 NA
ENDBRANCH  29  30
ENDBRANCH  24  29
ENDBRANCH   4  19
TORSDOF 6
ENDMDL
MODEL 5
REMARK VINA RESULT:      -9.2      0.854      1.357
REMARK  Name = 
REMARK  6 active torsions:
REMARK  status: ('A' for Active; 'I' for Inactive)
REMARK    1  A    between atoms: C_2  and  C_3
REMARK    2  A    between atoms: C_9  and  C_10
REMARK    3  A    between atoms: C_13  and  C_14
REMARK    4  A    between atoms: C_17  and  C_18
REMARK    5  A    between atoms: C_23  and  O_24
REMARK    6  A    between atoms: O_24  and  C_25
REMARK                            x       y       z     vdW  Elec       q    Type
REMARK                         _______ _______ _______ _____ _____    ______ ____
ROOT
ATOM      1  C   UNL     1       2.772   7.055  18.742  0.00  0.00    +0.000 A 
ATOM      2  C   UNL     1       2.306   6.743  20.034  0.00  0.00    +0.000 A 
ATOM      3  C   UNL     1       1.437   7.599  20.744  0.00  0.00    +0.000 A 
ATOM      4  C   UNL     1       0.987   8.804  20.190  0.00  0.00    +0.000 A 
ATOM      5  C   UNL     1       1.459   9.108  18.900  0.00  0.00    +0.000 A 
ATOM      6  C   UNL     1       2.310   8.252  18.199  0.00  0.00    +0.000 A 
ATOM      7  F   UNL     1       2.622   8.594  16.940  0.00  0.00    +0.000 F 
ENDROOT
BRANCH   1  14
ATOM      8  C   UNL     1       3.282   4.802  17.598  0.00  0.00    +0.000 A 
ATOM      9  N   UNL     1       4.162   3.967  16.962  0.00  0.00    +0.000 NA
ATOM     10  C   UNL     1       5.382   4.459  16.706  0.00  0.00    +0.000 A 
ATOM     11  N   UNL     1       6.306   3.585  16.144  0.00  0.00    +0.000 N 
ATOM     12  C   UNL     1       5.709   5.762  17.052  0.00  0.00    +0.000 A 
ATOM     13  N   UNL     1       4.848   6.604  17.672  0.00  0.00    +0.000 NA
ATOM     14  C   UNL     1       3.613   6.108  17.980  0.00  0.00    +0.000 A 
ATOM     15  H   UNL     1       5.836   2.706  15.945  0.00  0.00    +0.000 HD
ATOM     16  H   UNL     1       6.763   3.964  15.321  0.00  0.00    +0.000 HD
BRANCH   8  18
ATOM     17  N   UNL     1       0.924   3.750  17.897  0.00  0.00    +0.000 NA
ATOM     18  C   UNL     1       1.975   4.228  17.764  0.00  0.00    +0.000 C 
ENDBRANCH   8  18
ENDBRANCH   1  14
BRANCH   4  19
ATOM     19  C   UNL     1       0.050   9.737  20.878  0.00  0.00    +0.000 A 
ATOM     20  C   UNL     1      -0.131   9.586  22.277  0.00  0.00    +0.000 A 
ATOM     21  C   UNL     1      -0.879  10.486  23.042  0.00  0.00    +0.000 A 
ATOM     22  C   UNL     1      -1.480  11.585  22.437  0.00  0.00    +0.000 A 
ATOM     23  C   UNL     1      -1.337  11.746  21.054  0.00  0.00    +0.000 A 
ATOM     24  C   UNL     1      -0.629  10.817  20.264  0.00  0.00    +0.000 A 
BRANCH  22  25
ATOM     25  C   UNL     1      -2.288  12.581  23.226  0.00  0.00    +0.000 C 
ATOM     26  F   UNL     1      -3.036  13.412  22.449  0.00  0.00    +0.000 F 
ATOM     27  F   UNL     1      -3.161  11.983  24.083  0.00  0.00    +0.000 F 
ATOM     28  F   UNL     1      -1.508  13.392  23.994  0.00  0.00    +0.000 F 
ENDBRANCH  22  25
BRANCH  24  29
ATOM     29  O   UNL     1      -0.508  11.016  18.900  0.00  0.00    +0.000 OA
BRANCH  29  30
ATOM     30  C   UNL     1      -1.651  10.871  18.111  0.00  0.00    +0.000 A 
ATOM     31  N   UNL     1      -1.592   9.900  17.184  0.00  0.00    +0.000 NA
ATOM     32  C   UNL     1      -2.668   9.781  16.379  0.00  0.00    +0.000 A 
ATOM     33  C   UNL     1      -3.780  10.586  16.464  0.00  0.00    +0.000 A 
ATOM     34  C   UNL     1      -3.741  11.537  17.454  0.00  0.00    +0.000 A 
ATOM     35  N   UNL     1      -2.703  11.693  18.298  0.00  0.00    +0.000 NA
ENDBRANCH  29  30
ENDBRANCH  24  29
ENDBRANCH   4  19
TORSDOF 6
ENDMDL
MODEL 6
REMARK VINA RESULT:      -9.1      0.857      1.446
REMARK  Name = 
REMARK  6 active torsions:
REMARK  status: ('A' for Active; 'I' for Inactive)
REMARK    1  A    between atoms: C_2  and  C_3
REMARK    2  A    between atoms: C_9  and  C_10
REMARK    3  A    between atoms: C_13  and  C_14
REMARK    4  A    between atoms: C_17  and  C_18
REMARK    5  A    between atoms: C_23  and  O_24
REMARK    6  A    between atoms: O_24  and  C_25
REMARK                            x       y       z     vdW  Elec       q    Type
REMARK                         _______ _______ _______ _____ _____    ______ ____
ROOT
ATOM      1  C   UNL     1       2.775   7.049  18.734  0.00  0.00    +0.000 A 
ATOM      2  C   UNL     1       2.309   6.739  20.026  0.00  0.00    +0.000 A 
ATOM      3  C   UNL     1       1.440   7.596  20.735  0.00  0.00    +0.000 A 
ATOM      4  C   UNL     1       0.992   8.802  20.181  0.00  0.00    +0.000 A 
ATOM      5  C   UNL     1       1.465   9.104  18.890  0.00  0.00    +0.000 A 
ATOM      6  C   UNL     1       2.315   8.247  18.190  0.00  0.00    +0.000 A 
ATOM      7  F   UNL     1       2.628   8.587  16.931  0.00  0.00    +0.000 F 
ENDROOT
BRANCH   1  14
ATOM      8  C   UNL     1       3.285   4.792  17.597  0.00  0.00    +0.000 A 
ATOM      9  N   UNL     1       4.164   3.956  16.961  0.00  0.00    +0.000 NA
ATOM     10  C   UNL     1       5.381   4.449  16.698  0.00  0.00    +0.000 A 
ATOM     11  N   UNL     1       6.304   3.575  16.136  0.00  0.00    +0.000 N 
ATOM     12  C   UNL     1       5.707   5.754  17.038  0.00  0.00    +0.000 A 
ATOM     13  N   UNL     1       4.847   6.597  17.658  0.00  0.00    +0.000 NA
ATOM     14  C   UNL     1       3.615   6.100  17.973  0.00  0.00    +0.000 A 
ATOM     15  H   UNL     1       5.835   2.694  15.943  0.00  0.00    +0.000 HD
ATOM     16  H   UNL     1       6.758   3.951  15.310  0.00  0.00    +0.000 HD
BRANCH   8  18
ATOM     17  N   UNL     1       0.917   3.765  17.907  0.00  0.00    +0.000 NA
ATOM     18  C   UNL     1       1.979   4.217  17.770  0.00  0.00    +0.000 C 
ENDBRANCH   8  18
ENDBRANCH   1  14
BRANCH   4  19
ATOM     19  C   UNL     1       0.056   9.737  20.868  0.00  0.00    +0.000 A 
ATOM     20  C   UNL     1      -0.145   9.570  22.262  0.00  0.00    +0.000 A 
ATOM     21  C   UNL     1      -0.893  10.469  23.028  0.00  0.00    +0.000 A 
ATOM     22  C   UNL     1      -1.474  11.583  22.430  0.00  0.00    +0.000 A 
ATOM     23  C   UNL     1      -1.310  11.760  21.050  0.00  0.00    +0.000 A 
ATOM     24  C   UNL     1      -0.602  10.832  20.259  0.00  0.00    +0.000 A 
BRANCH  22  25
ATOM     25  C   UNL     1      -2.280  12.577  23.221  0.00  0.00    +0.000 C 
ATOM     26  F   UNL     1      -1.520  13.414  23.981  0.00  0.00    +0.000 F 
ATOM     27  F   UNL     1      -3.040  13.381  22.427  0.00  0.00    +0.000 F 
ATOM     28  F   UNL     1      -3.147  11.977  24.083  0.00  0.00    +0.000 F 
ENDBRANCH  22  25
BRANCH  24  29
ATOM     29  O   UNL     1      -0.460  11.047  18.899  0.00  0.00    +0.000 OA
BRANCH  29  30
ATOM     30  C   UNL     1      -1.586  10.890  18.088  0.00  0.00    +0.000 A 
ATOM     31  N   UNL     1      -2.595  11.743  18.333  0.00  0.00    +0.000 NA
ATOM     32  C   UNL     1      -3.711  11.572  17.593  0.00  0.00    +0.000 A 
ATOM     33  C   UNL     1      -3.851  10.594  16.637  0.00  0.00    +0.000 A 
ATOM     34  C   UNL     1      -2.756   9.785  16.459  0.00  0.00    +0.000 A 
ATOM     35  N   UNL     1      -1.610   9.918  17.155  0.00  0.00    +0.000 NA
ENDBRANCH  29  30
ENDBRANCH  24  29
ENDBRANCH   4  19
TORSDOF 6
ENDMDL
MODEL 7
REMARK VINA RESULT:      -9.1      3.231      9.355
REMARK  Name = 
REMARK  6 active torsions:
REMARK  status: ('A' for Active; 'I' for Inactive)
REMARK    1  A    between atoms: C_2  and  C_3
REMARK    2  A    between atoms: C_9  and  C_10
REMARK    3  A    between atoms: C_13  and  C_14
REMARK    4  A    between atoms: C_17  and  C_18
REMARK    5  A    between atoms: C_23  and  O_24
REMARK    6  A    between atoms: O_24  and  C_25
REMARK                            x       y       z     vdW  Elec       q    Type
REMARK                         _______ _______ _______ _____ _____    ______ ____
ROOT
ATOM      1  C   UNL     1       0.798   9.589  19.730  0.00  0.00    +0.000 A 
ATOM      2  C   UNL     1       1.231   8.408  20.365  0.00  0.00    +0.000 A 
ATOM      3  C   UNL     1       2.112   7.501  19.739  0.00  0.00    +0.000 A 
ATOM      4  C   UNL     1       2.608   7.737  18.451  0.00  0.00    +0.000 A 
ATOM      5  C   UNL     1       2.170   8.918  17.824  0.00  0.00    +0.000 A 
ATOM      6  C   UNL     1       1.305   9.816  18.452  0.00  0.00    +0.000 A 
ATOM      7  F   UNL     1       1.026  10.956  17.802  0.00  0.00    +0.000 F 
ENDROOT
BRANCH   1  14
ATOM      8  C   UNL     1      -1.254  11.131  19.972  0.00  0.00    +0.000 A 
ATOM      9  N   UNL     1      -1.936  12.097  20.661  0.00  0.00    +0.000 NA
ATOM     10  C   UNL     1      -1.408  12.493  21.827  0.00  0.00    +0.000 A 
ATOM     11  N   UNL     1      -2.048  13.537  22.484  0.00  0.00    +0.000 N 
ATOM     12  C   UNL     1      -0.239  11.919  22.307  0.00  0.00    +0.000 A 
ATOM     13  N   UNL     1       0.443  10.955  21.644  0.00  0.00    +0.000 NA
ATOM     14  C   UNL     1      -0.057  10.568  20.433  0.00  0.00    +0.000 A 
ATOM     15  H   UNL     1      -2.894  13.769  21.970  0.00  0.00    +0.000 HD
ATOM     16  H   UNL     1      -2.241  13.335  23.460  0.00  0.00    +0.000 HD
BRANCH   8  18
ATOM     17  N   UNL     1      -2.471  10.348  17.812  0.00  0.00    +0.000 NA
ATOM     18  C   UNL     1      -1.927  10.706  18.775  0.00  0.00    +0.000 C 
ENDBRANCH   8  18
ENDBRANCH   1  14
BRANCH   4  19
ATOM     19  C   UNL     1       3.561   6.831  17.746  0.00  0.00    +0.000 A 
ATOM     20  C   UNL     1       4.781   7.383  17.280  0.00  0.00    +0.000 A 
ATOM     21  C   UNL     1       5.799   6.601  16.728  0.00  0.00    +0.000 A 
ATOM     22  C   UNL     1       5.642   5.223  16.620  0.00  0.00    +0.000 A 
ATOM     23  C   UNL     1       4.437   4.654  17.052  0.00  0.00    +0.000 A 
ATOM     24  C   UNL     1       3.383   5.439  17.562  0.00  0.00    +0.000 A 
BRANCH  22  25
ATOM     25  C   UNL     1       6.717   4.345  16.038  0.00  0.00    +0.000 C 
ATOM     26  F   UNL     1       7.341   4.892  14.958  0.00  0.00    +0.000 F 
ATOM     27  F   UNL     1       7.701   4.062  16.935  0.00  0.00    +0.000 F 
ATOM     28  F   UNL     1       6.236   3.141  15.619  0.00  0.00    +0.000 F 
ENDBRANCH  22  25
BRANCH  24  29
ATOM     29  O   UNL     1       2.210   4.836  17.982  0.00  0.00    +0.000 OA
BRANCH  29  30
ATOM     30  C   UNL     1       2.250   4.050  19.135  0.00  0.00    +0.000 A 
ATOM     31  N   UNL     1       1.107   3.999  19.838  0.00  0.00    +0.000 NA
ATOM     32  C   UNL     1       1.144   3.286  20.983  0.00  0.00    +0.000 A 
ATOM     33  C   UNL     1       2.265   2.634  21.442  0.00  0.00    +0.000 A 
ATOM     34  C   UNL     1       3.375   2.740  20.639  0.00  0.00    +0.000 A 
ATOM     35  N   UNL     1       3.394   3.424  19.480  0.00  0.00    +0.000 NA
ENDBRANCH  29  30
ENDBRANCH  24  29
ENDBRANCH   4  19
TORSDOF 6
ENDMDL
MODEL 8
REMARK VINA RESULT:      -9.0      3.063      9.188
REMARK  Name = 
REMARK  6 active torsions:
REMARK  status: ('A' for Active; 'I' for Inactive)
REMARK    1  A    between atoms: C_2  and  C_3
REMARK    2  A    between atoms: C_9  and  C_10
REMARK    3  A    between atoms: C_13  and  C_14
REMARK    4  A    between atoms: C_17  and  C_18
REMARK    5  A    between atoms: C_23  and  O_24
REMARK    6  A    between atoms: O_24  and  C_25
REMARK                            x       y       z     vdW  Elec       q    Type
REMARK                         _______ _______ _______ _____ _____    ______ ____
ROOT
ATOM      1  C   UNL     1       0.926   9.763  19.657  0.00  0.00    +0.000 A 
ATOM      2  C   UNL     1       1.470  10.002  18.379  0.00  0.00    +0.000 A 
ATOM      3  C   UNL     1       2.366   9.101  17.766  0.00  0.00    +0.000 A 
ATOM      4  C   UNL     1       2.755   7.914  18.398  0.00  0.00    +0.000 A 
ATOM      5  C   UNL     1       2.208   7.684  19.675  0.00  0.00    +0.000 A 
ATOM      6  C   UNL     1       1.314   8.574  20.272  0.00  0.00    +0.000 A 
ATOM      7  F   UNL     1       0.781   8.211  21.448  0.00  0.00    +0.000 F 
ENDROOT
BRANCH   1  14
ATOM      8  C   UNL     1      -1.293  11.074  19.681  0.00  0.00    +0.000 A 
ATOM      9  N   UNL     1      -2.122  11.991  20.270  0.00  0.00    +0.000 NA
ATOM     10  C   UNL     1      -1.721  12.501  21.443  0.00  0.00    +0.000 A 
ATOM     11  N   UNL     1      -2.514  13.498  21.998  0.00  0.00    +0.000 N 
ATOM     12  C   UNL     1      -0.533  12.087  22.027  0.00  0.00    +0.000 A 
ATOM     13  N   UNL     1       0.294  11.174  21.463  0.00  0.00    +0.000 NA
ATOM     14  C   UNL     1      -0.076  10.674  20.247  0.00  0.00    +0.000 A 
ATOM     15  H   UNL     1      -3.343  13.607  21.420  0.00  0.00    +0.000 HD
ATOM     16  H   UNL     1      -2.751  13.324  22.969  0.00  0.00    +0.000 HD
BRANCH   8  18
ATOM     17  N   UNL     1      -2.282  10.071  17.496  0.00  0.00    +0.000 NA
ATOM     18  C   UNL     1      -1.832  10.518  18.471  0.00  0.00    +0.000 C 
ENDBRANCH   8  18
ENDBRANCH   1  14
BRANCH   4  19
ATOM     19  C   UNL     1       3.678   6.911  17.793  0.00  0.00    +0.000 A 
ATOM     20  C   UNL     1       4.197   7.182  16.501  0.00  0.00    +0.000 A 
ATOM     21  C   UNL     1       5.170   6.380  15.898  0.00  0.00    +0.000 A 
ATOM     22  C   UNL     1       5.671   5.267  16.565  0.00  0.00    +0.000 A 
ATOM     23  C   UNL     1       5.159   4.963  17.833  0.00  0.00    +0.000 A 
ATOM     24  C   UNL     1       4.141   5.735  18.429  0.00  0.00    +0.000 A 
BRANCH  22  25
ATOM     25  C   UNL     1       6.723   4.382  15.953  0.00  0.00    +0.000 C 
ATOM     26  F   UNL     1       7.309   4.919  14.846  0.00  0.00    +0.000 F 
ATOM     27  F   UNL     1       7.739   4.106  16.816  0.00  0.00    +0.000 F 
ATOM     28  F   UNL     1       6.227   3.175  15.562  0.00  0.00    +0.000 F 
ENDBRANCH  22  25
BRANCH  24  29
ATOM     29  O   UNL     1       3.665   5.402  19.686  0.00  0.00    +0.000 OA
BRANCH  29  30
ATOM     30  C   UNL     1       2.668   4.428  19.775  0.00  0.00    +0.000 A 
ATOM     31  N   UNL     1       2.324   4.068  21.023  0.00  0.00    +0.000 NA
ATOM     32  C   UNL     1       1.400   3.091  21.126  0.00  0.00    +0.000 A 
ATOM     33  C   UNL     1       0.820   2.470  20.044  0.00  0.00    +0.000 A 
ATOM     34  C   UNL     1       1.234   2.923  18.816  0.00  0.00    +0.000 A 
ATOM     35  N   UNL     1       2.140   3.905  18.650  0.00  0.00    +0.000 NA
ENDBRANCH  29  30
ENDBRANCH  24  29
ENDBRANCH   4  19
TORSDOF 6
ENDMDL
MODEL 9
REMARK VINA RESULT:      -8.9      2.888      9.058
REMARK  Name = 
REMARK  6 active torsions:
REMARK  status: ('A' for Active; 'I' for Inactive)
REMARK    1  A    between atoms: C_2  and  C_3
REMARK    2  A    between atoms: C_9  and  C_10
REMARK    3  A    between atoms: C_13  and  C_14
REMARK    4  A    between atoms: C_17  and  C_18
REMARK    5  A    between atoms: C_23  and  O_24
REMARK    6  A    between atoms: O_24  and  C_25
REMARK                            x       y       z     vdW  Elec       q    Type
REMARK                         _______ _______ _______ _____ _____    ______ ____
ROOT
ATOM      1  C   UNL     1       1.217  10.289  19.035  0.00  0.00    +0.000 A 
ATOM      2  C   UNL     1       1.777   9.687  17.891  0.00  0.00    +0.000 A 
ATOM      3  C   UNL     1       2.231   8.351  17.894  0.00  0.00    +0.000 A 
ATOM      4  C   UNL     1       2.140   7.552  19.040  0.00  0.00    +0.000 A 
ATOM      5  C   UNL     1       1.581   8.162  20.178  0.00  0.00    +0.000 A 
ATOM      6  C   UNL     1       1.123   9.481  20.166  0.00  0.00    +0.000 A 
ATOM      7  F   UNL     1       0.522   9.931  21.277  0.00  0.00    +0.000 F 
ENDROOT
BRANCH   1  14
ATOM      8  C   UNL     1      -0.617  12.045  18.586  0.00  0.00    +0.000 A 
ATOM      9  N   UNL     1      -1.009  13.354  18.499  0.00  0.00    +0.000 NA
ATOM     10  C   UNL     1      -0.098  14.279  18.829  0.00  0.00    +0.000 A 
ATOM     11  N   UNL     1      -0.463  15.609  18.654  0.00  0.00    +0.000 N 
ATOM     12  C   UNL     1       1.167  13.908  19.260  0.00  0.00    +0.000 A 
ATOM     13  N   UNL     1       1.569  12.618  19.361  0.00  0.00    +0.000 NA
ATOM     14  C   UNL     1       0.668  11.661  18.990  0.00  0.00    +0.000 A 
ATOM     15  H   UNL     1      -1.438  15.639  18.368  0.00  0.00    +0.000 HD
ATOM     16  H   UNL     1      -0.291  16.181  19.475  0.00  0.00    +0.000 HD
BRANCH   8  18
ATOM     17  N   UNL     1      -2.527  10.367  18.043  0.00  0.00    +0.000 NA
ATOM     18  C   UNL     1      -1.673  11.116  18.294  0.00  0.00    +0.000 C 
ENDBRANCH   8  18
ENDBRANCH   1  14
BRANCH   4  19
ATOM     19  C   UNL     1       2.579   6.128  19.099  0.00  0.00    +0.000 A 
ATOM     20  C   UNL     1       1.741   5.202  19.771  0.00  0.00    +0.000 A 
ATOM     21  C   UNL     1       1.987   3.826  19.772  0.00  0.00    +0.000 A 
ATOM     22  C   UNL     1       3.088   3.312  19.094  0.00  0.00    +0.000 A 
ATOM     23  C   UNL     1       3.945   4.207  18.441  0.00  0.00    +0.000 A 
ATOM     24  C   UNL     1       3.736   5.601  18.477  0.00  0.00    +0.000 A 
BRANCH  22  25
ATOM     25  C   UNL     1       3.384   1.837  19.065  0.00  0.00    +0.000 C 
ATOM     26  F   UNL     1       3.733   1.376  17.832  0.00  0.00    +0.000 F 
ATOM     27  F   UNL     1       4.406   1.494  19.895  0.00  0.00    +0.000 F 
ATOM     28  F   UNL     1       2.317   1.084  19.455  0.00  0.00    +0.000 F 
ENDBRANCH  22  25
BRANCH  24  29
ATOM     29  O   UNL     1       4.605   6.450  17.814  0.00  0.00    +0.000 OA
BRANCH  29  30
ATOM     30  C   UNL     1       5.496   5.892  16.895  0.00  0.00    +0.000 A 
ATOM     31  N   UNL     1       5.070   5.869  15.621  0.00  0.00    +0.000 NA
ATOM     32  C   UNL     1       5.897   5.286  14.728  0.00  0.00    +0.000 A 
ATOM     33  C   UNL     1       7.112   4.733  15.059  0.00  0.00    +0.000 A 
ATOM     34  C   UNL     1       7.456   4.823  16.386  0.00  0.00    +0.000 A 
ATOM     35  N   UNL     1       6.680   5.406  17.319  0.00  0.00    +0.000 NA
ENDBRANCH  29  30
ENDBRANCH  24  29
ENDBRANCH   4  19
TORSDOF 6
ENDMDL
