MODEL 1
REMARK VINA RESULT:      -8.3      0.000      0.000
REMARK  Name = 
REMARK  12 active torsions:
REMARK  status: ('A' for Active; 'I' for Inactive)
REMARK    1  A    between atoms: C_1  and  C_2
REMARK    2  A    between atoms: C_2  and  C_3
REMARK    3  A    between atoms: C_3  and  C_4
REMARK    4  A    between atoms: C_4  and  N_5
REMARK    5  A    between atoms: C_10  and  O_11
REMARK    6  A    between atoms: O_11  and  C_12
REMARK    7  A    between atoms: C_18  and  C_19
REMARK    8  A    between atoms: C_19  and  O_20
REMARK    9  A    between atoms: C_19  and  C_21
REMARK   10  A    between atoms: C_19  and  C_25
REMARK   11  A    between atoms: C_29  and  O_30
REMARK   12  A    between atoms: O_30  and  C_31
REMARK                            x       y       z     vdW  Elec       q    Type
REMARK                         _______ _______ _______ _____ _____    ______ ____
ROOT
ATOM      1  N   UNL     1       2.908   5.066  20.178  0.00  0.00    +0.000 N 
ATOM      2  C   UNL     1       3.883   4.432  19.387  0.00  0.00    +0.000 A 
ATOM      3  O   UNL     1       4.352   3.327  19.656  0.00  0.00    +0.000 OA
ATOM      4  C   UNL     1       4.378   5.129  18.169  0.00  0.00    +0.000 A 
ATOM      5  C   UNL     1       5.374   4.518  17.386  0.00  0.00    +0.000 A 
ATOM      6  C   UNL     1       5.866   5.144  16.235  0.00  0.00    +0.000 A 
ATOM      7  C   UNL     1       5.369   6.379  15.874  0.00  0.00    +0.000 A 
ATOM      8  C   UNL     1       4.380   6.991  16.654  0.00  0.00    +0.000 A 
ATOM      9  C   UNL     1       3.858   6.375  17.817  0.00  0.00    +0.000 A 
ATOM     10  C   UNL     1       2.823   6.999  18.667  0.00  0.00    +0.000 A 
ATOM     11  C   UNL     1       2.250   8.244  18.332  0.00  0.00    +0.000 A 
ATOM     12  C   UNL     1       1.313   8.925  19.123  0.00  0.00    +0.000 A 
ATOM     13  C   UNL     1       0.925   8.279  20.317  0.00  0.00    +0.000 A 
ATOM     14  C   UNL     1       1.493   7.044  20.674  0.00  0.00    +0.000 A 
ATOM     15  C   UNL     1       2.407   6.369  19.854  0.00  0.00    +0.000 A 
ENDROOT
BRANCH   6  16
ATOM     16  O   UNL     1       6.831   4.444  15.559  0.00  0.00    +0.000 OA
ATOM     17  C   UNL     1       6.502   4.022  14.235  0.00  0.00    +0.000 C 
ENDBRANCH   6  16
BRANCH  13  18
ATOM     18  O   UNL     1      -0.009   8.920  21.092  0.00  0.00    +0.000 OA
ATOM     19  C   UNL     1       0.163   8.912  22.507  0.00  0.00    +0.000 C 
ENDBRANCH  13  18
BRANCH   1  20
ATOM     20  C   UNL     1       2.451   4.353  21.380  0.00  0.00    +0.000 C 
BRANCH  20  21
ATOM     21  C   UNL     1       1.450   3.209  21.149  0.00  0.00    +0.000 C 
BRANCH  21  23
ATOM     22  C   UNL     1       0.964   2.307  18.869  0.00  0.00    +0.000 C 
ATOM     23  C   UNL     1       0.580   3.360  19.903  0.00  0.00    +0.000 C 
ENDBRANCH  21  23
ENDBRANCH  20  21
ENDBRANCH   1  20
BRANCH  12  24
ATOM     24  C   UNL     1       0.799  10.340  18.757  0.00  0.00    +0.000 C 
BRANCH  24  25
ATOM     25  C   UNL     1      -0.683  10.562  18.282  0.00  0.00    +0.000 C 
ATOM     26  F   UNL     1      -1.616  10.165  19.181  0.00  0.00    +0.000 F 
ATOM     27  F   UNL     1      -1.038  11.807  17.924  0.00  0.00    +0.000 F 
ATOM     28  F   UNL     1      -0.931   9.769  17.198  0.00  0.00    +0.000 F 
ENDBRANCH  24  25
BRANCH  24  29
ATOM     29  C   UNL     1       1.078  11.382  19.885  0.00  0.00    +0.000 C 
ATOM     30  F   UNL     1       1.998  10.962  20.792  0.00  0.00    +0.000 F 
ATOM     31  F   UNL     1       1.540  12.555  19.381  0.00  0.00    +0.000 F 
ATOM     32  F   UNL     1       0.001  11.702  20.638  0.00  0.00    +0.000 F 
ENDBRANCH  24  29
BRANCH  24  33
ATOM     33  O   UNL     1       1.644  10.647  17.571  0.00  0.00    +0.000 OA
ATOM     34  H   UNL     1       2.442  10.088  17.617  0.00  0.00    +0.000 HD
ENDBRANCH  24  33
ENDBRANCH  12  24
TORSDOF 9
ENDMDL
MODEL 2
REMARK VINA RESULT:      -7.7      0.581      1.012
REMARK  Name = 
REMARK  12 active torsions:
REMARK  status: ('A' for Active; 'I' for Inactive)
REMARK    1  A    between atoms: C_1  and  C_2
REMARK    2  A    between atoms: C_2  and  C_3
REMARK    3  A    between atoms: C_3  and  C_4
REMARK    4  A    between atoms: C_4  and  N_5
REMARK    5  A    between atoms: C_10  and  O_11
REMARK    6  A    between atoms: O_11  and  C_12
REMARK    7  A    between atoms: C_18  and  C_19
REMARK    8  A    between atoms: C_19  and  O_20
REMARK    9  A    between atoms: C_19  and  C_21
REMARK   10  A    between atoms: C_19  and  C_25
REMARK   11  A    between atoms: C_29  and  O_30
REMARK   12  A    between atoms: O_30  and  C_31
REMARK                            x       y       z     vdW  Elec       q    Type
REMARK                         _______ _______ _______ _____ _____    ______ ____
ROOT
ATOM      1  N   UNL     1       2.905   5.292  20.200  0.00  0.00    +0.000 N 
ATOM      2  C   UNL     1       3.869   4.689  19.373  0.00  0.00    +0.000 A 
ATOM      3  O   UNL     1       4.385   3.601  19.624  0.00  0.00    +0.000 OA
ATOM      4  C   UNL     1       4.293   5.401  18.137  0.00  0.00    +0.000 A 
ATOM      5  C   UNL     1       5.278   4.822  17.316  0.00  0.00    +0.000 A 
ATOM      6  C   UNL     1       5.704   5.463  16.147  0.00  0.00    +0.000 A 
ATOM      7  C   UNL     1       5.153   6.680  15.805  0.00  0.00    +0.000 A 
ATOM      8  C   UNL     1       4.174   7.260  16.623  0.00  0.00    +0.000 A 
ATOM      9  C   UNL     1       3.718   6.629  17.805  0.00  0.00    +0.000 A 
ATOM     10  C   UNL     1       2.697   7.219  18.694  0.00  0.00    +0.000 A 
ATOM     11  C   UNL     1       2.070   8.444  18.382  0.00  0.00    +0.000 A 
ATOM     12  C   UNL     1       1.143   9.093  19.208  0.00  0.00    +0.000 A 
ATOM     13  C   UNL     1       0.822   8.436  20.417  0.00  0.00    +0.000 A 
ATOM     14  C   UNL     1       1.445   7.222  20.751  0.00  0.00    +0.000 A 
ATOM     15  C   UNL     1       2.348   6.576  19.897  0.00  0.00    +0.000 A 
ENDROOT
BRANCH   6  16
ATOM     16  O   UNL     1       6.665   4.795  15.433  0.00  0.00    +0.000 OA
ATOM     17  C   UNL     1       6.210   4.008  14.332  0.00  0.00    +0.000 C 
ENDBRANCH   6  16
BRANCH  13  18
ATOM     18  O   UNL     1      -0.102   9.047  21.227  0.00  0.00    +0.000 OA
ATOM     19  C   UNL     1       0.195   9.179  22.615  0.00  0.00    +0.000 C 
ENDBRANCH  13  18
BRANCH   1  20
ATOM     20  C   UNL     1       2.519   4.565  21.419  0.00  0.00    +0.000 C 
BRANCH  20  21
ATOM     21  C   UNL     1       1.599   3.348  21.220  0.00  0.00    +0.000 C 
BRANCH  21  23
ATOM     22  C   UNL     1       1.019   2.357  19.001  0.00  0.00    +0.000 C 
ATOM     23  C   UNL     1       0.667   3.440  20.015  0.00  0.00    +0.000 C 
ENDBRANCH  21  23
ENDBRANCH  20  21
ENDBRANCH   1  20
BRANCH  12  24
ATOM     24  C   UNL     1       0.567  10.490  18.862  0.00  0.00    +0.000 C 
BRANCH  24  25
ATOM     25  C   UNL     1      -0.956  10.811  19.077  0.00  0.00    +0.000 C 
ATOM     26  F   UNL     1      -1.767   9.729  18.988  0.00  0.00    +0.000 F 
ATOM     27  F   UNL     1      -1.303  11.425  20.220  0.00  0.00    +0.000 F 
ATOM     28  F   UNL     1      -1.393  11.617  18.065  0.00  0.00    +0.000 F 
ENDBRANCH  24  25
BRANCH  24  29
ATOM     29  C   UNL     1       1.377  11.646  19.530  0.00  0.00    +0.000 C 
ATOM     30  F   UNL     1       0.835  12.874  19.321  0.00  0.00    +0.000 F 
ATOM     31  F   UNL     1       1.463  11.486  20.875  0.00  0.00    +0.000 F 
ATOM     32  F   UNL     1       2.649  11.772  19.091  0.00  0.00    +0.000 F 
ENDBRANCH  24  29
BRANCH  24  33
ATOM     33  O   UNL     1       0.773  10.521  17.388  0.00  0.00    +0.000 OA
ATOM     34  H   UNL     1       0.438   9.682  17.021  0.00  0.00    +0.000 HD
ENDBRANCH  24  33
ENDBRANCH  12  24
TORSDOF 9
ENDMDL
MODEL 3
REMARK VINA RESULT:      -7.7      0.902      1.810
REMARK  Name = 
REMARK  12 active torsions:
REMARK  status: ('A' for Active; 'I' for Inactive)
REMARK    1  A    between atoms: C_1  and  C_2
REMARK    2  A    between atoms: C_2  and  C_3
REMARK    3  A    between atoms: C_3  and  C_4
REMARK    4  A    between atoms: C_4  and  N_5
REMARK    5  A    between atoms: C_10  and  O_11
REMARK    6  A    between atoms: O_11  and  C_12
REMARK    7  A    between atoms: C_18  and  C_19
REMARK    8  A    between atoms: C_19  and  O_20
REMARK    9  A    between atoms: C_19  and  C_21
REMARK   10  A    between atoms: C_19  and  C_25
REMARK   11  A    between atoms: C_29  and  O_30
REMARK   12  A    between atoms: O_30  and  C_31
REMARK                            x       y       z     vdW  Elec       q    Type
REMARK                         _______ _______ _______ _____ _____    ______ ____
ROOT
ATOM      1  N   UNL     1       2.804   5.153  20.212  0.00  0.00    +0.000 N 
ATOM      2  C   UNL     1       3.739   4.563  19.343  0.00  0.00    +0.000 A 
ATOM      3  O   UNL     1       4.203   3.437  19.519  0.00  0.00    +0.000 OA
ATOM      4  C   UNL     1       4.197   5.335  18.156  0.00  0.00    +0.000 A 
ATOM      5  C   UNL     1       5.154   4.767  17.296  0.00  0.00    +0.000 A 
ATOM      6  C   UNL     1       5.610   5.464  16.171  0.00  0.00    +0.000 A 
ATOM      7  C   UNL     1       5.118   6.726  15.913  0.00  0.00    +0.000 A 
ATOM      8  C   UNL     1       4.168   7.295  16.771  0.00  0.00    +0.000 A 
ATOM      9  C   UNL     1       3.681   6.608  17.909  0.00  0.00    +0.000 A 
ATOM     10  C   UNL     1       2.689   7.185  18.839  0.00  0.00    +0.000 A 
ATOM     11  C   UNL     1       2.121   8.456  18.611  0.00  0.00    +0.000 A 
ATOM     12  C   UNL     1       1.225   9.092  19.481  0.00  0.00    +0.000 A 
ATOM     13  C   UNL     1       0.872   8.371  20.644  0.00  0.00    +0.000 A 
ATOM     14  C   UNL     1       1.437   7.109  20.895  0.00  0.00    +0.000 A 
ATOM     15  C   UNL     1       2.309   6.480  19.996  0.00  0.00    +0.000 A 
ENDROOT
BRANCH   6  16
ATOM     16  O   UNL     1       6.540   4.800  15.412  0.00  0.00    +0.000 OA
ATOM     17  C   UNL     1       6.037   4.020  14.327  0.00  0.00    +0.000 C 
ENDBRANCH   6  16
BRANCH  13  18
ATOM     18  O   UNL     1      -0.022   8.969  21.496  0.00  0.00    +0.000 OA
ATOM     19  C   UNL     1       0.322   9.075  22.875  0.00  0.00    +0.000 C 
ENDBRANCH  13  18
BRANCH   1  20
ATOM     20  C   UNL     1       2.383   4.365  21.380  0.00  0.00    +0.000 C 
BRANCH  20  21
ATOM     21  C   UNL     1       1.369   3.242  21.109  0.00  0.00    +0.000 C 
BRANCH  21  23
ATOM     22  C   UNL     1       0.895   2.352  18.822  0.00  0.00    +0.000 C 
ATOM     23  C   UNL     1       0.533   3.424  19.845  0.00  0.00    +0.000 C 
ENDBRANCH  21  23
ENDBRANCH  20  21
ENDBRANCH   1  20
BRANCH  12  24
ATOM     24  C   UNL     1       0.716  10.534  19.231  0.00  0.00    +0.000 C 
BRANCH  24  25
ATOM     25  C   UNL     1       1.642  11.610  18.557  0.00  0.00    +0.000 C 
ATOM     26  F   UNL     1       0.967  12.587  17.902  0.00  0.00    +0.000 F 
ATOM     27  F   UNL     1       2.522  12.251  19.344  0.00  0.00    +0.000 F 
ATOM     28  F   UNL     1       2.376  11.017  17.570  0.00  0.00    +0.000 F 
ENDBRANCH  24  25
BRANCH  24  29
ATOM     29  C   UNL     1      -0.645  10.559  18.467  0.00  0.00    +0.000 C 
ATOM     30  F   UNL     1      -1.621   9.841  19.081  0.00  0.00    +0.000 F 
ATOM     31  F   UNL     1      -1.122  11.823  18.333  0.00  0.00    +0.000 F 
ATOM     32  F   UNL     1      -0.600  10.046  17.217  0.00  0.00    +0.000 F 
ENDBRANCH  24  29
BRANCH  24  33
ATOM     33  O   UNL     1       0.515  11.007  20.628  0.00  0.00    +0.000 OA
ATOM     34  H   UNL     1       0.033  10.312  21.114  0.00  0.00    +0.000 HD
ENDBRANCH  24  33
ENDBRANCH  12  24
TORSDOF 9
ENDMDL
MODEL 4
REMARK VINA RESULT:      -7.3      0.962      1.873
REMARK  Name = 
REMARK  12 active torsions:
REMARK  status: ('A' for Active; 'I' for Inactive)
REMARK    1  A    between atoms: C_1  and  C_2
REMARK    2  A    between atoms: C_2  and  C_3
REMARK    3  A    between atoms: C_3  and  C_4
REMARK    4  A    between atoms: C_4  and  N_5
REMARK    5  A    between atoms: C_10  and  O_11
REMARK    6  A    between atoms: O_11  and  C_12
REMARK    7  A    between atoms: C_18  and  C_19
REMARK    8  A    between atoms: C_19  and  O_20
REMARK    9  A    between atoms: C_19  and  C_21
REMARK   10  A    between atoms: C_19  and  C_25
REMARK   11  A    between atoms: C_29  and  O_30
REMARK   12  A    between atoms: O_30  and  C_31
REMARK                            x       y       z     vdW  Elec       q    Type
REMARK                         _______ _______ _______ _____ _____    ______ ____
ROOT
ATOM      1  N   UNL     1       2.789   4.913  20.396  0.00  0.00    +0.000 N 
ATOM      2  C   UNL     1       3.755   4.406  19.510  0.00  0.00    +0.000 A 
ATOM      3  O   UNL     1       4.262   3.292  19.632  0.00  0.00    +0.000 OA
ATOM      4  C   UNL     1       4.194   5.257  18.370  0.00  0.00    +0.000 A 
ATOM      5  C   UNL     1       5.181   4.773  17.493  0.00  0.00    +0.000 A 
ATOM      6  C   UNL     1       5.620   5.545  16.411  0.00  0.00    +0.000 A 
ATOM      7  C   UNL     1       5.081   6.798  16.213  0.00  0.00    +0.000 A 
ATOM      8  C   UNL     1       4.100   7.285  17.088  0.00  0.00    +0.000 A 
ATOM      9  C   UNL     1       3.630   6.520  18.183  0.00  0.00    +0.000 A 
ATOM     10  C   UNL     1       2.607   7.008  19.129  0.00  0.00    +0.000 A 
ATOM     11  C   UNL     1       1.990   8.266  18.961  0.00  0.00    +0.000 A 
ATOM     12  C   UNL     1       1.061   8.820  19.853  0.00  0.00    +0.000 A 
ATOM     13  C   UNL     1       0.727   8.026  20.972  0.00  0.00    +0.000 A 
ATOM     14  C   UNL     1       1.339   6.776  21.164  0.00  0.00    +0.000 A 
ATOM     15  C   UNL     1       2.244   6.229  20.244  0.00  0.00    +0.000 A 
ENDROOT
BRANCH   6  16
ATOM     16  O   UNL     1       6.583   4.959  15.630  0.00  0.00    +0.000 OA
ATOM     17  C   UNL     1       6.139   3.953  14.719  0.00  0.00    +0.000 C 
ENDBRANCH   6  16
BRANCH  13  18
ATOM     18  O   UNL     1      -0.200   8.543  21.843  0.00  0.00    +0.000 OA
ATOM     19  C   UNL     1       0.248   8.996  23.118  0.00  0.00    +0.000 C 
ENDBRANCH  13  18
BRANCH   1  20
ATOM     20  C   UNL     1       2.389   4.050  21.517  0.00  0.00    +0.000 C 
BRANCH  20  21
ATOM     21  C   UNL     1       1.333   2.976  21.202  0.00  0.00    +0.000 C 
BRANCH  21  23
ATOM     22  C   UNL     1       0.941   2.193  18.861  0.00  0.00    +0.000 C 
ATOM     23  C   UNL     1       0.540   3.215  19.920  0.00  0.00    +0.000 C 
ENDBRANCH  21  23
ENDBRANCH  20  21
ENDBRANCH   1  20
BRANCH  12  24
ATOM     24  C   UNL     1       0.498  10.252  19.672  0.00  0.00    +0.000 C 
BRANCH  24  25
ATOM     25  C   UNL     1       1.026  11.443  20.550  0.00  0.00    +0.000 C 
ATOM     26  F   UNL     1       1.929  11.077  21.492  0.00  0.00    +0.000 F 
ATOM     27  F   UNL     1       1.580  12.486  19.911  0.00  0.00    +0.000 F 
ATOM     28  F   UNL     1      -0.007  11.953  21.284  0.00  0.00    +0.000 F 
ENDBRANCH  24  25
BRANCH  24  29
ATOM     29  C   UNL     1       0.547  10.725  18.184  0.00  0.00    +0.000 C 
ATOM     30  F   UNL     1       1.810  10.843  17.698  0.00  0.00    +0.000 F 
ATOM     31  F   UNL     1      -0.104   9.862  17.363  0.00  0.00    +0.000 F 
ATOM     32  F   UNL     1      -0.005  11.938  17.959  0.00  0.00    +0.000 F 
ENDBRANCH  24  29
BRANCH  24  33
ATOM     33  O   UNL     1      -0.917  10.052  20.088  0.00  0.00    +0.000 OA
ATOM     34  H   UNL     1      -1.467  10.691  19.598  0.00  0.00    +0.000 HD
ENDBRANCH  24  33
ENDBRANCH  12  24
TORSDOF 9
ENDMDL
MODEL 5
REMARK VINA RESULT:      -7.0      0.761      1.104
REMARK  Name = 
REMARK  12 active torsions:
REMARK  status: ('A' for Active; 'I' for Inactive)
REMARK    1  A    between atoms: C_1  and  C_2
REMARK    2  A    between atoms: C_2  and  C_3
REMARK    3  A    between atoms: C_3  and  C_4
REMARK    4  A    between atoms: C_4  and  N_5
REMARK    5  A    between atoms: C_10  and  O_11
REMARK    6  A    between atoms: O_11  and  C_12
REMARK    7  A    between atoms: C_18  and  C_19
REMARK    8  A    between atoms: C_19  and  O_20
REMARK    9  A    between atoms: C_19  and  C_21
REMARK   10  A    between atoms: C_19  and  C_25
REMARK   11  A    between atoms: C_29  and  O_30
REMARK   12  A    between atoms: O_30  and  C_31
REMARK                            x       y       z     vdW  Elec       q    Type
REMARK                         _______ _______ _______ _____ _____    ______ ____
ROOT
ATOM      1  N   UNL     1       2.722   5.552  19.975  0.00  0.00    +0.000 N 
ATOM      2  C   UNL     1       3.659   4.943  19.122  0.00  0.00    +0.000 A 
ATOM      3  O   UNL     1       4.106   3.812  19.311  0.00  0.00    +0.000 OA
ATOM      4  C   UNL     1       4.140   5.700  17.934  0.00  0.00    +0.000 A 
ATOM      5  C   UNL     1       5.099   5.113  17.089  0.00  0.00    +0.000 A 
ATOM      6  C   UNL     1       5.577   5.795  15.964  0.00  0.00    +0.000 A 
ATOM      7  C   UNL     1       5.104   7.061  15.691  0.00  0.00    +0.000 A 
ATOM      8  C   UNL     1       4.152   7.650  16.534  0.00  0.00    +0.000 A 
ATOM      9  C   UNL     1       3.644   6.978  17.671  0.00  0.00    +0.000 A 
ATOM     10  C   UNL     1       2.649   7.574  18.586  0.00  0.00    +0.000 A 
ATOM     11  C   UNL     1       2.099   8.851  18.342  0.00  0.00    +0.000 A 
ATOM     12  C   UNL     1       1.202   9.505  19.197  0.00  0.00    +0.000 A 
ATOM     13  C   UNL     1       0.828   8.797  20.361  0.00  0.00    +0.000 A 
ATOM     14  C   UNL     1       1.373   7.530  20.628  0.00  0.00    +0.000 A 
ATOM     15  C   UNL     1       2.247   6.883  19.744  0.00  0.00    +0.000 A 
ENDROOT
BRANCH   6  16
ATOM     16  O   UNL     1       6.506   5.114  15.221  0.00  0.00    +0.000 OA
ATOM     17  C   UNL     1       6.184   3.766  14.879  0.00  0.00    +0.000 C 
ENDBRANCH   6  16
BRANCH  13  18
ATOM     18  O   UNL     1      -0.069   9.414  21.198  0.00  0.00    +0.000 OA
ATOM     19  C   UNL     1       0.089   9.242  22.604  0.00  0.00    +0.000 C 
ENDBRANCH  13  18
BRANCH   1  20
ATOM     20  C   UNL     1       2.278   4.779  21.145  0.00  0.00    +0.000 C 
BRANCH  20  21
ATOM     21  C   UNL     1       1.061   3.863  20.929  0.00  0.00    +0.000 C 
BRANCH  21  23
ATOM     22  C   UNL     1       2.692   2.139  21.714  0.00  0.00    +0.000 C 
ATOM     23  C   UNL     1       1.363   2.369  21.002  0.00  0.00    +0.000 C 
ENDBRANCH  21  23
ENDBRANCH  20  21
ENDBRANCH   1  20
BRANCH  12  24
ATOM     24  C   UNL     1       0.715  10.952  18.931  0.00  0.00    +0.000 C 
BRANCH  24  25
ATOM     25  C   UNL     1      -0.766  11.236  18.487  0.00  0.00    +0.000 C 
ATOM     26  F   UNL     1      -1.690  10.964  19.441  0.00  0.00    +0.000 F 
ATOM     27  F   UNL     1      -1.055  12.474  18.053  0.00  0.00    +0.000 F 
ATOM     28  F   UNL     1      -1.101  10.388  17.471  0.00  0.00    +0.000 F 
ENDBRANCH  24  25
BRANCH  24  29
ATOM     29  C   UNL     1       1.027  11.911  20.122  0.00  0.00    +0.000 C 
ATOM     30  F   UNL     1      -0.041  12.131  20.931  0.00  0.00    +0.000 F 
ATOM     31  F   UNL     1       2.016  11.422  20.914  0.00  0.00    +0.000 F 
ATOM     32  F   UNL     1       1.424  13.152  19.760  0.00  0.00    +0.000 F 
ENDBRANCH  24  29
BRANCH  24  33
ATOM     33  O   UNL     1       1.555  11.319  17.758  0.00  0.00    +0.000 OA
ATOM     34  H   UNL     1       2.453  11.520  18.083  0.00  0.00    +0.000 HD
ENDBRANCH  24  33
ENDBRANCH  12  24
TORSDOF 9
ENDMDL
MODEL 6
REMARK VINA RESULT:      -6.9      4.081      7.157
REMARK  Name = 
REMARK  12 active torsions:
REMARK  status: ('A' for Active; 'I' for Inactive)
REMARK    1  A    between atoms: C_1  and  C_2
REMARK    2  A    between atoms: C_2  and  C_3
REMARK    3  A    between atoms: C_3  and  C_4
REMARK    4  A    between atoms: C_4  and  N_5
REMARK    5  A    between atoms: C_10  and  O_11
REMARK    6  A    between atoms: O_11  and  C_12
REMARK    7  A    between atoms: C_18  and  C_19
REMARK    8  A    between atoms: C_19  and  O_20
REMARK    9  A    between atoms: C_19  and  C_21
REMARK   10  A    between atoms: C_19  and  C_25
REMARK   11  A    between atoms: C_29  and  O_30
REMARK   12  A    between atoms: O_30  and  C_31
REMARK                            x       y       z     vdW  Elec       q    Type
REMARK                         _______ _______ _______ _____ _____    ______ ____
ROOT
ATOM      1  N   UNL     1       1.876   6.231  20.284  0.00  0.00    +0.000 N 
ATOM      2  C   UNL     1       1.216   7.455  20.496  0.00  0.00    +0.000 A 
ATOM      3  O   UNL     1       0.416   7.637  21.413  0.00  0.00    +0.000 OA
ATOM      4  C   UNL     1       1.492   8.584  19.567  0.00  0.00    +0.000 A 
ATOM      5  C   UNL     1       0.816   9.804  19.751  0.00  0.00    +0.000 A 
ATOM      6  C   UNL     1       1.047  10.888  18.896  0.00  0.00    +0.000 A 
ATOM      7  C   UNL     1       1.944  10.749  17.858  0.00  0.00    +0.000 A 
ATOM      8  C   UNL     1       2.615   9.534  17.670  0.00  0.00    +0.000 A 
ATOM      9  C   UNL     1       2.408   8.426  18.526  0.00  0.00    +0.000 A 
ATOM     10  C   UNL     1       3.090   7.128  18.349  0.00  0.00    +0.000 A 
ATOM     11  C   UNL     1       4.045   6.933  17.327  0.00  0.00    +0.000 A 
ATOM     12  C   UNL     1       4.683   5.714  17.060  0.00  0.00    +0.000 A 
ATOM     13  C   UNL     1       4.339   4.636  17.905  0.00  0.00    +0.000 A 
ATOM     14  C   UNL     1       3.382   4.806  18.919  0.00  0.00    +0.000 A 
ATOM     15  C   UNL     1       2.777   6.042  19.187  0.00  0.00    +0.000 A 
ENDROOT
BRANCH   6  16
ATOM     16  O   UNL     1       0.330  12.020  19.184  0.00  0.00    +0.000 OA
ATOM     17  C   UNL     1      -0.907  12.184  18.488  0.00  0.00    +0.000 C 
ENDBRANCH   6  16
BRANCH  13  18
ATOM     18  O   UNL     1       4.972   3.440  17.671  0.00  0.00    +0.000 OA
ATOM     19  C   UNL     1       4.255   2.234  17.921  0.00  0.00    +0.000 C 
ENDBRANCH  13  18
BRANCH   1  20
ATOM     20  C   UNL     1       1.571   5.134  21.215  0.00  0.00    +0.000 C 
BRANCH  20  21
ATOM     21  C   UNL     1       0.817   3.932  20.621  0.00  0.00    +0.000 C 
BRANCH  21  23
ATOM     22  C   UNL     1       2.722   2.654  21.612  0.00  0.00    +0.000 C 
ATOM     23  C   UNL     1       1.276   2.570  21.135  0.00  0.00    +0.000 C 
ENDBRANCH  21  23
ENDBRANCH  20  21
ENDBRANCH   1  20
BRANCH  12  24
ATOM     24  C   UNL     1       5.642   5.533  15.857  0.00  0.00    +0.000 C 
BRANCH  24  25
ATOM     25  C   UNL     1       7.197   5.439  16.071  0.00  0.00    +0.000 C 
ATOM     26  F   UNL     1       7.748   6.552  16.614  0.00  0.00    +0.000 F 
ATOM     27  F   UNL     1       7.658   4.416  16.809  0.00  0.00    +0.000 F 
ATOM     28  F   UNL     1       7.813   5.340  14.856  0.00  0.00    +0.000 F 
ENDBRANCH  24  25
BRANCH  24  29
ATOM     29  C   UNL     1       5.233   4.331  14.947  0.00  0.00    +0.000 C 
ATOM     30  F   UNL     1       5.977   3.216  15.162  0.00  0.00    +0.000 F 
ATOM     31  F   UNL     1       3.937   3.975  15.142  0.00  0.00    +0.000 F 
ATOM     32  F   UNL     1       5.359   4.558  13.621  0.00  0.00    +0.000 F 
ENDBRANCH  24  29
BRANCH  24  33
ATOM     33  O   UNL     1       5.422   6.811  15.127  0.00  0.00    +0.000 OA
ATOM     34  H   UNL     1       6.067   7.463  15.460  0.00  0.00    +0.000 HD
ENDBRANCH  24  33
ENDBRANCH  12  24
TORSDOF 9
ENDMDL
MODEL 7
REMARK VINA RESULT:      -6.8      3.763      8.314
REMARK  Name = 
REMARK  12 active torsions:
REMARK  status: ('A' for Active; 'I' for Inactive)
REMARK    1  A    between atoms: C_1  and  C_2
REMARK    2  A    between atoms: C_2  and  C_3
REMARK    3  A    between atoms: C_3  and  C_4
REMARK    4  A    between atoms: C_4  and  N_5
REMARK    5  A    between atoms: C_10  and  O_11
REMARK    6  A    between atoms: O_11  and  C_12
REMARK    7  A    between atoms: C_18  and  C_19
REMARK    8  A    between atoms: C_19  and  O_20
REMARK    9  A    between atoms: C_19  and  C_21
REMARK   10  A    between atoms: C_19  and  C_25
REMARK   11  A    between atoms: C_29  and  O_30
REMARK   12  A    between atoms: O_30  and  C_31
REMARK                            x       y       z     vdW  Elec       q    Type
REMARK                         _______ _______ _______ _____ _____    ______ ____
ROOT
ATOM      1  N   UNL     1       1.646  10.749  18.789  0.00  0.00    +0.000 N 
ATOM      2  C   UNL     1       0.881  11.459  19.731  0.00  0.00    +0.000 A 
ATOM      3  O   UNL     1       0.670  12.669  19.651  0.00  0.00    +0.000 OA
ATOM      4  C   UNL     1       0.300  10.718  20.884  0.00  0.00    +0.000 A 
ATOM      5  C   UNL     1      -0.443  11.423  21.848  0.00  0.00    +0.000 A 
ATOM      6  C   UNL     1      -1.003  10.761  22.946  0.00  0.00    +0.000 A 
ATOM      7  C   UNL     1      -0.812   9.403  23.084  0.00  0.00    +0.000 A 
ATOM      8  C   UNL     1      -0.069   8.699  22.128  0.00  0.00    +0.000 A 
ATOM      9  C   UNL     1       0.499   9.342  21.002  0.00  0.00    +0.000 A 
ATOM     10  C   UNL     1       1.297   8.632  19.982  0.00  0.00    +0.000 A 
ATOM     11  C   UNL     1       1.498   7.236  20.047  0.00  0.00    +0.000 A 
ATOM     12  C   UNL     1       2.295   6.507  19.153  0.00  0.00    +0.000 A 
ATOM     13  C   UNL     1       2.903   7.250  18.117  0.00  0.00    +0.000 A 
ATOM     14  C   UNL     1       2.725   8.642  18.043  0.00  0.00    +0.000 A 
ATOM     15  C   UNL     1       1.901   9.346  18.931  0.00  0.00    +0.000 A 
ENDROOT
BRANCH   6  16
ATOM     16  O   UNL     1      -1.706  11.559  23.811  0.00  0.00    +0.000 OA
ATOM     17  C   UNL     1      -2.795  12.297  23.255  0.00  0.00    +0.000 C 
ENDBRANCH   6  16
BRANCH  13  18
ATOM     18  O   UNL     1       3.668   6.548  17.220  0.00  0.00    +0.000 OA
ATOM     19  C   UNL     1       4.978   7.026  16.926  0.00  0.00    +0.000 C 
ENDBRANCH  13  18
BRANCH   1  20
ATOM     20  C   UNL     1       2.214  11.515  17.670  0.00  0.00    +0.000 C 
BRANCH  20  21
ATOM     21  C   UNL     1       3.239  12.599  18.043  0.00  0.00    +0.000 C 
BRANCH  21  23
ATOM     22  C   UNL     1       3.971  14.978  17.807  0.00  0.00    +0.000 C 
ATOM     23  C   UNL     1       2.774  14.033  17.801  0.00  0.00    +0.000 C 
ENDBRANCH  21  23
ENDBRANCH  20  21
ENDBRANCH   1  20
BRANCH  12  24
ATOM     24  C   UNL     1       2.565   4.993  19.338  0.00  0.00    +0.000 C 
BRANCH  24  25
ATOM     25  C   UNL     1       2.090   4.240  20.633  0.00  0.00    +0.000 C 
ATOM     26  F   UNL     1       2.501   4.817  21.789  0.00  0.00    +0.000 F 
ATOM     27  F   UNL     1       0.770   4.040  20.783  0.00  0.00    +0.000 F 
ATOM     28  F   UNL     1       2.669   3.004  20.673  0.00  0.00    +0.000 F 
ENDBRANCH  24  25
BRANCH  24  29
ATOM     29  C   UNL     1       2.079   4.151  18.116  0.00  0.00    +0.000 C 
ATOM     30  F   UNL     1       1.142   4.784  17.364  0.00  0.00    +0.000 F 
ATOM     31  F   UNL     1       3.104   3.845  17.279  0.00  0.00    +0.000 F 
ATOM     32  F   UNL     1       1.499   2.972  18.437  0.00  0.00    +0.000 F 
ENDBRANCH  24  29
BRANCH  24  33
ATOM     33  O   UNL     1       4.052   4.978  19.397  0.00  0.00    +0.000 OA
ATOM     34  H   UNL     1       4.325   5.427  20.218  0.00  0.00    +0.000 HD
ENDBRANCH  24  33
ENDBRANCH  12  24
TORSDOF 9
ENDMDL
MODEL 8
REMARK VINA RESULT:      -6.7      6.094      8.282
REMARK  Name = 
REMARK  12 active torsions:
REMARK  status: ('A' for Active; 'I' for Inactive)
REMARK    1  A    between atoms: C_1  and  C_2
REMARK    2  A    between atoms: C_2  and  C_3
REMARK    3  A    between atoms: C_3  and  C_4
REMARK    4  A    between atoms: C_4  and  N_5
REMARK    5  A    between atoms: C_10  and  O_11
REMARK    6  A    between atoms: O_11  and  C_12
REMARK    7  A    between atoms: C_18  and  C_19
REMARK    8  A    between atoms: C_19  and  O_20
REMARK    9  A    between atoms: C_19  and  C_21
REMARK   10  A    between atoms: C_19  and  C_25
REMARK   11  A    between atoms: C_29  and  O_30
REMARK   12  A    between atoms: O_30  and  C_31
REMARK                            x       y       z     vdW  Elec       q    Type
REMARK                         _______ _______ _______ _____ _____    ______ ____
ROOT
ATOM      1  N   UNL     1      -0.549  11.324  19.963  0.00  0.00    +0.000 N 
ATOM      2  C   UNL     1      -0.610  10.701  18.705  0.00  0.00    +0.000 A 
ATOM      3  O   UNL     1       0.330  10.072  18.219  0.00  0.00    +0.000 OA
ATOM      4  C   UNL     1      -1.867  10.808  17.915  0.00  0.00    +0.000 A 
ATOM      5  C   UNL     1      -1.931  10.214  16.642  0.00  0.00    +0.000 A 
ATOM      6  C   UNL     1      -3.095  10.295  15.870  0.00  0.00    +0.000 A 
ATOM      7  C   UNL     1      -4.187  10.976  16.365  0.00  0.00    +0.000 A 
ATOM      8  C   UNL     1      -4.125  11.572  17.632  0.00  0.00    +0.000 A 
ATOM      9  C   UNL     1      -2.964  11.495  18.438  0.00  0.00    +0.000 A 
ATOM     10  C   UNL     1      -2.862  12.122  19.771  0.00  0.00    +0.000 A 
ATOM     11  C   UNL     1      -3.956  12.801  20.349  0.00  0.00    +0.000 A 
ATOM     12  C   UNL     1      -3.912  13.474  21.578  0.00  0.00    +0.000 A 
ATOM     13  C   UNL     1      -2.680  13.428  22.267  0.00  0.00    +0.000 A 
ATOM     14  C   UNL     1      -1.576  12.767  21.702  0.00  0.00    +0.000 A 
ATOM     15  C   UNL     1      -1.650  12.077  20.485  0.00  0.00    +0.000 A 
ENDROOT
BRANCH   6  16
ATOM     16  O   UNL     1      -3.030   9.672  14.650  0.00  0.00    +0.000 OA
ATOM     17  C   UNL     1      -4.028  10.035  13.696  0.00  0.00    +0.000 C 
ENDBRANCH   6  16
BRANCH  13  18
ATOM     18  O   UNL     1      -2.627  14.061  23.483  0.00  0.00    +0.000 OA
ATOM     19  C   UNL     1      -1.350  14.421  24.005  0.00  0.00    +0.000 C 
ENDBRANCH  13  18
BRANCH   1  20
ATOM     20  C   UNL     1       0.713  11.207  20.709  0.00  0.00    +0.000 C 
BRANCH  20  21
ATOM     21  C   UNL     1       0.991   9.841  21.359  0.00  0.00    +0.000 C 
BRANCH  21  23
ATOM     22  C   UNL     1      -0.510   9.623  23.346  0.00  0.00    +0.000 C 
ATOM     23  C   UNL     1      -0.239   9.138  21.925  0.00  0.00    +0.000 C 
ENDBRANCH  21  23
ENDBRANCH  20  21
ENDBRANCH   1  20
BRANCH  12  24
ATOM     24  C   UNL     1      -5.114  14.293  22.112  0.00  0.00    +0.000 C 
BRANCH  24  25
ATOM     25  C   UNL     1      -6.148  14.947  21.124  0.00  0.00    +0.000 C 
ATOM     26  F   UNL     1      -5.594  15.429  19.985  0.00  0.00    +0.000 F 
ATOM     27  F   UNL     1      -7.185  14.193  20.726  0.00  0.00    +0.000 F 
ATOM     28  F   UNL     1      -6.686  16.058  21.708  0.00  0.00    +0.000 F 
ENDBRANCH  24  25
BRANCH  24  29
ATOM     29  C   UNL     1      -5.938  13.508  23.181  0.00  0.00    +0.000 C 
ATOM     30  F   UNL     1      -6.963  14.228  23.706  0.00  0.00    +0.000 F 
ATOM     31  F   UNL     1      -6.485  12.379  22.663  0.00  0.00    +0.000 F 
ATOM     32  F   UNL     1      -5.229  13.113  24.262  0.00  0.00    +0.000 F 
ENDBRANCH  24  29
BRANCH  24  33
ATOM     33  O   UNL     1      -4.411  15.434  22.759  0.00  0.00    +0.000 OA
ATOM     34  H   UNL     1      -4.103  15.139  23.636  0.00  0.00    +0.000 HD
ENDBRANCH  24  33
ENDBRANCH  12  24
TORSDOF 9
ENDMDL
MODEL 9
REMARK VINA RESULT:      -6.7      1.130      1.999
REMARK  Name = 
REMARK  12 active torsions:
REMARK  status: ('A' for Active; 'I' for Inactive)
REMARK    1  A    between atoms: C_1  and  C_2
REMARK    2  A    between atoms: C_2  and  C_3
REMARK    3  A    between atoms: C_3  and  C_4
REMARK    4  A    between atoms: C_4  and  N_5
REMARK    5  A    between atoms: C_10  and  O_11
REMARK    6  A    between atoms: O_11  and  C_12
REMARK    7  A    between atoms: C_18  and  C_19
REMARK    8  A    between atoms: C_19  and  O_20
REMARK    9  A    between atoms: C_19  and  C_21
REMARK   10  A    between atoms: C_19  and  C_25
REMARK   11  A    between atoms: C_29  and  O_30
REMARK   12  A    between atoms: O_30  and  C_31
REMARK                            x       y       z     vdW  Elec       q    Type
REMARK                         _______ _______ _______ _____ _____    ______ ____
ROOT
ATOM      1  N   UNL     1       2.706   5.504  19.979  0.00  0.00    +0.000 N 
ATOM      2  C   UNL     1       3.590   4.888  19.076  0.00  0.00    +0.000 A 
ATOM      3  O   UNL     1       3.999   3.736  19.216  0.00  0.00    +0.000 OA
ATOM      4  C   UNL     1       4.061   5.663  17.896  0.00  0.00    +0.000 A 
ATOM      5  C   UNL     1       4.968   5.067  17.001  0.00  0.00    +0.000 A 
ATOM      6  C   UNL     1       5.434   5.766  15.882  0.00  0.00    +0.000 A 
ATOM      7  C   UNL     1       5.001   7.057  15.664  0.00  0.00    +0.000 A 
ATOM      8  C   UNL     1       4.101   7.654  16.556  0.00  0.00    +0.000 A 
ATOM      9  C   UNL     1       3.606   6.966  17.689  0.00  0.00    +0.000 A 
ATOM     10  C   UNL     1       2.665   7.571  18.655  0.00  0.00    +0.000 A 
ATOM     11  C   UNL     1       2.158   8.874  18.468  0.00  0.00    +0.000 A 
ATOM     12  C   UNL     1       1.316   9.534  19.374  0.00  0.00    +0.000 A 
ATOM     13  C   UNL     1       0.953   8.805  20.528  0.00  0.00    +0.000 A 
ATOM     14  C   UNL     1       1.457   7.511  20.737  0.00  0.00    +0.000 A 
ATOM     15  C   UNL     1       2.276   6.860  19.805  0.00  0.00    +0.000 A 
ENDROOT
BRANCH   6  16
ATOM     16  O   UNL     1       6.311   5.074  15.086  0.00  0.00    +0.000 OA
ATOM     17  C   UNL     1       5.738   4.145  14.166  0.00  0.00    +0.000 C 
ENDBRANCH   6  16
BRANCH  13  18
ATOM     18  O   UNL     1       0.110   9.428  21.414  0.00  0.00    +0.000 OA
ATOM     19  C   UNL     1       0.342   9.253  22.809  0.00  0.00    +0.000 C 
ENDBRANCH  13  18
BRANCH   1  20
ATOM     20  C   UNL     1       2.272   4.712  21.139  0.00  0.00    +0.000 C 
BRANCH  20  21
ATOM     21  C   UNL     1       1.065   3.787  20.914  0.00  0.00    +0.000 C 
BRANCH  21  23
ATOM     22  C   UNL     1       2.748   2.125  21.721  0.00  0.00    +0.000 C 
ATOM     23  C   UNL     1       1.325   2.311  21.205  0.00  0.00    +0.000 C 
ENDBRANCH  21  23
ENDBRANCH  20  21
ENDBRANCH   1  20
BRANCH  12  24
ATOM     24  C   UNL     1       0.877  11.006  19.168  0.00  0.00    +0.000 C 
BRANCH  24  25
ATOM     25  C   UNL     1       1.799  12.024  18.404  0.00  0.00    +0.000 C 
ATOM     26  F   UNL     1       1.126  13.030  17.795  0.00  0.00    +0.000 F 
ATOM     27  F   UNL     1       2.775  12.622  19.106  0.00  0.00    +0.000 F 
ATOM     28  F   UNL     1       2.414  11.383  17.367  0.00  0.00    +0.000 F 
ENDBRANCH  24  25
BRANCH  24  29
ATOM     29  C   UNL     1      -0.547  11.117  18.536  0.00  0.00    +0.000 C 
ATOM     30  F   UNL     1      -0.852  12.371  18.112  0.00  0.00    +0.000 F 
ATOM     31  F   UNL     1      -0.682  10.301  17.459  0.00  0.00    +0.000 F 
ATOM     32  F   UNL     1      -1.562  10.799  19.371  0.00  0.00    +0.000 F 
ENDBRANCH  24  29
BRANCH  24  33
ATOM     33  O   UNL     1       0.839  11.488  20.575  0.00  0.00    +0.000 OA
ATOM     34  H   UNL     1       0.705  12.454  20.559  0.00  0.00    +0.000 HD
ENDBRANCH  24  33
ENDBRANCH  12  24
TORSDOF 9
ENDMDL
