MODEL 1
REMARK VINA RESULT:      -7.2      0.000      0.000
REMARK  Name = 
REMARK  3 active torsions:
REMARK  status: ('A' for Active; 'I' for Inactive)
REMARK    1  A    between atoms: C_1  and  C_2
REMARK    2  A    between atoms: N_10  and  C_11
REMARK    3  A    between atoms: C_11  and  C_12
REMARK                            x       y       z     vdW  Elec       q    Type
REMARK                         _______ _______ _______ _____ _____    ______ ____
ROOT
ATOM      1  C   UNL     1       4.969   3.447  15.915  0.00  0.00    +0.000 C 
ATOM      2  C   UNL     1       4.071   3.472  17.101  0.00  0.00    +0.000 A 
ATOM      3  S   UNL     1       3.483   2.029  17.805  0.00  0.00    +0.000 S 
ATOM      4  C   UNL     1       2.603   2.892  19.005  0.00  0.00    +0.000 A 
ATOM      5  C   UNL     1       1.824   2.381  20.054  0.00  0.00    +0.000 A 
ATOM      6  C   UNL     1       1.177   3.289  20.896  0.00  0.00    +0.000 A 
ATOM      7  C   UNL     1       1.289   4.660  20.688  0.00  0.00    +0.000 A 
ATOM      8  C   UNL     1       2.078   5.165  19.645  0.00  0.00    +0.000 A 
ATOM      9  C   UNL     1       2.761   4.262  18.805  0.00  0.00    +0.000 A 
ATOM     10  N   UNL     1       3.632   4.541  17.755  0.00  0.00    +0.000 N 
ENDROOT
BRANCH  10  11
ATOM     11  C   UNL     1       4.120   5.896  17.473  0.00  0.00    +0.000 C 
BRANCH  11  12
ATOM     12  C   UNL     1       5.544   6.138  17.910  0.00  0.00    +0.000 A 
ATOM     13  C   UNL     1       6.181   5.437  18.945  0.00  0.00    +0.000 A 
ATOM     14  C   UNL     1       7.488   5.759  19.319  0.00  0.00    +0.000 A 
ATOM     15  C   UNL     1       8.184   6.765  18.657  0.00  0.00    +0.000 A 
ATOM     16  C   UNL     1       7.581   7.446  17.604  0.00  0.00    +0.000 A 
ATOM     17  C   UNL     1       6.275   7.133  17.230  0.00  0.00    +0.000 A 
ENDBRANCH  11  12
ENDBRANCH  10  11
TORSDOF 2
ENDMDL
MODEL 2
REMARK VINA RESULT:      -7.2      0.171      1.178
REMARK  Name = 
REMARK  3 active torsions:
REMARK  status: ('A' for Active; 'I' for Inactive)
REMARK    1  A    between atoms: C_1  and  C_2
REMARK    2  A    between atoms: N_10  and  C_11
REMARK    3  A    between atoms: C_11  and  C_12
REMARK                            x       y       z     vdW  Elec       q    Type
REMARK                         _______ _______ _______ _____ _____    ______ ____
ROOT
ATOM      1  C   UNL     1       4.948   3.664  15.885  0.00  0.00    +0.000 C 
ATOM      2  C   UNL     1       4.039   3.599  17.061  0.00  0.00    +0.000 A 
ATOM      3  S   UNL     1       3.501   2.103  17.691  0.00  0.00    +0.000 S 
ATOM      4  C   UNL     1       2.577   2.874  18.920  0.00  0.00    +0.000 A 
ATOM      5  C   UNL     1       1.810   2.285  19.936  0.00  0.00    +0.000 A 
ATOM      6  C   UNL     1       1.121   3.127  20.811  0.00  0.00    +0.000 A 
ATOM      7  C   UNL     1       1.180   4.509  20.669  0.00  0.00    +0.000 A 
ATOM      8  C   UNL     1       1.959   5.093  19.659  0.00  0.00    +0.000 A 
ATOM      9  C   UNL     1       2.684   4.257  18.785  0.00  0.00    +0.000 A 
ATOM     10  N   UNL     1       3.552   4.618  17.760  0.00  0.00    +0.000 N 
ENDROOT
BRANCH  10  11
ATOM     11  C   UNL     1       3.990   6.002  17.545  0.00  0.00    +0.000 C 
BRANCH  11  12
ATOM     12  C   UNL     1       5.431   6.255  17.919  0.00  0.00    +0.000 A 
ATOM     13  C   UNL     1       6.279   7.138  17.234  0.00  0.00    +0.000 A 
ATOM     14  C   UNL     1       7.616   7.275  17.617  0.00  0.00    +0.000 A 
ATOM     15  C   UNL     1       8.119   6.557  18.697  0.00  0.00    +0.000 A 
ATOM     16  C   UNL     1       7.282   5.705  19.410  0.00  0.00    +0.000 A 
ATOM     17  C   UNL     1       5.948   5.558  19.028  0.00  0.00    +0.000 A 
ENDBRANCH  11  12
ENDBRANCH  10  11
TORSDOF 2
ENDMDL
MODEL 3
REMARK VINA RESULT:      -6.9      1.747      2.519
REMARK  Name = 
REMARK  3 active torsions:
REMARK  status: ('A' for Active; 'I' for Inactive)
REMARK    1  A    between atoms: C_1  and  C_2
REMARK    2  A    between atoms: N_10  and  C_11
REMARK    3  A    between atoms: C_11  and  C_12
REMARK                            x       y       z     vdW  Elec       q    Type
REMARK                         _______ _______ _______ _____ _____    ______ ____
ROOT
ATOM      1  C   UNL     1       2.662   7.848  18.251  0.00  0.00    +0.000 C 
ATOM      2  C   UNL     1       2.669   6.557  18.992  0.00  0.00    +0.000 A 
ATOM      3  S   UNL     1       1.572   6.257  20.269  0.00  0.00    +0.000 S 
ATOM      4  C   UNL     1       2.213   4.684  20.540  0.00  0.00    +0.000 A 
ATOM      5  C   UNL     1       1.798   3.720  21.472  0.00  0.00    +0.000 A 
ATOM      6  C   UNL     1       2.497   2.512  21.523  0.00  0.00    +0.000 A 
ATOM      7  C   UNL     1       3.583   2.278  20.686  0.00  0.00    +0.000 A 
ATOM      8  C   UNL     1       3.985   3.240  19.748  0.00  0.00    +0.000 A 
ATOM      9  C   UNL     1       3.272   4.454  19.664  0.00  0.00    +0.000 A 
ATOM     10  N   UNL     1       3.461   5.513  18.781  0.00  0.00    +0.000 N 
ENDROOT
BRANCH  10  11
ATOM     11  C   UNL     1       4.376   5.433  17.636  0.00  0.00    +0.000 C 
BRANCH  11  12
ATOM     12  C   UNL     1       5.747   6.005  17.906  0.00  0.00    +0.000 A 
ATOM     13  C   UNL     1       6.667   5.452  18.809  0.00  0.00    +0.000 A 
ATOM     14  C   UNL     1       7.898   6.074  19.036  0.00  0.00    +0.000 A 
ATOM     15  C   UNL     1       8.238   7.237  18.352  0.00  0.00    +0.000 A 
ATOM     16  C   UNL     1       7.353   7.778  17.425  0.00  0.00    +0.000 A 
ATOM     17  C   UNL     1       6.120   7.166  17.200  0.00  0.00    +0.000 A 
ENDBRANCH  11  12
ENDBRANCH  10  11
TORSDOF 2
ENDMDL
MODEL 4
REMARK VINA RESULT:      -6.9      1.888      2.821
REMARK  Name = 
REMARK  3 active torsions:
REMARK  status: ('A' for Active; 'I' for Inactive)
REMARK    1  A    between atoms: C_1  and  C_2
REMARK    2  A    between atoms: N_10  and  C_11
REMARK    3  A    between atoms: C_11  and  C_12
REMARK                            x       y       z     vdW  Elec       q    Type
REMARK                         _______ _______ _______ _____ _____    ______ ____
ROOT
ATOM      1  C   UNL     1       3.597   2.692  19.301  0.00  0.00    +0.000 C 
ATOM      2  C   UNL     1       3.083   4.079  19.455  0.00  0.00    +0.000 A 
ATOM      3  S   UNL     1       2.078   4.517  20.768  0.00  0.00    +0.000 S 
ATOM      4  C   UNL     1       1.955   6.143  20.221  0.00  0.00    +0.000 A 
ATOM      5  C   UNL     1       1.275   7.216  20.816  0.00  0.00    +0.000 A 
ATOM      6  C   UNL     1       1.298   8.452  20.164  0.00  0.00    +0.000 A 
ATOM      7  C   UNL     1       1.961   8.608  18.952  0.00  0.00    +0.000 A 
ATOM      8  C   UNL     1       2.649   7.534  18.367  0.00  0.00    +0.000 A 
ATOM      9  C   UNL     1       2.661   6.289  19.027  0.00  0.00    +0.000 A 
ATOM     10  N   UNL     1       3.317   5.117  18.661  0.00  0.00    +0.000 N 
ENDROOT
BRANCH  10  11
ATOM     11  C   UNL     1       4.285   5.066  17.559  0.00  0.00    +0.000 C 
BRANCH  11  12
ATOM     12  C   UNL     1       5.630   5.663  17.896  0.00  0.00    +0.000 A 
ATOM     13  C   UNL     1       6.472   5.185  18.911  0.00  0.00    +0.000 A 
ATOM     14  C   UNL     1       7.682   5.828  19.189  0.00  0.00    +0.000 A 
ATOM     15  C   UNL     1       8.078   6.937  18.449  0.00  0.00    +0.000 A 
ATOM     16  C   UNL     1       7.272   7.402  17.414  0.00  0.00    +0.000 A 
ATOM     17  C   UNL     1       6.061   6.768  17.136  0.00  0.00    +0.000 A 
ENDBRANCH  11  12
ENDBRANCH  10  11
TORSDOF 2
ENDMDL
MODEL 5
REMARK VINA RESULT:      -6.9      2.608      4.330
REMARK  Name = 
REMARK  3 active torsions:
REMARK  status: ('A' for Active; 'I' for Inactive)
REMARK    1  A    between atoms: C_1  and  C_2
REMARK    2  A    between atoms: N_10  and  C_11
REMARK    3  A    between atoms: C_11  and  C_12
REMARK                            x       y       z     vdW  Elec       q    Type
REMARK                         _______ _______ _______ _____ _____    ______ ____
ROOT
ATOM      1  C   UNL     1       6.887   7.329  17.127  0.00  0.00    +0.000 C 
ATOM      2  C   UNL     1       5.695   6.451  17.272  0.00  0.00    +0.000 A 
ATOM      3  S   UNL     1       4.179   7.079  17.751  0.00  0.00    +0.000 S 
ATOM      4  C   UNL     1       3.435   5.530  17.676  0.00  0.00    +0.000 A 
ATOM      5  C   UNL     1       2.096   5.190  17.919  0.00  0.00    +0.000 A 
ATOM      6  C   UNL     1       1.730   3.846  17.819  0.00  0.00    +0.000 A 
ATOM      7  C   UNL     1       2.671   2.871  17.506  0.00  0.00    +0.000 A 
ATOM      8  C   UNL     1       4.006   3.218  17.252  0.00  0.00    +0.000 A 
ATOM      9  C   UNL     1       4.385   4.574  17.320  0.00  0.00    +0.000 A 
ATOM     10  N   UNL     1       5.627   5.142  17.056  0.00  0.00    +0.000 N 
ENDROOT
BRANCH  10  11
ATOM     11  C   UNL     1       6.737   4.381  16.470  0.00  0.00    +0.000 C 
BRANCH  11  12
ATOM     12  C   UNL     1       6.734   4.355  14.961  0.00  0.00    +0.000 A 
ATOM     13  C   UNL     1       5.875   3.561  14.188  0.00  0.00    +0.000 A 
ATOM     14  C   UNL     1       5.973   3.562  12.793  0.00  0.00    +0.000 A 
ATOM     15  C   UNL     1       6.909   4.367  12.152  0.00  0.00    +0.000 A 
ATOM     16  C   UNL     1       7.744   5.189  12.902  0.00  0.00    +0.000 A 
ATOM     17  C   UNL     1       7.655   5.187  14.294  0.00  0.00    +0.000 A 
ENDBRANCH  11  12
ENDBRANCH  10  11
TORSDOF 2
ENDMDL
MODEL 6
REMARK VINA RESULT:      -6.8      1.375      2.076
REMARK  Name = 
REMARK  3 active torsions:
REMARK  status: ('A' for Active; 'I' for Inactive)
REMARK    1  A    between atoms: C_1  and  C_2
REMARK    2  A    between atoms: N_10  and  C_11
REMARK    3  A    between atoms: C_11  and  C_12
REMARK                            x       y       z     vdW  Elec       q    Type
REMARK                         _______ _______ _______ _____ _____    ______ ____
ROOT
ATOM      1  C   UNL     1       3.783   1.669  18.243  0.00  0.00    +0.000 C 
ATOM      2  C   UNL     1       3.287   2.976  18.754  0.00  0.00    +0.000 A 
ATOM      3  S   UNL     1       2.276   3.069  20.129  0.00  0.00    +0.000 S 
ATOM      4  C   UNL     1       2.182   4.784  20.029  0.00  0.00    +0.000 A 
ATOM      5  C   UNL     1       1.512   5.674  20.882  0.00  0.00    +0.000 A 
ATOM      6  C   UNL     1       1.559   7.036  20.579  0.00  0.00    +0.000 A 
ATOM      7  C   UNL     1       2.237   7.495  19.454  0.00  0.00    +0.000 A 
ATOM      8  C   UNL     1       2.916   6.602  18.612  0.00  0.00    +0.000 A 
ATOM      9  C   UNL     1       2.902   5.226  18.921  0.00  0.00    +0.000 A 
ATOM     10  N   UNL     1       3.545   4.182  18.262  0.00  0.00    +0.000 N 
ENDROOT
BRANCH  10  11
ATOM     11  C   UNL     1       4.523   4.406  17.191  0.00  0.00    +0.000 C 
BRANCH  11  12
ATOM     12  C   UNL     1       5.726   5.212  17.618  0.00  0.00    +0.000 A 
ATOM     13  C   UNL     1       6.531   4.900  18.724  0.00  0.00    +0.000 A 
ATOM     14  C   UNL     1       7.599   5.729  19.079  0.00  0.00    +0.000 A 
ATOM     15  C   UNL     1       7.893   6.862  18.327  0.00  0.00    +0.000 A 
ATOM     16  C   UNL     1       7.128   7.166  17.206  0.00  0.00    +0.000 A 
ATOM     17  C   UNL     1       6.056   6.346  16.851  0.00  0.00    +0.000 A 
ENDBRANCH  11  12
ENDBRANCH  10  11
TORSDOF 2
ENDMDL
MODEL 7
REMARK VINA RESULT:      -6.8      1.740      2.779
REMARK  Name = 
REMARK  3 active torsions:
REMARK  status: ('A' for Active; 'I' for Inactive)
REMARK    1  A    between atoms: C_1  and  C_2
REMARK    2  A    between atoms: N_10  and  C_11
REMARK    3  A    between atoms: C_11  and  C_12
REMARK                            x       y       z     vdW  Elec       q    Type
REMARK                         _______ _______ _______ _____ _____    ______ ____
ROOT
ATOM      1  C   UNL     1       2.599   7.803  18.339  0.00  0.00    +0.000 C 
ATOM      2  C   UNL     1       2.634   6.504  19.063  0.00  0.00    +0.000 A 
ATOM      3  S   UNL     1       1.565   6.176  20.356  0.00  0.00    +0.000 S 
ATOM      4  C   UNL     1       2.227   4.606  20.597  0.00  0.00    +0.000 A 
ATOM      5  C   UNL     1       1.840   3.627  21.523  0.00  0.00    +0.000 A 
ATOM      6  C   UNL     1       2.553   2.426  21.547  0.00  0.00    +0.000 A 
ATOM      7  C   UNL     1       3.626   2.215  20.687  0.00  0.00    +0.000 A 
ATOM      8  C   UNL     1       4.000   3.193  19.754  0.00  0.00    +0.000 A 
ATOM      9  C   UNL     1       3.272   4.399  19.698  0.00  0.00    +0.000 A 
ATOM     10  N   UNL     1       3.433   5.471  18.825  0.00  0.00    +0.000 N 
ENDROOT
BRANCH  10  11
ATOM     11  C   UNL     1       4.327   5.416  17.663  0.00  0.00    +0.000 C 
BRANCH  11  12
ATOM     12  C   UNL     1       5.674   6.058  17.894  0.00  0.00    +0.000 A 
ATOM     13  C   UNL     1       6.143   7.179  17.193  0.00  0.00    +0.000 A 
ATOM     14  C   UNL     1       7.425   7.680  17.436  0.00  0.00    +0.000 A 
ATOM     15  C   UNL     1       8.245   7.089  18.391  0.00  0.00    +0.000 A 
ATOM     16  C   UNL     1       7.782   5.999  19.121  0.00  0.00    +0.000 A 
ATOM     17  C   UNL     1       6.506   5.490  18.878  0.00  0.00    +0.000 A 
ENDBRANCH  11  12
ENDBRANCH  10  11
TORSDOF 2
ENDMDL
MODEL 8
REMARK VINA RESULT:      -6.8      2.080      3.243
REMARK  Name = 
REMARK  3 active torsions:
REMARK  status: ('A' for Active; 'I' for Inactive)
REMARK    1  A    between atoms: C_1  and  C_2
REMARK    2  A    between atoms: N_10  and  C_11
REMARK    3  A    between atoms: C_11  and  C_12
REMARK                            x       y       z     vdW  Elec       q    Type
REMARK                         _______ _______ _______ _____ _____    ______ ____
ROOT
ATOM      1  C   UNL     1       3.470   3.026  19.391  0.00  0.00    +0.000 C 
ATOM      2  C   UNL     1       2.968   4.419  19.535  0.00  0.00    +0.000 A 
ATOM      3  S   UNL     1       2.024   4.892  20.880  0.00  0.00    +0.000 S 
ATOM      4  C   UNL     1       1.883   6.505  20.301  0.00  0.00    +0.000 A 
ATOM      5  C   UNL     1       1.234   7.595  20.901  0.00  0.00    +0.000 A 
ATOM      6  C   UNL     1       1.233   8.815  20.220  0.00  0.00    +0.000 A 
ATOM      7  C   UNL     1       1.844   8.940  18.977  0.00  0.00    +0.000 A 
ATOM      8  C   UNL     1       2.501   7.851  18.388  0.00  0.00    +0.000 A 
ATOM      9  C   UNL     1       2.537   6.620  19.075  0.00  0.00    +0.000 A 
ATOM     10  N   UNL     1       3.172   5.438  18.708  0.00  0.00    +0.000 N 
ENDROOT
BRANCH  10  11
ATOM     11  C   UNL     1       4.090   5.356  17.566  0.00  0.00    +0.000 C 
BRANCH  11  12
ATOM     12  C   UNL     1       5.448   5.962  17.827  0.00  0.00    +0.000 A 
ATOM     13  C   UNL     1       5.962   7.071  17.137  0.00  0.00    +0.000 A 
ATOM     14  C   UNL     1       7.251   7.538  17.408  0.00  0.00    +0.000 A 
ATOM     15  C   UNL     1       8.034   6.925  18.380  0.00  0.00    +0.000 A 
ATOM     16  C   UNL     1       7.527   5.848  19.099  0.00  0.00    +0.000 A 
ATOM     17  C   UNL     1       6.244   5.372  18.829  0.00  0.00    +0.000 A 
ENDBRANCH  11  12
ENDBRANCH  10  11
TORSDOF 2
ENDMDL
MODEL 9
REMARK VINA RESULT:      -6.7      3.396      5.725
REMARK  Name = 
REMARK  3 active torsions:
REMARK  status: ('A' for Active; 'I' for Inactive)
REMARK    1  A    between atoms: C_1  and  C_2
REMARK    2  A    between atoms: N_10  and  C_11
REMARK    3  A    between atoms: C_11  and  C_12
REMARK                            x       y       z     vdW  Elec       q    Type
REMARK                         _______ _______ _______ _____ _____    ______ ____
ROOT
ATOM      1  C   UNL     1       3.850   7.279  17.178  0.00  0.00    +0.000 C 
ATOM      2  C   UNL     1       2.862   7.836  18.141  0.00  0.00    +0.000 A 
ATOM      3  S   UNL     1       1.912   9.203  17.753  0.00  0.00    +0.000 S 
ATOM      4  C   UNL     1       1.122   9.174  19.280  0.00  0.00    +0.000 A 
ATOM      5  C   UNL     1       0.109  10.020  19.757  0.00  0.00    +0.000 A 
ATOM      6  C   UNL     1      -0.363   9.814  21.055  0.00  0.00    +0.000 A 
ATOM      7  C   UNL     1       0.169   8.810  21.858  0.00  0.00    +0.000 A 
ATOM      8  C   UNL     1       1.172   7.959  21.372  0.00  0.00    +0.000 A 
ATOM      9  C   UNL     1       1.639   8.135  20.053  0.00  0.00    +0.000 A 
ATOM     10  N   UNL     1       2.578   7.381  19.356  0.00  0.00    +0.000 N 
ENDROOT
BRANCH  10  11
ATOM     11  C   UNL     1       3.119   6.119  19.873  0.00  0.00    +0.000 C 
BRANCH  11  12
ATOM     12  C   UNL     1       2.243   4.919  19.604  0.00  0.00    +0.000 A 
ATOM     13  C   UNL     1       1.372   4.352  20.546  0.00  0.00    +0.000 A 
ATOM     14  C   UNL     1       0.632   3.210  20.228  0.00  0.00    +0.000 A 
ATOM     15  C   UNL     1       0.732   2.633  18.966  0.00  0.00    +0.000 A 
ATOM     16  C   UNL     1       1.562   3.204  18.008  0.00  0.00    +0.000 A 
ATOM     17  C   UNL     1       2.308   4.340  18.321  0.00  0.00    +0.000 A 
ENDBRANCH  11  12
ENDBRANCH  10  11
TORSDOF 2
ENDMDL
