MODEL 1
REMARK VINA RESULT:      -8.7      0.000      0.000
REMARK  Name = 
REMARK  11 active torsions:
REMARK  status: ('A' for Active; 'I' for Inactive)
REMARK    1  A    between atoms: C_1  and  C_2
REMARK    2  A    between atoms: C_2  and  C_3
REMARK    3  A    between atoms: C_3  and  C_4
REMARK    4  A    between atoms: C_4  and  O_5
REMARK    5  A    between atoms: O_5  and  C_6
REMARK    6  A    between atoms: C_9  and  N_10
REMARK    7  A    between atoms: N_13  and  C_14
REMARK    8  A    between atoms: C_20  and  C_21
REMARK    9  A    between atoms: C_26  and  C_27
REMARK   10  A    between atoms: C_27  and  C_28
REMARK   11  A    between atoms: C_27  and  C_29
REMARK                            x       y       z     vdW  Elec       q    Type
REMARK                         _______ _______ _______ _____ _____    ______ ____
ROOT
ATOM      1  C   UNL     1       2.182   5.064  20.174  0.00  0.00    +0.000 A 
ATOM      2  C   UNL     1       1.038   4.309  20.524  0.00  0.00    +0.000 A 
ATOM      3  C   UNL     1       0.841   3.000  20.095  0.00  0.00    +0.000 A 
ATOM      4  C   UNL     1       1.799   2.379  19.303  0.00  0.00    +0.000 A 
ATOM      5  C   UNL     1       2.894   3.131  18.853  0.00  0.00    +0.000 A 
ATOM      6  C   UNL     1       4.006   2.825  18.053  0.00  0.00    +0.000 A 
ATOM      7  C   UNL     1       4.619   4.021  17.747  0.00  0.00    +0.000 A 
ATOM      8  O   UNL     1       4.108   5.022  18.540  0.00  0.00    +0.000 OA
ATOM      9  C   UNL     1       3.035   4.472  19.226  0.00  0.00    +0.000 A 
ENDROOT
BRANCH   1  13
ATOM     10  N   UNL     1       1.833   8.425  21.531  0.00  0.00    +0.000 N 
ATOM     11  C   UNL     1       1.476   7.278  20.841  0.00  0.00    +0.000 C 
ATOM     12  O   UNL     1       0.390   7.122  20.290  0.00  0.00    +0.000 OA
ATOM     13  N   UNL     1       2.462   6.287  20.853  0.00  0.00    +0.000 N 
ATOM     14  H   UNL     1       2.820   8.584  21.672  0.00  0.00    +0.000 HD
ATOM     15  H   UNL     1       2.971   6.194  21.721  0.00  0.00    +0.000 HD
BRANCH  10  19
ATOM     16  C   UNL     1      -0.879  11.594  22.457  0.00  0.00    +0.000 A 
ATOM     17  C   UNL     1      -0.020  11.685  21.368  0.00  0.00    +0.000 A 
ATOM     18  C   UNL     1       0.859  10.651  21.061  0.00  0.00    +0.000 A 
ATOM     19  C   UNL     1       0.943   9.495  21.839  0.00  0.00    +0.000 A 
ATOM     20  C   UNL     1       0.086   9.396  22.941  0.00  0.00    +0.000 A 
ATOM     21  C   UNL     1      -0.817  10.439  23.249  0.00  0.00    +0.000 A 
BRANCH  16  22
ATOM     22  O   UNL     1      -1.783  12.561  22.817  0.00  0.00    +0.000 OA
BRANCH  22  23
ATOM     23  C   UNL     1      -2.981  12.048  23.412  0.00  0.00    +0.000 C 
BRANCH  23  24
ATOM     24  C   UNL     1      -3.765  13.143  24.134  0.00  0.00    +0.000 C 
BRANCH  24  26
ATOM     25  C   UNL     1      -2.745  14.986  25.540  0.00  0.00    +0.000 C 
ATOM     26  C   UNL     1      -2.951  14.438  24.137  0.00  0.00    +0.000 C 
ENDBRANCH  24  26
ENDBRANCH  23  24
ENDBRANCH  22  23
ENDBRANCH  16  22
ENDBRANCH  10  19
ENDBRANCH   1  13
BRANCH   7  27
ATOM     27  C   UNL     1       5.618   4.278  16.698  0.00  0.00    +0.000 A 
ATOM     28  C   UNL     1       5.428   3.574  15.482  0.00  0.00    +0.000 A 
ATOM     29  C   UNL     1       6.083   3.928  14.303  0.00  0.00    +0.000 A 
ATOM     30  C   UNL     1       6.988   4.973  14.319  0.00  0.00    +0.000 A 
ATOM     31  C   UNL     1       7.241   5.646  15.512  0.00  0.00    +0.000 A 
ATOM     32  C   UNL     1       6.555   5.339  16.714  0.00  0.00    +0.000 A 
BRANCH  32  33
ATOM     33  C   UNL     1       6.844   6.188  17.950  0.00  0.00    +0.000 C 
ATOM     34  C   UNL     1       7.752   5.410  18.907  0.00  0.00    +0.000 C 
ATOM     35  C   UNL     1       7.478   7.554  17.632  0.00  0.00    +0.000 C 
ENDBRANCH  32  33
ENDBRANCH   7  27
TORSDOF 8
ENDMDL
MODEL 2
REMARK VINA RESULT:      -8.5      1.025      1.842
REMARK  Name = 
REMARK  11 active torsions:
REMARK  status: ('A' for Active; 'I' for Inactive)
REMARK    1  A    between atoms: C_1  and  C_2
REMARK    2  A    between atoms: C_2  and  C_3
REMARK    3  A    between atoms: C_3  and  C_4
REMARK    4  A    between atoms: C_4  and  O_5
REMARK    5  A    between atoms: O_5  and  C_6
REMARK    6  A    between atoms: C_9  and  N_10
REMARK    7  A    between atoms: N_13  and  C_14
REMARK    8  A    between atoms: C_20  and  C_21
REMARK    9  A    between atoms: C_26  and  C_27
REMARK   10  A    between atoms: C_27  and  C_28
REMARK   11  A    between atoms: C_27  and  C_29
REMARK                            x       y       z     vdW  Elec       q    Type
REMARK                         _______ _______ _______ _____ _____    ______ ____
ROOT
ATOM      1  C   UNL     1       2.150   5.000  20.199  0.00  0.00    +0.000 A 
ATOM      2  C   UNL     1       1.009   4.237  20.539  0.00  0.00    +0.000 A 
ATOM      3  C   UNL     1       0.819   2.931  20.095  0.00  0.00    +0.000 A 
ATOM      4  C   UNL     1       1.781   2.323  19.297  0.00  0.00    +0.000 A 
ATOM      5  C   UNL     1       2.873   3.086  18.857  0.00  0.00    +0.000 A 
ATOM      6  C   UNL     1       3.987   2.793  18.055  0.00  0.00    +0.000 A 
ATOM      7  C   UNL     1       4.595   3.996  17.763  0.00  0.00    +0.000 A 
ATOM      8  O   UNL     1       4.078   4.986  18.567  0.00  0.00    +0.000 OA
ATOM      9  C   UNL     1       3.007   4.423  19.245  0.00  0.00    +0.000 A 
ENDROOT
BRANCH   1  13
ATOM     10  N   UNL     1       1.794   8.354  21.573  0.00  0.00    +0.000 N 
ATOM     11  C   UNL     1       1.444   7.213  20.868  0.00  0.00    +0.000 C 
ATOM     12  O   UNL     1       0.368   7.068  20.295  0.00  0.00    +0.000 OA
ATOM     13  N   UNL     1       2.424   6.217  20.892  0.00  0.00    +0.000 N 
ATOM     14  H   UNL     1       2.778   8.506  21.734  0.00  0.00    +0.000 HD
ATOM     15  H   UNL     1       2.915   6.115  21.769  0.00  0.00    +0.000 HD
BRANCH  10  19
ATOM     16  C   UNL     1      -0.828  11.606  22.469  0.00  0.00    +0.000 A 
ATOM     17  C   UNL     1      -0.891  10.418  23.189  0.00  0.00    +0.000 A 
ATOM     18  C   UNL     1      -0.033   9.361  22.904  0.00  0.00    +0.000 A 
ATOM     19  C   UNL     1       0.904   9.426  21.871  0.00  0.00    +0.000 A 
ATOM     20  C   UNL     1       0.972  10.616  21.137  0.00  0.00    +0.000 A 
ATOM     21  C   UNL     1       0.111  11.697  21.432  0.00  0.00    +0.000 A 
BRANCH  16  22
ATOM     22  O   UNL     1      -1.626  12.698  22.699  0.00  0.00    +0.000 OA
BRANCH  22  23
ATOM     23  C   UNL     1      -2.971  12.547  22.232  0.00  0.00    +0.000 C 
BRANCH  23  24
ATOM     24  C   UNL     1      -3.200  13.294  20.919  0.00  0.00    +0.000 C 
BRANCH  24  26
ATOM     25  C   UNL     1      -2.290  12.121  18.867  0.00  0.00    +0.000 C 
ATOM     26  C   UNL     1      -3.478  12.288  19.800  0.00  0.00    +0.000 C 
ENDBRANCH  24  26
ENDBRANCH  23  24
ENDBRANCH  22  23
ENDBRANCH  16  22
ENDBRANCH  10  19
ENDBRANCH   1  13
BRANCH   7  27
ATOM     27  C   UNL     1       5.594   4.270  16.719  0.00  0.00    +0.000 A 
ATOM     28  C   UNL     1       5.439   3.538  15.514  0.00  0.00    +0.000 A 
ATOM     29  C   UNL     1       6.092   3.894  14.334  0.00  0.00    +0.000 A 
ATOM     30  C   UNL     1       6.960   4.970  14.339  0.00  0.00    +0.000 A 
ATOM     31  C   UNL     1       7.179   5.672  15.522  0.00  0.00    +0.000 A 
ATOM     32  C   UNL     1       6.493   5.363  16.724  0.00  0.00    +0.000 A 
BRANCH  32  33
ATOM     33  C   UNL     1       6.741   6.243  17.947  0.00  0.00    +0.000 C 
ATOM     34  C   UNL     1       7.657   5.509  18.931  0.00  0.00    +0.000 C 
ATOM     35  C   UNL     1       7.341   7.620  17.611  0.00  0.00    +0.000 C 
ENDBRANCH  32  33
ENDBRANCH   7  27
TORSDOF 8
ENDMDL
MODEL 3
REMARK VINA RESULT:      -8.4      0.702      1.123
REMARK  Name = 
REMARK  11 active torsions:
REMARK  status: ('A' for Active; 'I' for Inactive)
REMARK    1  A    between atoms: C_1  and  C_2
REMARK    2  A    between atoms: C_2  and  C_3
REMARK    3  A    between atoms: C_3  and  C_4
REMARK    4  A    between atoms: C_4  and  O_5
REMARK    5  A    between atoms: O_5  and  C_6
REMARK    6  A    between atoms: C_9  and  N_10
REMARK    7  A    between atoms: N_13  and  C_14
REMARK    8  A    between atoms: C_20  and  C_21
REMARK    9  A    between atoms: C_26  and  C_27
REMARK   10  A    between atoms: C_27  and  C_28
REMARK   11  A    between atoms: C_27  and  C_29
REMARK                            x       y       z     vdW  Elec       q    Type
REMARK                         _______ _______ _______ _____ _____    ______ ____
ROOT
ATOM      1  C   UNL     1       2.158   5.028  20.141  0.00  0.00    +0.000 A 
ATOM      2  C   UNL     1       1.002   4.283  20.472  0.00  0.00    +0.000 A 
ATOM      3  C   UNL     1       0.788   2.987  20.014  0.00  0.00    +0.000 A 
ATOM      4  C   UNL     1       1.737   2.369  19.209  0.00  0.00    +0.000 A 
ATOM      5  C   UNL     1       2.843   3.116  18.777  0.00  0.00    +0.000 A 
ATOM      6  C   UNL     1       3.952   2.811  17.972  0.00  0.00    +0.000 A 
ATOM      7  C   UNL     1       4.583   4.005  17.693  0.00  0.00    +0.000 A 
ATOM      8  O   UNL     1       4.085   4.996  18.508  0.00  0.00    +0.000 OA
ATOM      9  C   UNL     1       3.003   4.446  19.180  0.00  0.00    +0.000 A 
ENDROOT
BRANCH   1  13
ATOM     10  N   UNL     1       1.872   8.378  21.540  0.00  0.00    +0.000 N 
ATOM     11  C   UNL     1       1.501   7.253  20.822  0.00  0.00    +0.000 C 
ATOM     12  O   UNL     1       0.428   7.140  20.235  0.00  0.00    +0.000 OA
ATOM     13  N   UNL     1       2.455   6.232  20.848  0.00  0.00    +0.000 N 
ATOM     14  H   UNL     1       2.858   8.504  21.714  0.00  0.00    +0.000 HD
ATOM     15  H   UNL     1       2.933   6.109  21.729  0.00  0.00    +0.000 HD
BRANCH  10  19
ATOM     16  C   UNL     1      -0.767  11.617  22.436  0.00  0.00    +0.000 A 
ATOM     17  C   UNL     1       0.097  11.680  21.349  0.00  0.00    +0.000 A 
ATOM     18  C   UNL     1       0.952  10.623  21.051  0.00  0.00    +0.000 A 
ATOM     19  C   UNL     1       1.007   9.471  21.838  0.00  0.00    +0.000 A 
ATOM     20  C   UNL     1       0.144   9.400  22.938  0.00  0.00    +0.000 A 
ATOM     21  C   UNL     1      -0.735  10.466  23.236  0.00  0.00    +0.000 A 
BRANCH  16  22
ATOM     22  O   UNL     1      -1.650  12.607  22.786  0.00  0.00    +0.000 OA
BRANCH  22  23
ATOM     23  C   UNL     1      -3.004  12.162  22.921  0.00  0.00    +0.000 C 
BRANCH  23  24
ATOM     24  C   UNL     1      -3.945  13.315  23.267  0.00  0.00    +0.000 C 
BRANCH  24  26
ATOM     25  C   UNL     1      -5.235  12.639  21.195  0.00  0.00    +0.000 C 
ATOM     26  C   UNL     1      -5.322  13.051  22.655  0.00  0.00    +0.000 C 
ENDBRANCH  24  26
ENDBRANCH  23  24
ENDBRANCH  22  23
ENDBRANCH  16  22
ENDBRANCH  10  19
ENDBRANCH   1  13
BRANCH   7  27
ATOM     27  C   UNL     1       5.587   4.272  16.651  0.00  0.00    +0.000 A 
ATOM     28  C   UNL     1       5.426   3.546  15.444  0.00  0.00    +0.000 A 
ATOM     29  C   UNL     1       6.085   3.899  14.267  0.00  0.00    +0.000 A 
ATOM     30  C   UNL     1       6.965   4.965  14.277  0.00  0.00    +0.000 A 
ATOM     31  C   UNL     1       7.189   5.661  15.463  0.00  0.00    +0.000 A 
ATOM     32  C   UNL     1       6.497   5.355  16.662  0.00  0.00    +0.000 A 
BRANCH  32  33
ATOM     33  C   UNL     1       6.752   6.229  17.888  0.00  0.00    +0.000 C 
ATOM     34  C   UNL     1       7.683   5.494  18.857  0.00  0.00    +0.000 C 
ATOM     35  C   UNL     1       7.339   7.612  17.555  0.00  0.00    +0.000 C 
ENDBRANCH  32  33
ENDBRANCH   7  27
TORSDOF 8
ENDMDL
MODEL 4
REMARK VINA RESULT:      -8.2      4.541      8.486
REMARK  Name = 
REMARK  11 active torsions:
REMARK  status: ('A' for Active; 'I' for Inactive)
REMARK    1  A    between atoms: C_1  and  C_2
REMARK    2  A    between atoms: C_2  and  C_3
REMARK    3  A    between atoms: C_3  and  C_4
REMARK    4  A    between atoms: C_4  and  O_5
REMARK    5  A    between atoms: O_5  and  C_6
REMARK    6  A    between atoms: C_9  and  N_10
REMARK    7  A    between atoms: N_13  and  C_14
REMARK    8  A    between atoms: C_20  and  C_21
REMARK    9  A    between atoms: C_26  and  C_27
REMARK   10  A    between atoms: C_27  and  C_28
REMARK   11  A    between atoms: C_27  and  C_29
REMARK                            x       y       z     vdW  Elec       q    Type
REMARK                         _______ _______ _______ _____ _____    ______ ____
ROOT
ATOM      1  C   UNL     1       7.137   5.518  17.218  0.00  0.00    +0.000 A 
ATOM      2  C   UNL     1       7.778   5.190  16.000  0.00  0.00    +0.000 A 
ATOM      3  C   UNL     1       7.091   4.673  14.906  0.00  0.00    +0.000 A 
ATOM      4  C   UNL     1       5.717   4.476  14.979  0.00  0.00    +0.000 A 
ATOM      5  C   UNL     1       5.070   4.691  16.205  0.00  0.00    +0.000 A 
ATOM      6  C   UNL     1       3.732   4.579  16.616  0.00  0.00    +0.000 A 
ATOM      7  C   UNL     1       3.728   4.683  17.991  0.00  0.00    +0.000 A 
ATOM      8  O   UNL     1       4.954   5.129  18.428  0.00  0.00    +0.000 OA
ATOM      9  C   UNL     1       5.789   5.133  17.320  0.00  0.00    +0.000 A 
ENDROOT
BRANCH   1  13
ATOM     10  N   UNL     1       8.732   8.306  18.935  0.00  0.00    +0.000 N 
ATOM     11  C   UNL     1       8.063   7.638  17.922  0.00  0.00    +0.000 C 
ATOM     12  O   UNL     1       7.682   8.174  16.884  0.00  0.00    +0.000 OA
ATOM     13  N   UNL     1       7.829   6.288  18.200  0.00  0.00    +0.000 N 
ATOM     14  H   UNL     1       9.265   7.741  19.579  0.00  0.00    +0.000 HD
ATOM     15  H   UNL     1       7.591   6.080  19.159  0.00  0.00    +0.000 HD
BRANCH  10  19
ATOM     16  C   UNL     1       9.245  12.542  19.145  0.00  0.00    +0.000 A 
ATOM     17  C   UNL     1       8.942  11.919  17.939  0.00  0.00    +0.000 A 
ATOM     18  C   UNL     1       8.767  10.540  17.871  0.00  0.00    +0.000 A 
ATOM     19  C   UNL     1       8.915   9.718  18.990  0.00  0.00    +0.000 A 
ATOM     20  C   UNL     1       9.227  10.336  20.207  0.00  0.00    +0.000 A 
ATOM     21  C   UNL     1       9.392  11.738  20.283  0.00  0.00    +0.000 A 
BRANCH  16  22
ATOM     22  O   UNL     1       9.417  13.895  19.298  0.00  0.00    +0.000 OA
BRANCH  22  23
ATOM     23  C   UNL     1      10.545  14.424  18.592  0.00  0.00    +0.000 C 
BRANCH  23  24
ATOM     24  C   UNL     1      10.971  15.783  19.146  0.00  0.00    +0.000 C 
BRANCH  24  26
ATOM     25  C   UNL     1      10.953  16.079  21.661  0.00  0.00    +0.000 C 
ATOM     26  C   UNL     1      10.133  16.116  20.382  0.00  0.00    +0.000 C 
ENDBRANCH  24  26
ENDBRANCH  23  24
ENDBRANCH  22  23
ENDBRANCH  16  22
ENDBRANCH  10  19
ENDBRANCH   1  13
BRANCH   7  27
ATOM     27  C   UNL     1       2.645   4.320  18.919  0.00  0.00    +0.000 A 
ATOM     28  C   UNL     1       2.361   2.934  19.019  0.00  0.00    +0.000 A 
ATOM     29  C   UNL     1       1.600   2.402  20.058  0.00  0.00    +0.000 A 
ATOM     30  C   UNL     1       1.058   3.250  21.005  0.00  0.00    +0.000 A 
ATOM     31  C   UNL     1       1.269   4.624  20.900  0.00  0.00    +0.000 A 
ATOM     32  C   UNL     1       2.079   5.188  19.882  0.00  0.00    +0.000 A 
BRANCH  32  33
ATOM     33  C   UNL     1       2.316   6.696  19.899  0.00  0.00    +0.000 C 
ATOM     34  C   UNL     1       2.102   7.266  18.494  0.00  0.00    +0.000 C 
ATOM     35  C   UNL     1       1.431   7.454  20.905  0.00  0.00    +0.000 C 
ENDBRANCH  32  33
ENDBRANCH   7  27
TORSDOF 8
ENDMDL
MODEL 5
REMARK VINA RESULT:      -8.1      0.608      1.140
REMARK  Name = 
REMARK  11 active torsions:
REMARK  status: ('A' for Active; 'I' for Inactive)
REMARK    1  A    between atoms: C_1  and  C_2
REMARK    2  A    between atoms: C_2  and  C_3
REMARK    3  A    between atoms: C_3  and  C_4
REMARK    4  A    between atoms: C_4  and  O_5
REMARK    5  A    between atoms: O_5  and  C_6
REMARK    6  A    between atoms: C_9  and  N_10
REMARK    7  A    between atoms: N_13  and  C_14
REMARK    8  A    between atoms: C_20  and  C_21
REMARK    9  A    between atoms: C_26  and  C_27
REMARK   10  A    between atoms: C_27  and  C_28
REMARK   11  A    between atoms: C_27  and  C_29
REMARK                            x       y       z     vdW  Elec       q    Type
REMARK                         _______ _______ _______ _____ _____    ______ ____
ROOT
ATOM      1  C   UNL     1       2.279   4.919  20.258  0.00  0.00    +0.000 A 
ATOM      2  C   UNL     1       1.186   4.107  20.645  0.00  0.00    +0.000 A 
ATOM      3  C   UNL     1       1.055   2.782  20.241  0.00  0.00    +0.000 A 
ATOM      4  C   UNL     1       2.029   2.202  19.437  0.00  0.00    +0.000 A 
ATOM      5  C   UNL     1       3.069   3.007  18.951  0.00  0.00    +0.000 A 
ATOM      6  C   UNL     1       4.179   2.750  18.131  0.00  0.00    +0.000 A 
ATOM      7  C   UNL     1       4.718   3.973  17.792  0.00  0.00    +0.000 A 
ATOM      8  O   UNL     1       4.168   4.958  18.582  0.00  0.00    +0.000 OA
ATOM      9  C   UNL     1       3.142   4.360  19.300  0.00  0.00    +0.000 A 
ENDROOT
BRANCH   1  13
ATOM     10  N   UNL     1       1.821   8.324  21.462  0.00  0.00    +0.000 N 
ATOM     11  C   UNL     1       1.519   7.151  20.790  0.00  0.00    +0.000 C 
ATOM     12  O   UNL     1       0.478   6.970  20.164  0.00  0.00    +0.000 OA
ATOM     13  N   UNL     1       2.504   6.167  20.911  0.00  0.00    +0.000 N 
ATOM     14  H   UNL     1       2.793   8.494  21.671  0.00  0.00    +0.000 HD
ATOM     15  H   UNL     1       2.946   6.107  21.818  0.00  0.00    +0.000 HD
BRANCH  10  19
ATOM     16  C   UNL     1      -0.874  11.587  22.052  0.00  0.00    +0.000 A 
ATOM     17  C   UNL     1      -0.743  10.587  23.010  0.00  0.00    +0.000 A 
ATOM     18  C   UNL     1       0.140   9.528  22.823  0.00  0.00    +0.000 A 
ATOM     19  C   UNL     1       0.908   9.400  21.664  0.00  0.00    +0.000 A 
ATOM     20  C   UNL     1       0.778  10.399  20.691  0.00  0.00    +0.000 A 
ATOM     21  C   UNL     1      -0.108  11.483  20.883  0.00  0.00    +0.000 A 
BRANCH  16  22
ATOM     22  O   UNL     1      -1.708  12.670  22.169  0.00  0.00    +0.000 OA
BRANCH  22  23
ATOM     23  C   UNL     1      -1.893  13.123  23.514  0.00  0.00    +0.000 C 
BRANCH  23  24
ATOM     24  C   UNL     1      -3.374  13.273  23.861  0.00  0.00    +0.000 C 
BRANCH  24  26
ATOM     25  C   UNL     1      -4.196  15.212  22.455  0.00  0.00    +0.000 C 
ATOM     26  C   UNL     1      -4.149  13.702  22.614  0.00  0.00    +0.000 C 
ENDBRANCH  24  26
ENDBRANCH  23  24
ENDBRANCH  22  23
ENDBRANCH  16  22
ENDBRANCH  10  19
ENDBRANCH   1  13
BRANCH   7  27
ATOM     27  C   UNL     1       5.677   4.269  16.718  0.00  0.00    +0.000 A 
ATOM     28  C   UNL     1       5.464   3.579  15.497  0.00  0.00    +0.000 A 
ATOM     29  C   UNL     1       6.074   3.965  14.305  0.00  0.00    +0.000 A 
ATOM     30  C   UNL     1       6.956   5.029  14.308  0.00  0.00    +0.000 A 
ATOM     31  C   UNL     1       7.232   5.690  15.504  0.00  0.00    +0.000 A 
ATOM     32  C   UNL     1       6.590   5.350  16.721  0.00  0.00    +0.000 A 
BRANCH  32  33
ATOM     33  C   UNL     1       6.899   6.187  17.961  0.00  0.00    +0.000 C 
ATOM     34  C   UNL     1       7.862   5.420  18.872  0.00  0.00    +0.000 C 
ATOM     35  C   UNL     1       7.483   7.576  17.644  0.00  0.00    +0.000 C 
ENDBRANCH  32  33
ENDBRANCH   7  27
TORSDOF 8
ENDMDL
MODEL 6
REMARK VINA RESULT:      -8.1      0.895      1.043
REMARK  Name = 
REMARK  11 active torsions:
REMARK  status: ('A' for Active; 'I' for Inactive)
REMARK    1  A    between atoms: C_1  and  C_2
REMARK    2  A    between atoms: C_2  and  C_3
REMARK    3  A    between atoms: C_3  and  C_4
REMARK    4  A    between atoms: C_4  and  O_5
REMARK    5  A    between atoms: O_5  and  C_6
REMARK    6  A    between atoms: C_9  and  N_10
REMARK    7  A    between atoms: N_13  and  C_14
REMARK    8  A    between atoms: C_20  and  C_21
REMARK    9  A    between atoms: C_26  and  C_27
REMARK   10  A    between atoms: C_27  and  C_28
REMARK   11  A    between atoms: C_27  and  C_29
REMARK                            x       y       z     vdW  Elec       q    Type
REMARK                         _______ _______ _______ _____ _____    ______ ____
ROOT
ATOM      1  C   UNL     1       2.190   5.025  20.183  0.00  0.00    +0.000 A 
ATOM      2  C   UNL     1       1.059   4.258  20.549  0.00  0.00    +0.000 A 
ATOM      3  C   UNL     1       0.877   2.942  20.133  0.00  0.00    +0.000 A 
ATOM      4  C   UNL     1       1.838   2.327  19.340  0.00  0.00    +0.000 A 
ATOM      5  C   UNL     1       2.918   3.090  18.874  0.00  0.00    +0.000 A 
ATOM      6  C   UNL     1       4.028   2.791  18.069  0.00  0.00    +0.000 A 
ATOM      7  C   UNL     1       4.623   3.993  17.746  0.00  0.00    +0.000 A 
ATOM      8  O   UNL     1       4.103   4.995  18.535  0.00  0.00    +0.000 OA
ATOM      9  C   UNL     1       3.043   4.436  19.233  0.00  0.00    +0.000 A 
ENDROOT
BRANCH   1  13
ATOM     10  N   UNL     1       1.797   8.386  21.528  0.00  0.00    +0.000 N 
ATOM     11  C   UNL     1       1.450   7.227  20.854  0.00  0.00    +0.000 C 
ATOM     12  O   UNL     1       0.355   7.043  20.329  0.00  0.00    +0.000 OA
ATOM     13  N   UNL     1       2.458   6.259  20.848  0.00  0.00    +0.000 N 
ATOM     14  H   UNL     1       2.783   8.568  21.645  0.00  0.00    +0.000 HD
ATOM     15  H   UNL     1       2.989   6.182  21.704  0.00  0.00    +0.000 HD
BRANCH  10  19
ATOM     16  C   UNL     1      -0.964  11.500  22.496  0.00  0.00    +0.000 A 
ATOM     17  C   UNL     1      -0.078  11.636  21.432  0.00  0.00    +0.000 A 
ATOM     18  C   UNL     1       0.817  10.619  21.111  0.00  0.00    +0.000 A 
ATOM     19  C   UNL     1       0.891   9.438  21.851  0.00  0.00    +0.000 A 
ATOM     20  C   UNL     1       0.007   9.294  22.927  0.00  0.00    +0.000 A 
ATOM     21  C   UNL     1      -0.911  10.319  23.249  0.00  0.00    +0.000 A 
BRANCH  16  22
ATOM     22  O   UNL     1      -1.885  12.447  22.866  0.00  0.00    +0.000 OA
BRANCH  22  23
ATOM     23  C   UNL     1      -1.561  13.775  22.439  0.00  0.00    +0.000 C 
BRANCH  23  24
ATOM     24  C   UNL     1      -0.994  14.613  23.584  0.00  0.00    +0.000 C 
BRANCH  24  26
ATOM     25  C   UNL     1      -0.960  16.983  22.693  0.00  0.00    +0.000 C 
ATOM     26  C   UNL     1      -1.669  15.986  23.594  0.00  0.00    +0.000 C 
ENDBRANCH  24  26
ENDBRANCH  23  24
ENDBRANCH  22  23
ENDBRANCH  16  22
ENDBRANCH  10  19
ENDBRANCH   1  13
BRANCH   7  27
ATOM     27  C   UNL     1       5.610   4.254  16.688  0.00  0.00    +0.000 A 
ATOM     28  C   UNL     1       5.419   3.537  15.479  0.00  0.00    +0.000 A 
ATOM     29  C   UNL     1       6.060   3.889  14.292  0.00  0.00    +0.000 A 
ATOM     30  C   UNL     1       6.951   4.945  14.291  0.00  0.00    +0.000 A 
ATOM     31  C   UNL     1       7.205   5.633  15.477  0.00  0.00    +0.000 A 
ATOM     32  C   UNL     1       6.532   5.328  16.687  0.00  0.00    +0.000 A 
BRANCH  32  33
ATOM     33  C   UNL     1       6.819   6.191  17.912  0.00  0.00    +0.000 C 
ATOM     34  C   UNL     1       7.723   5.423  18.882  0.00  0.00    +0.000 C 
ATOM     35  C   UNL     1       7.458   7.552  17.579  0.00  0.00    +0.000 C 
ENDBRANCH  32  33
ENDBRANCH   7  27
TORSDOF 8
ENDMDL
MODEL 7
REMARK VINA RESULT:      -8.1      0.886      1.031
REMARK  Name = 
REMARK  11 active torsions:
REMARK  status: ('A' for Active; 'I' for Inactive)
REMARK    1  A    between atoms: C_1  and  C_2
REMARK    2  A    between atoms: C_2  and  C_3
REMARK    3  A    between atoms: C_3  and  C_4
REMARK    4  A    between atoms: C_4  and  O_5
REMARK    5  A    between atoms: O_5  and  C_6
REMARK    6  A    between atoms: C_9  and  N_10
REMARK    7  A    between atoms: N_13  and  C_14
REMARK    8  A    between atoms: C_20  and  C_21
REMARK    9  A    between atoms: C_26  and  C_27
REMARK   10  A    between atoms: C_27  and  C_28
REMARK   11  A    between atoms: C_27  and  C_29
REMARK                            x       y       z     vdW  Elec       q    Type
REMARK                         _______ _______ _______ _____ _____    ______ ____
ROOT
ATOM      1  C   UNL     1       2.236   5.779  20.300  0.00  0.00    +0.000 A 
ATOM      2  C   UNL     1       1.229   4.993  20.907  0.00  0.00    +0.000 A 
ATOM      3  C   UNL     1       1.242   3.602  20.878  0.00  0.00    +0.000 A 
ATOM      4  C   UNL     1       2.281   2.931  20.246  0.00  0.00    +0.000 A 
ATOM      5  C   UNL     1       3.239   3.678  19.544  0.00  0.00    +0.000 A 
ATOM      6  C   UNL     1       4.381   3.326  18.808  0.00  0.00    +0.000 A 
ATOM      7  C   UNL     1       4.793   4.461  18.144  0.00  0.00    +0.000 A 
ATOM      8  O   UNL     1       4.134   5.560  18.647  0.00  0.00    +0.000 OA
ATOM      9  C   UNL     1       3.166   5.075  19.515  0.00  0.00    +0.000 A 
ENDROOT
BRANCH   1  13
ATOM     10  N   UNL     1       1.311   9.208  21.101  0.00  0.00    +0.000 N 
ATOM     11  C   UNL     1       1.129   7.863  20.821  0.00  0.00    +0.000 C 
ATOM     12  O   UNL     1       0.032   7.311  20.802  0.00  0.00    +0.000 OA
ATOM     13  N   UNL     1       2.322   7.173  20.589  0.00  0.00    +0.000 N 
ATOM     14  H   UNL     1       2.176   9.625  20.793  0.00  0.00    +0.000 HD
ATOM     15  H   UNL     1       3.100   7.447  21.171  0.00  0.00    +0.000 HD
BRANCH  10  19
ATOM     16  C   UNL     1      -1.790  11.787  22.512  0.00  0.00    +0.000 A 
ATOM     17  C   UNL     1      -1.224  11.972  21.255  0.00  0.00    +0.000 A 
ATOM     18  C   UNL     1      -0.219  11.129  20.791  0.00  0.00    +0.000 A 
ATOM     19  C   UNL     1       0.287  10.084  21.567  0.00  0.00    +0.000 A 
ATOM     20  C   UNL     1      -0.273   9.893  22.836  0.00  0.00    +0.000 A 
ATOM     21  C   UNL     1      -1.302  10.740  23.305  0.00  0.00    +0.000 A 
BRANCH  16  22
ATOM     22  O   UNL     1      -2.793  12.564  23.034  0.00  0.00    +0.000 OA
BRANCH  22  23
ATOM     23  C   UNL     1      -2.506  13.967  23.032  0.00  0.00    +0.000 C 
BRANCH  23  24
ATOM     24  C   UNL     1      -1.242  14.286  23.830  0.00  0.00    +0.000 C 
BRANCH  24  26
ATOM     25  C   UNL     1      -1.595  15.546  25.998  0.00  0.00    +0.000 C 
ATOM     26  C   UNL     1      -1.391  15.655  24.496  0.00  0.00    +0.000 C 
ENDBRANCH  24  26
ENDBRANCH  23  24
ENDBRANCH  22  23
ENDBRANCH  16  22
ENDBRANCH  10  19
ENDBRANCH   1  13
BRANCH   7  27
ATOM     27  C   UNL     1       5.732   4.554  17.015  0.00  0.00    +0.000 A 
ATOM     28  C   UNL     1       5.445   3.716  15.908  0.00  0.00    +0.000 A 
ATOM     29  C   UNL     1       6.034   3.901  14.658  0.00  0.00    +0.000 A 
ATOM     30  C   UNL     1       6.969   4.906  14.492  0.00  0.00    +0.000 A 
ATOM     31  C   UNL     1       7.316   5.709  15.577  0.00  0.00    +0.000 A 
ATOM     32  C   UNL     1       6.698   5.575  16.846  0.00  0.00    +0.000 A 
BRANCH  32  33
ATOM     33  C   UNL     1       7.088   6.555  17.949  0.00  0.00    +0.000 C 
ATOM     34  C   UNL     1       7.952   5.838  18.991  0.00  0.00    +0.000 C 
ATOM     35  C   UNL     1       7.826   7.805  17.437  0.00  0.00    +0.000 C 
ENDBRANCH  32  33
ENDBRANCH   7  27
TORSDOF 8
ENDMDL
MODEL 8
REMARK VINA RESULT:      -8.1      4.858      6.879
REMARK  Name = 
REMARK  11 active torsions:
REMARK  status: ('A' for Active; 'I' for Inactive)
REMARK    1  A    between atoms: C_1  and  C_2
REMARK    2  A    between atoms: C_2  and  C_3
REMARK    3  A    between atoms: C_3  and  C_4
REMARK    4  A    between atoms: C_4  and  O_5
REMARK    5  A    between atoms: O_5  and  C_6
REMARK    6  A    between atoms: C_9  and  N_10
REMARK    7  A    between atoms: N_13  and  C_14
REMARK    8  A    between atoms: C_20  and  C_21
REMARK    9  A    between atoms: C_26  and  C_27
REMARK   10  A    between atoms: C_27  and  C_28
REMARK   11  A    between atoms: C_27  and  C_29
REMARK                            x       y       z     vdW  Elec       q    Type
REMARK                         _______ _______ _______ _____ _____    ______ ____
ROOT
ATOM      1  C   UNL     1       0.714  10.218  19.331  0.00  0.00    +0.000 A 
ATOM      2  C   UNL     1      -0.211  10.420  20.382  0.00  0.00    +0.000 A 
ATOM      3  C   UNL     1      -0.354   9.525  21.438  0.00  0.00    +0.000 A 
ATOM      4  C   UNL     1       0.441   8.387  21.496  0.00  0.00    +0.000 A 
ATOM      5  C   UNL     1       1.292   8.103  20.418  0.00  0.00    +0.000 A 
ATOM      6  C   UNL     1       2.197   7.062  20.157  0.00  0.00    +0.000 A 
ATOM      7  C   UNL     1       2.571   7.180  18.835  0.00  0.00    +0.000 A 
ATOM      8  O   UNL     1       2.161   8.398  18.343  0.00  0.00    +0.000 OA
ATOM      9  C   UNL     1       1.365   8.972  19.324  0.00  0.00    +0.000 A 
ENDROOT
BRANCH   1  13
ATOM     10  N   UNL     1       1.983  13.352  17.978  0.00  0.00    +0.000 N 
ATOM     11  C   UNL     1       1.736  12.371  18.926  0.00  0.00    +0.000 C 
ATOM     12  O   UNL     1       2.133  12.426  20.087  0.00  0.00    +0.000 OA
ATOM     13  N   UNL     1       1.011  11.284  18.430  0.00  0.00    +0.000 N 
ATOM     14  H   UNL     1       1.373  13.374  17.175  0.00  0.00    +0.000 HD
ATOM     15  H   UNL     1       1.243  11.002  17.488  0.00  0.00    +0.000 HD
BRANCH  10  19
ATOM     16  C   UNL     1       4.652  16.633  18.582  0.00  0.00    +0.000 A 
ATOM     17  C   UNL     1       3.278  16.794  18.726  0.00  0.00    +0.000 A 
ATOM     18  C   UNL     1       2.408  15.725  18.537  0.00  0.00    +0.000 A 
ATOM     19  C   UNL     1       2.862  14.457  18.168  0.00  0.00    +0.000 A 
ATOM     20  C   UNL     1       4.243  14.287  18.015  0.00  0.00    +0.000 A 
ATOM     21  C   UNL     1       5.131  15.367  18.218  0.00  0.00    +0.000 A 
BRANCH  16  22
ATOM     22  O   UNL     1       5.575  17.631  18.765  0.00  0.00    +0.000 OA
BRANCH  22  23
ATOM     23  C   UNL     1       6.928  17.170  18.837  0.00  0.00    +0.000 C 
BRANCH  23  24
ATOM     24  C   UNL     1       7.541  17.429  20.212  0.00  0.00    +0.000 C 
BRANCH  24  26
ATOM     25  C   UNL     1       6.357  15.829  21.778  0.00  0.00    +0.000 C 
ATOM     26  C   UNL     1       7.625  16.114  20.989  0.00  0.00    +0.000 C 
ENDBRANCH  24  26
ENDBRANCH  23  24
ENDBRANCH  22  23
ENDBRANCH  16  22
ENDBRANCH  10  19
ENDBRANCH   1  13
BRANCH   7  27
ATOM     27  C   UNL     1       3.238   6.174  17.995  0.00  0.00    +0.000 A 
ATOM     28  C   UNL     1       4.251   6.669  17.134  0.00  0.00    +0.000 A 
ATOM     29  C   UNL     1       5.178   5.832  16.513  0.00  0.00    +0.000 A 
ATOM     30  C   UNL     1       5.088   4.465  16.700  0.00  0.00    +0.000 A 
ATOM     31  C   UNL     1       4.067   3.945  17.493  0.00  0.00    +0.000 A 
ATOM     32  C   UNL     1       3.141   4.774  18.174  0.00  0.00    +0.000 A 
BRANCH  32  33
ATOM     33  C   UNL     1       2.109   4.112  19.084  0.00  0.00    +0.000 C 
ATOM     34  C   UNL     1       1.243   3.150  18.264  0.00  0.00    +0.000 C 
ATOM     35  C   UNL     1       2.724   3.362  20.279  0.00  0.00    +0.000 C 
ENDBRANCH  32  33
ENDBRANCH   7  27
TORSDOF 8
ENDMDL
MODEL 9
REMARK VINA RESULT:      -8.0      5.369      8.309
REMARK  Name = 
REMARK  11 active torsions:
REMARK  status: ('A' for Active; 'I' for Inactive)
REMARK    1  A    between atoms: C_1  and  C_2
REMARK    2  A    between atoms: C_2  and  C_3
REMARK    3  A    between atoms: C_3  and  C_4
REMARK    4  A    between atoms: C_4  and  O_5
REMARK    5  A    between atoms: O_5  and  C_6
REMARK    6  A    between atoms: C_9  and  N_10
REMARK    7  A    between atoms: N_13  and  C_14
REMARK    8  A    between atoms: C_20  and  C_21
REMARK    9  A    between atoms: C_26  and  C_27
REMARK   10  A    between atoms: C_27  and  C_28
REMARK   11  A    between atoms: C_27  and  C_29
REMARK                            x       y       z     vdW  Elec       q    Type
REMARK                         _______ _______ _______ _____ _____    ______ ____
ROOT
ATOM      1  C   UNL     1       7.145   6.204  17.426  0.00  0.00    +0.000 A 
ATOM      2  C   UNL     1       7.562   6.131  16.076  0.00  0.00    +0.000 A 
ATOM      3  C   UNL     1       6.714   5.725  15.050  0.00  0.00    +0.000 A 
ATOM      4  C   UNL     1       5.396   5.386  15.332  0.00  0.00    +0.000 A 
ATOM      5  C   UNL     1       4.982   5.346  16.671  0.00  0.00    +0.000 A 
ATOM      6  C   UNL     1       3.758   5.043  17.289  0.00  0.00    +0.000 A 
ATOM      7  C   UNL     1       4.010   4.933  18.640  0.00  0.00    +0.000 A 
ATOM      8  O   UNL     1       5.265   5.424  18.921  0.00  0.00    +0.000 OA
ATOM      9  C   UNL     1       5.870   5.679  17.699  0.00  0.00    +0.000 A 
ENDROOT
BRANCH   1  13
ATOM     10  N   UNL     1       9.005   8.806  19.168  0.00  0.00    +0.000 N 
ATOM     11  C   UNL     1       8.214   8.237  18.183  0.00  0.00    +0.000 C 
ATOM     12  O   UNL     1       7.753   8.860  17.230  0.00  0.00    +0.000 OA
ATOM     13  N   UNL     1       7.959   6.878  18.386  0.00  0.00    +0.000 N 
ATOM     14  H   UNL     1       9.578   8.180  19.712  0.00  0.00    +0.000 HD
ATOM     15  H   UNL     1       7.809   6.605  19.347  0.00  0.00    +0.000 HD
BRANCH  10  19
ATOM     16  C   UNL     1       9.773  12.992  19.545  0.00  0.00    +0.000 A 
ATOM     17  C   UNL     1       9.537  12.206  20.667  0.00  0.00    +0.000 A 
ATOM     18  C   UNL     1       9.294  10.841  20.546  0.00  0.00    +0.000 A 
ATOM     19  C   UNL     1       9.245  10.205  19.305  0.00  0.00    +0.000 A 
ATOM     20  C   UNL     1       9.476  10.989  18.169  0.00  0.00    +0.000 A 
ATOM     21  C   UNL     1       9.736  12.373  18.288  0.00  0.00    +0.000 A 
BRANCH  16  22
ATOM     22  O   UNL     1      10.035  14.339  19.581  0.00  0.00    +0.000 OA
BRANCH  22  23
ATOM     23  C   UNL     1       8.879  15.153  19.805  0.00  0.00    +0.000 C 
BRANCH  23  24
ATOM     24  C   UNL     1       8.642  16.127  18.652  0.00  0.00    +0.000 C 
BRANCH  24  26
ATOM     25  C   UNL     1       6.587  14.667  18.419  0.00  0.00    +0.000 C 
ATOM     26  C   UNL     1       7.596  15.546  17.699  0.00  0.00    +0.000 C 
ENDBRANCH  24  26
ENDBRANCH  23  24
ENDBRANCH  22  23
ENDBRANCH  16  22
ENDBRANCH  10  19
ENDBRANCH   1  13
BRANCH   7  27
ATOM     27  C   UNL     1       3.151   4.329  19.670  0.00  0.00    +0.000 A 
ATOM     28  C   UNL     1       2.006   5.082  20.034  0.00  0.00    +0.000 A 
ATOM     29  C   UNL     1       0.944   4.529  20.748  0.00  0.00    +0.000 A 
ATOM     30  C   UNL     1       1.018   3.212  21.161  0.00  0.00    +0.000 A 
ATOM     31  C   UNL     1       2.157   2.463  20.871  0.00  0.00    +0.000 A 
ATOM     32  C   UNL     1       3.231   2.984  20.105  0.00  0.00    +0.000 A 
BRANCH  32  33
ATOM     33  C   UNL     1       4.398   2.059  19.771  0.00  0.00    +0.000 C 
ATOM     34  C   UNL     1       4.878   1.357  21.045  0.00  0.00    +0.000 C 
ATOM     35  C   UNL     1       4.071   1.010  18.693  0.00  0.00    +0.000 C 
ENDBRANCH  32  33
ENDBRANCH   7  27
TORSDOF 8
ENDMDL
