MODEL 1
REMARK VINA RESULT:      -8.4      0.000      0.000
REMARK  Name = 
REMARK  10 active torsions:
REMARK  status: ('A' for Active; 'I' for Inactive)
REMARK    1  A    between atoms: C_1  and  C_2
REMARK    2  A    between atoms: C_2  and  C_3
REMARK    3  A    between atoms: C_3  and  C_5
REMARK    4  A    between atoms: N_8  and  C_9
REMARK    5  A    between atoms: C_11  and  C_12
REMARK    6  A    between atoms: C_12  and  O_13
REMARK    7  A    between atoms: O_13  and  C_14
REMARK    8  A    between atoms: C_14  and  C_15
REMARK    9  A    between atoms: C_17  and  O_18
REMARK   10  A    between atoms: C_19  and  O_20
REMARK                            x       y       z     vdW  Elec       q    Type
REMARK                         _______ _______ _______ _____ _____    ______ ____
ROOT
ATOM      1  C   UNL     1       6.587   5.735  17.428  0.00  0.00    +0.000 A 
ATOM      2  C   UNL     1       5.517   5.183  18.097  0.00  0.00    +0.000 A 
ATOM      3 CL   UNL     1       5.076   5.451  19.722  0.00  0.00    +0.000 Cl
ATOM      4  N   UNL     1       4.784   4.374  17.268  0.00  0.00    +0.000 N 
ATOM      5  C   UNL     1       5.370   4.418  16.001  0.00  0.00    +0.000 A 
ATOM      6  C   UNL     1       5.020   3.791  14.788  0.00  0.00    +0.000 A 
ATOM      7  C   UNL     1       5.811   4.012  13.651  0.00  0.00    +0.000 A 
ATOM      8 CL   UNL     1       5.335   3.230  12.183  0.00  0.00    +0.000 Cl
ATOM      9  C   UNL     1       6.936   4.831  13.719  0.00  0.00    +0.000 A 
ATOM     10 CL   UNL     1       7.951   5.138  12.354  0.00  0.00    +0.000 Cl
ATOM     11  C   UNL     1       7.285   5.444  14.927  0.00  0.00    +0.000 A 
ATOM     12  C   UNL     1       6.494   5.258  16.085  0.00  0.00    +0.000 A 
ENDROOT
BRANCH   4  13
ATOM     13  C   UNL     1       3.615   3.556  17.612  0.00  0.00    +0.000 C 
ATOM     14  O   UNL     1       2.449   4.389  17.794  0.00  0.00    +0.000 OA
ATOM     15  C   UNL     1       1.635   3.829  18.856  0.00  0.00    +0.000 C 
ATOM     16  C   UNL     1       2.315   2.533  19.310  0.00  0.00    +0.000 C 
ATOM     17  C   UNL     1       3.766   2.696  18.867  0.00  0.00    +0.000 C 
BRANCH  16  18
ATOM     18  O   UNL     1       1.781   1.378  18.633  0.00  0.00    +0.000 OA
ATOM     19  H   UNL     1       1.877   0.594  19.203  0.00  0.00    +0.000 HD
ENDBRANCH  16  18
BRANCH  17  20
ATOM     20  O   UNL     1       4.368   1.429  18.595  0.00  0.00    +0.000 OA
ATOM     21  H   UNL     1       4.284   0.905  19.421  0.00  0.00    +0.000 HD
ENDBRANCH  17  20
BRANCH  15  22
ATOM     22  C   UNL     1       1.468   4.860  19.977  0.00  0.00    +0.000 C 
BRANCH  22  23
ATOM     23  O   UNL     1       2.469   5.886  19.950  0.00  0.00    +0.000 OA
BRANCH  23  24
ATOM     24  C   UNL     1       2.005   7.162  19.925  0.00  0.00    +0.000 C 
ATOM     25  C   UNL     1       2.317   7.806  18.607  0.00  0.00    +0.000 C 
ATOM     26  O   UNL     1       1.411   7.712  20.838  0.00  0.00    +0.000 OA
ENDBRANCH  23  24
ENDBRANCH  22  23
ENDBRANCH  15  22
ENDBRANCH   4  13
BRANCH   1  27
ATOM     27  C   UNL     1       7.574   6.621  18.049  0.00  0.00    +0.000 C 
ATOM     28  O   UNL     1       8.274   6.236  18.989  0.00  0.00    +0.000 OA
BRANCH  27  30
ATOM     29  C   UNL     1       8.527   8.905  18.455  0.00  0.00    +0.000 C 
ATOM     30  C   UNL     1       7.749   8.021  17.495  0.00  0.00    +0.000 C 
ENDBRANCH  27  30
ENDBRANCH   1  27
TORSDOF 8
ENDMDL
MODEL 2
REMARK VINA RESULT:      -8.0      1.101      1.212
REMARK  Name = 
REMARK  10 active torsions:
REMARK  status: ('A' for Active; 'I' for Inactive)
REMARK    1  A    between atoms: C_1  and  C_2
REMARK    2  A    between atoms: C_2  and  C_3
REMARK    3  A    between atoms: C_3  and  C_5
REMARK    4  A    between atoms: N_8  and  C_9
REMARK    5  A    between atoms: C_11  and  C_12
REMARK    6  A    between atoms: C_12  and  O_13
REMARK    7  A    between atoms: O_13  and  C_14
REMARK    8  A    between atoms: C_14  and  C_15
REMARK    9  A    between atoms: C_17  and  O_18
REMARK   10  A    between atoms: C_19  and  O_20
REMARK                            x       y       z     vdW  Elec       q    Type
REMARK                         _______ _______ _______ _____ _____    ______ ____
ROOT
ATOM      1  C   UNL     1       6.740   5.755  17.392  0.00  0.00    +0.000 A 
ATOM      2  C   UNL     1       5.789   5.022  18.067  0.00  0.00    +0.000 A 
ATOM      3 CL   UNL     1       5.325   5.200  19.698  0.00  0.00    +0.000 Cl
ATOM      4  N   UNL     1       5.199   4.103  17.239  0.00  0.00    +0.000 N 
ATOM      5  C   UNL     1       5.754   4.256  15.967  0.00  0.00    +0.000 A 
ATOM      6  C   UNL     1       5.506   3.584  14.752  0.00  0.00    +0.000 A 
ATOM      7  C   UNL     1       6.234   3.946  13.609  0.00  0.00    +0.000 A 
ATOM      8 CL   UNL     1       5.886   3.101  12.140  0.00  0.00    +0.000 Cl
ATOM      9  C   UNL     1       7.201   4.948  13.673  0.00  0.00    +0.000 A 
ATOM     10 CL   UNL     1       8.133   5.434  12.301  0.00  0.00    +0.000 Cl
ATOM     11  C   UNL     1       7.451   5.605  14.882  0.00  0.00    +0.000 A 
ATOM     12  C   UNL     1       6.717   5.277  16.046  0.00  0.00    +0.000 A 
ENDROOT
BRANCH   4  13
ATOM     13  C   UNL     1       4.193   3.093  17.587  0.00  0.00    +0.000 C 
ATOM     14  O   UNL     1       2.883   3.506  17.141  0.00  0.00    +0.000 OA
ATOM     15  C   UNL     1       1.898   3.065  18.110  0.00  0.00    +0.000 C 
ATOM     16  C   UNL     1       2.647   2.274  19.187  0.00  0.00    +0.000 C 
ATOM     17  C   UNL     1       4.088   2.762  19.077  0.00  0.00    +0.000 C 
BRANCH  16  18
ATOM     18  O   UNL     1       2.646   0.858  18.915  0.00  0.00    +0.000 OA
ATOM     19  H   UNL     1       1.961   0.655  18.253  0.00  0.00    +0.000 HD
ENDBRANCH  16  18
BRANCH  17  20
ATOM     20  O   UNL     1       5.010   1.748  19.480  0.00  0.00    +0.000 OA
ATOM     21  H   UNL     1       5.887   2.025  19.138  0.00  0.00    +0.000 HD
ENDBRANCH  17  20
BRANCH  15  22
ATOM     22  C   UNL     1       1.133   4.275  18.656  0.00  0.00    +0.000 C 
BRANCH  22  23
ATOM     23  O   UNL     1       0.866   4.182  20.062  0.00  0.00    +0.000 OA
BRANCH  23  24
ATOM     24  C   UNL     1       1.718   4.864  20.870  0.00  0.00    +0.000 C 
ATOM     25  C   UNL     1       1.724   6.321  20.513  0.00  0.00    +0.000 C 
ATOM     26  O   UNL     1       2.382   4.371  21.767  0.00  0.00    +0.000 OA
ENDBRANCH  23  24
ENDBRANCH  22  23
ENDBRANCH  15  22
ENDBRANCH   4  13
BRANCH   1  27
ATOM     27  C   UNL     1       7.564   6.796  18.009  0.00  0.00    +0.000 C 
ATOM     28  O   UNL     1       8.288   6.545  18.976  0.00  0.00    +0.000 OA
BRANCH  27  30
ATOM     29  C   UNL     1       8.433   9.141  18.204  0.00  0.00    +0.000 C 
ATOM     30  C   UNL     1       7.541   8.192  17.420  0.00  0.00    +0.000 C 
ENDBRANCH  27  30
ENDBRANCH   1  27
TORSDOF 8
ENDMDL
MODEL 3
REMARK VINA RESULT:      -7.8      2.950      7.336
REMARK  Name = 
REMARK  10 active torsions:
REMARK  status: ('A' for Active; 'I' for Inactive)
REMARK    1  A    between atoms: C_1  and  C_2
REMARK    2  A    between atoms: C_2  and  C_3
REMARK    3  A    between atoms: C_3  and  C_5
REMARK    4  A    between atoms: N_8  and  C_9
REMARK    5  A    between atoms: C_11  and  C_12
REMARK    6  A    between atoms: C_12  and  O_13
REMARK    7  A    between atoms: O_13  and  C_14
REMARK    8  A    between atoms: C_14  and  C_15
REMARK    9  A    between atoms: C_17  and  O_18
REMARK   10  A    between atoms: C_19  and  O_20
REMARK                            x       y       z     vdW  Elec       q    Type
REMARK                         _______ _______ _______ _____ _____    ______ ____
ROOT
ATOM      1  C   UNL     1       2.685   4.499  20.174  0.00  0.00    +0.000 A 
ATOM      2  C   UNL     1       3.726   4.491  19.272  0.00  0.00    +0.000 A 
ATOM      3 CL   UNL     1       4.672   3.150  18.810  0.00  0.00    +0.000 Cl
ATOM      4  N   UNL     1       3.915   5.736  18.729  0.00  0.00    +0.000 N 
ATOM      5  C   UNL     1       2.947   6.587  19.266  0.00  0.00    +0.000 A 
ATOM      6  C   UNL     1       2.681   7.954  19.047  0.00  0.00    +0.000 A 
ATOM      7  C   UNL     1       1.629   8.566  19.745  0.00  0.00    +0.000 A 
ATOM      8 CL   UNL     1       1.334  10.242  19.436  0.00  0.00    +0.000 Cl
ATOM      9  C   UNL     1       0.863   7.838  20.654  0.00  0.00    +0.000 A 
ATOM     10 CL   UNL     1      -0.441   8.537  21.546  0.00  0.00    +0.000 Cl
ATOM     11  C   UNL     1       1.137   6.484  20.875  0.00  0.00    +0.000 A 
ATOM     12  C   UNL     1       2.176   5.834  20.169  0.00  0.00    +0.000 A 
ENDROOT
BRANCH   4  13
ATOM     13  C   UNL     1       4.957   6.158  17.786  0.00  0.00    +0.000 C 
ATOM     14  O   UNL     1       4.523   5.950  16.424  0.00  0.00    +0.000 OA
ATOM     15  C   UNL     1       5.664   5.548  15.624  0.00  0.00    +0.000 C 
ATOM     16  C   UNL     1       6.890   5.573  16.543  0.00  0.00    +0.000 C 
ATOM     17  C   UNL     1       6.307   5.458  17.949  0.00  0.00    +0.000 C 
BRANCH  16  18
ATOM     18  O   UNL     1       7.595   6.829  16.467  0.00  0.00    +0.000 OA
ATOM     19  H   UNL     1       6.956   7.563  16.505  0.00  0.00    +0.000 HD
ENDBRANCH  16  18
BRANCH  17  20
ATOM     20  O   UNL     1       7.146   6.102  18.910  0.00  0.00    +0.000 OA
ATOM     21  H   UNL     1       6.625   6.146  19.740  0.00  0.00    +0.000 HD
ENDBRANCH  17  20
BRANCH  15  22
ATOM     22  C   UNL     1       5.397   4.177  14.995  0.00  0.00    +0.000 C 
BRANCH  22  23
ATOM     23  O   UNL     1       6.467   3.726  14.154  0.00  0.00    +0.000 OA
BRANCH  23  24
ATOM     24  C   UNL     1       6.212   3.730  12.821  0.00  0.00    +0.000 C 
ATOM     25  C   UNL     1       7.316   4.423  12.079  0.00  0.00    +0.000 C 
ATOM     26  O   UNL     1       5.230   3.235  12.292  0.00  0.00    +0.000 OA
ENDBRANCH  23  24
ENDBRANCH  22  23
ENDBRANCH  15  22
ENDBRANCH   4  13
BRANCH   1  27
ATOM     27  C   UNL     1       2.257   3.329  20.942  0.00  0.00    +0.000 C 
ATOM     28  O   UNL     1       2.343   3.307  22.172  0.00  0.00    +0.000 OA
BRANCH  27  30
ATOM     29  C   UNL     1       0.705   2.590  19.115  0.00  0.00    +0.000 C 
ATOM     30  C   UNL     1       1.670   2.144  20.201  0.00  0.00    +0.000 C 
ENDBRANCH  27  30
ENDBRANCH   1  27
TORSDOF 8
ENDMDL
MODEL 4
REMARK VINA RESULT:      -7.5      2.923      7.242
REMARK  Name = 
REMARK  10 active torsions:
REMARK  status: ('A' for Active; 'I' for Inactive)
REMARK    1  A    between atoms: C_1  and  C_2
REMARK    2  A    between atoms: C_2  and  C_3
REMARK    3  A    between atoms: C_3  and  C_5
REMARK    4  A    between atoms: N_8  and  C_9
REMARK    5  A    between atoms: C_11  and  C_12
REMARK    6  A    between atoms: C_12  and  O_13
REMARK    7  A    between atoms: O_13  and  C_14
REMARK    8  A    between atoms: C_14  and  C_15
REMARK    9  A    between atoms: C_17  and  O_18
REMARK   10  A    between atoms: C_19  and  O_20
REMARK                            x       y       z     vdW  Elec       q    Type
REMARK                         _______ _______ _______ _____ _____    ______ ____
ROOT
ATOM      1  C   UNL     1       2.558   5.208  19.890  0.00  0.00    +0.000 A 
ATOM      2  C   UNL     1       3.640   5.003  19.064  0.00  0.00    +0.000 A 
ATOM      3 CL   UNL     1       4.498   3.546  18.839  0.00  0.00    +0.000 Cl
ATOM      4  N   UNL     1       3.957   6.146  18.377  0.00  0.00    +0.000 N 
ATOM      5  C   UNL     1       3.033   7.130  18.737  0.00  0.00    +0.000 A 
ATOM      6  C   UNL     1       2.890   8.472  18.327  0.00  0.00    +0.000 A 
ATOM      7  C   UNL     1       1.856   9.247  18.873  0.00  0.00    +0.000 A 
ATOM      8 CL   UNL     1       1.713  10.883  18.331  0.00  0.00    +0.000 Cl
ATOM      9  C   UNL     1       0.988   8.704  19.819  0.00  0.00    +0.000 A 
ATOM     10 CL   UNL     1      -0.301   9.610  20.530  0.00  0.00    +0.000 Cl
ATOM     11  C   UNL     1       1.139   7.376  20.230  0.00  0.00    +0.000 A 
ATOM     12  C   UNL     1       2.159   6.563  19.680  0.00  0.00    +0.000 A 
ENDROOT
BRANCH   4  13
ATOM     13  C   UNL     1       5.076   6.361  17.453  0.00  0.00    +0.000 C 
ATOM     14  O   UNL     1       4.661   6.129  16.089  0.00  0.00    +0.000 OA
ATOM     15  C   UNL     1       5.760   5.524  15.361  0.00  0.00    +0.000 C 
ATOM     16  C   UNL     1       6.947   5.439  16.325  0.00  0.00    +0.000 C 
ATOM     17  C   UNL     1       6.310   5.494  17.710  0.00  0.00    +0.000 C 
BRANCH  16  18
ATOM     18  O   UNL     1       7.823   6.578  16.204  0.00  0.00    +0.000 OA
ATOM     19  H   UNL     1       8.607   6.446  16.768  0.00  0.00    +0.000 HD
ENDBRANCH  16  18
BRANCH  17  20
ATOM     20  O   UNL     1       7.200   6.075  18.665  0.00  0.00    +0.000 OA
ATOM     21  H   UNL     1       6.652   6.294  19.449  0.00  0.00    +0.000 HD
ENDBRANCH  17  20
BRANCH  15  22
ATOM     22  C   UNL     1       5.323   4.167  14.801  0.00  0.00    +0.000 C 
BRANCH  22  23
ATOM     23  O   UNL     1       6.353   3.513  14.047  0.00  0.00    +0.000 OA
BRANCH  23  24
ATOM     24  C   UNL     1       6.353   3.760  12.712  0.00  0.00    +0.000 C 
ATOM     25  C   UNL     1       5.085   3.259  12.087  0.00  0.00    +0.000 C 
ATOM     26  O   UNL     1       7.251   4.317  12.101  0.00  0.00    +0.000 OA
ENDBRANCH  23  24
ENDBRANCH  22  23
ENDBRANCH  15  22
ENDBRANCH   4  13
BRANCH   1  27
ATOM     27  C   UNL     1       1.997   4.185  20.776  0.00  0.00    +0.000 C 
ATOM     28  O   UNL     1       2.509   3.940  21.871  0.00  0.00    +0.000 OA
BRANCH  27  30
ATOM     29  C   UNL     1       1.049   2.455  19.227  0.00  0.00    +0.000 C 
ATOM     30  C   UNL     1       0.747   3.446  20.339  0.00  0.00    +0.000 C 
ENDBRANCH  27  30
ENDBRANCH   1  27
TORSDOF 8
ENDMDL
MODEL 5
REMARK VINA RESULT:      -7.5      1.251      1.927
REMARK  Name = 
REMARK  10 active torsions:
REMARK  status: ('A' for Active; 'I' for Inactive)
REMARK    1  A    between atoms: C_1  and  C_2
REMARK    2  A    between atoms: C_2  and  C_3
REMARK    3  A    between atoms: C_3  and  C_5
REMARK    4  A    between atoms: N_8  and  C_9
REMARK    5  A    between atoms: C_11  and  C_12
REMARK    6  A    between atoms: C_12  and  O_13
REMARK    7  A    between atoms: O_13  and  C_14
REMARK    8  A    between atoms: C_14  and  C_15
REMARK    9  A    between atoms: C_17  and  O_18
REMARK   10  A    between atoms: C_19  and  O_20
REMARK                            x       y       z     vdW  Elec       q    Type
REMARK                         _______ _______ _______ _____ _____    ______ ____
ROOT
ATOM      1  C   UNL     1       6.443   5.862  17.339  0.00  0.00    +0.000 A 
ATOM      2  C   UNL     1       5.306   5.346  17.920  0.00  0.00    +0.000 A 
ATOM      3 CL   UNL     1       4.736   5.645  19.499  0.00  0.00    +0.000 Cl
ATOM      4  N   UNL     1       4.625   4.546  17.040  0.00  0.00    +0.000 N 
ATOM      5  C   UNL     1       5.316   4.560  15.827  0.00  0.00    +0.000 A 
ATOM      6  C   UNL     1       5.053   3.927  14.594  0.00  0.00    +0.000 A 
ATOM      7  C   UNL     1       5.943   4.115  13.526  0.00  0.00    +0.000 A 
ATOM      8 CL   UNL     1       5.573   3.327  12.032  0.00  0.00    +0.000 Cl
ATOM      9  C   UNL     1       7.080   4.905  13.682  0.00  0.00    +0.000 A 
ATOM     10 CL   UNL     1       8.215   5.169  12.405  0.00  0.00    +0.000 Cl
ATOM     11  C   UNL     1       7.343   5.523  14.909  0.00  0.00    +0.000 A 
ATOM     12  C   UNL     1       6.452   5.371  15.997  0.00  0.00    +0.000 A 
ENDROOT
BRANCH   4  13
ATOM     13  C   UNL     1       3.409   3.763  17.291  0.00  0.00    +0.000 C 
ATOM     14  O   UNL     1       2.363   4.605  17.824  0.00  0.00    +0.000 OA
ATOM     15  C   UNL     1       1.595   3.842  18.789  0.00  0.00    +0.000 C 
ATOM     16  C   UNL     1       2.167   2.421  18.800  0.00  0.00    +0.000 C 
ATOM     17  C   UNL     1       3.579   2.582  18.247  0.00  0.00    +0.000 C 
BRANCH  16  18
ATOM     18  O   UNL     1       1.449   1.544  17.909  0.00  0.00    +0.000 OA
ATOM     19  H   UNL     1       1.009   0.845  18.427  0.00  0.00    +0.000 HD
ENDBRANCH  16  18
BRANCH  17  20
ATOM     20  O   UNL     1       4.012   1.394  17.581  0.00  0.00    +0.000 OA
ATOM     21  H   UNL     1       4.617   1.687  16.866  0.00  0.00    +0.000 HD
ENDBRANCH  17  20
BRANCH  15  22
ATOM     22  C   UNL     1       1.645   4.536  20.154  0.00  0.00    +0.000 C 
BRANCH  22  23
ATOM     23  O   UNL     1       2.733   4.086  20.972  0.00  0.00    +0.000 OA
BRANCH  23  24
ATOM     24  C   UNL     1       2.516   2.936  21.661  0.00  0.00    +0.000 C 
ATOM     25  C   UNL     1       1.061   2.795  21.998  0.00  0.00    +0.000 C 
ATOM     26  O   UNL     1       3.375   2.123  21.960  0.00  0.00    +0.000 OA
ENDBRANCH  23  24
ENDBRANCH  22  23
ENDBRANCH  15  22
ENDBRANCH   4  13
BRANCH   1  27
ATOM     27  C   UNL     1       7.397   6.730  18.032  0.00  0.00    +0.000 C 
ATOM     28  O   UNL     1       8.057   6.316  18.988  0.00  0.00    +0.000 OA
BRANCH  27  30
ATOM     29  C   UNL     1       8.551   8.923  18.420  0.00  0.00    +0.000 C 
ATOM     30  C   UNL     1       7.589   8.149  17.535  0.00  0.00    +0.000 C 
ENDBRANCH  27  30
ENDBRANCH   1  27
TORSDOF 8
ENDMDL
MODEL 6
REMARK VINA RESULT:      -7.3      3.068      6.696
REMARK  Name = 
REMARK  10 active torsions:
REMARK  status: ('A' for Active; 'I' for Inactive)
REMARK    1  A    between atoms: C_1  and  C_2
REMARK    2  A    between atoms: C_2  and  C_3
REMARK    3  A    between atoms: C_3  and  C_5
REMARK    4  A    between atoms: N_8  and  C_9
REMARK    5  A    between atoms: C_11  and  C_12
REMARK    6  A    between atoms: C_12  and  O_13
REMARK    7  A    between atoms: O_13  and  C_14
REMARK    8  A    between atoms: C_14  and  C_15
REMARK    9  A    between atoms: C_17  and  O_18
REMARK   10  A    between atoms: C_19  and  O_20
REMARK                            x       y       z     vdW  Elec       q    Type
REMARK                         _______ _______ _______ _____ _____    ______ ____
ROOT
ATOM      1  C   UNL     1       2.892   4.307  20.266  0.00  0.00    +0.000 A 
ATOM      2  C   UNL     1       3.998   3.897  19.556  0.00  0.00    +0.000 A 
ATOM      3 CL   UNL     1       4.744   2.365  19.614  0.00  0.00    +0.000 Cl
ATOM      4  N   UNL     1       4.446   4.892  18.726  0.00  0.00    +0.000 N 
ATOM      5  C   UNL     1       3.588   5.985  18.870  0.00  0.00    +0.000 A 
ATOM      6  C   UNL     1       3.578   7.253  18.252  0.00  0.00    +0.000 A 
ATOM      7  C   UNL     1       2.583   8.177  18.602  0.00  0.00    +0.000 A 
ATOM      8 CL   UNL     1       2.606   9.714  17.810  0.00  0.00    +0.000 Cl
ATOM      9  C   UNL     1       1.622   7.854  19.559  0.00  0.00    +0.000 A 
ATOM     10 CL   UNL     1       0.375   8.952  20.036  0.00  0.00    +0.000 Cl
ATOM     11  C   UNL     1       1.641   6.599  20.176  0.00  0.00    +0.000 A 
ATOM     12  C   UNL     1       2.618   5.638  19.827  0.00  0.00    +0.000 A 
ENDROOT
BRANCH   4  13
ATOM     13  C   UNL     1       5.629   4.877  17.858  0.00  0.00    +0.000 C 
ATOM     14  O   UNL     1       6.683   5.689  18.422  0.00  0.00    +0.000 OA
ATOM     15  C   UNL     1       7.398   6.342  17.343  0.00  0.00    +0.000 C 
ATOM     16  C   UNL     1       6.784   5.848  16.029  0.00  0.00    +0.000 C 
ATOM     17  C   UNL     1       5.394   5.360  16.426  0.00  0.00    +0.000 C 
BRANCH  16  18
ATOM     18  O   UNL     1       7.502   4.721  15.488  0.00  0.00    +0.000 OA
ATOM     19  H   UNL     1       7.115   4.473  14.628  0.00  0.00    +0.000 HD
ENDBRANCH  16  18
BRANCH  17  20
ATOM     20  O   UNL     1       4.947   4.315  15.561  0.00  0.00    +0.000 OA
ATOM     21  H   UNL     1       4.295   4.725  14.952  0.00  0.00    +0.000 HD
ENDBRANCH  17  20
BRANCH  15  22
ATOM     22  C   UNL     1       7.327   7.862  17.522  0.00  0.00    +0.000 C 
BRANCH  22  23
ATOM     23  O   UNL     1       8.386   8.382  18.336  0.00  0.00    +0.000 OA
BRANCH  23  24
ATOM     24  C   UNL     1       8.508   9.734  18.353  0.00  0.00    +0.000 C 
ATOM     25  C   UNL     1       9.356  10.168  19.512  0.00  0.00    +0.000 C 
ATOM     26  O   UNL     1       8.008  10.495  17.541  0.00  0.00    +0.000 OA
ENDBRANCH  23  24
ENDBRANCH  22  23
ENDBRANCH  15  22
ENDBRANCH   4  13
BRANCH   1  27
ATOM     27  C   UNL     1       2.200   3.480  21.257  0.00  0.00    +0.000 C 
ATOM     28  O   UNL     1       2.323   3.695  22.465  0.00  0.00    +0.000 OA
BRANCH  27  30
ATOM     29  C   UNL     1       0.709   2.677  19.407  0.00  0.00    +0.000 C 
ATOM     30  C   UNL     1       1.297   2.363  20.772  0.00  0.00    +0.000 C 
ENDBRANCH  27  30
ENDBRANCH   1  27
TORSDOF 8
ENDMDL
MODEL 7
REMARK VINA RESULT:      -7.3      0.984      1.271
REMARK  Name = 
REMARK  10 active torsions:
REMARK  status: ('A' for Active; 'I' for Inactive)
REMARK    1  A    between atoms: C_1  and  C_2
REMARK    2  A    between atoms: C_2  and  C_3
REMARK    3  A    between atoms: C_3  and  C_5
REMARK    4  A    between atoms: N_8  and  C_9
REMARK    5  A    between atoms: C_11  and  C_12
REMARK    6  A    between atoms: C_12  and  O_13
REMARK    7  A    between atoms: O_13  and  C_14
REMARK    8  A    between atoms: C_14  and  C_15
REMARK    9  A    between atoms: C_17  and  O_18
REMARK   10  A    between atoms: C_19  and  O_20
REMARK                            x       y       z     vdW  Elec       q    Type
REMARK                         _______ _______ _______ _____ _____    ______ ____
ROOT
ATOM      1  C   UNL     1       6.452   5.954  17.123  0.00  0.00    +0.000 A 
ATOM      2  C   UNL     1       5.381   5.470  17.840  0.00  0.00    +0.000 A 
ATOM      3 CL   UNL     1       4.940   5.887  19.433  0.00  0.00    +0.000 Cl
ATOM      4  N   UNL     1       4.645   4.590  17.089  0.00  0.00    +0.000 N 
ATOM      5  C   UNL     1       5.230   4.515  15.823  0.00  0.00    +0.000 A 
ATOM      6  C   UNL     1       4.878   3.780  14.673  0.00  0.00    +0.000 A 
ATOM      7  C   UNL     1       5.669   3.893  13.520  0.00  0.00    +0.000 A 
ATOM      8 CL   UNL     1       5.191   2.980  12.131  0.00  0.00    +0.000 Cl
ATOM      9  C   UNL     1       6.797   4.711  13.513  0.00  0.00    +0.000 A 
ATOM     10 CL   UNL     1       7.814   4.887  12.126  0.00  0.00    +0.000 Cl
ATOM     11  C   UNL     1       7.149   5.432  14.659  0.00  0.00    +0.000 A 
ATOM     12  C   UNL     1       6.357   5.355  15.829  0.00  0.00    +0.000 A 
ENDROOT
BRANCH   4  13
ATOM     13  C   UNL     1       3.473   3.811  17.506  0.00  0.00    +0.000 C 
ATOM     14  O   UNL     1       2.458   4.678  18.059  0.00  0.00    +0.000 OA
ATOM     15  C   UNL     1       1.791   3.984  19.144  0.00  0.00    +0.000 C 
ATOM     16  C   UNL     1       2.394   2.578  19.219  0.00  0.00    +0.000 C 
ATOM     17  C   UNL     1       3.750   2.714  18.535  0.00  0.00    +0.000 C 
BRANCH  16  18
ATOM     18  O   UNL     1       1.622   1.620  18.467  0.00  0.00    +0.000 OA
ATOM     19  H   UNL     1       2.157   1.282  17.726  0.00  0.00    +0.000 HD
ENDBRANCH  16  18
BRANCH  17  20
ATOM     20  O   UNL     1       4.150   1.483  17.930  0.00  0.00    +0.000 OA
ATOM     21  H   UNL     1       4.395   1.701  17.005  0.00  0.00    +0.000 HD
ENDBRANCH  17  20
BRANCH  15  22
ATOM     22  C   UNL     1       1.942   4.788  20.440  0.00  0.00    +0.000 C 
BRANCH  22  23
ATOM     23  O   UNL     1       1.017   5.878  20.536  0.00  0.00    +0.000 OA
BRANCH  23  24
ATOM     24  C   UNL     1       1.552   7.119  20.405  0.00  0.00    +0.000 C 
ATOM     25  C   UNL     1       1.072   8.014  21.508  0.00  0.00    +0.000 C 
ATOM     26  O   UNL     1       2.321   7.463  19.522  0.00  0.00    +0.000 OA
ENDBRANCH  23  24
ENDBRANCH  22  23
ENDBRANCH  15  22
ENDBRANCH   4  13
BRANCH   1  27
ATOM     27  C   UNL     1       7.442   6.890  17.659  0.00  0.00    +0.000 C 
ATOM     28  O   UNL     1       7.703   7.945  17.076  0.00  0.00    +0.000 OA
BRANCH  27  30
ATOM     29  C   UNL     1       8.354   5.062  19.114  0.00  0.00    +0.000 C 
ATOM     30  C   UNL     1       8.126   6.557  18.970  0.00  0.00    +0.000 C 
ENDBRANCH  27  30
ENDBRANCH   1  27
TORSDOF 8
ENDMDL
MODEL 8
REMARK VINA RESULT:      -7.2      3.024      7.150
REMARK  Name = 
REMARK  10 active torsions:
REMARK  status: ('A' for Active; 'I' for Inactive)
REMARK    1  A    between atoms: C_1  and  C_2
REMARK    2  A    between atoms: C_2  and  C_3
REMARK    3  A    between atoms: C_3  and  C_5
REMARK    4  A    between atoms: N_8  and  C_9
REMARK    5  A    between atoms: C_11  and  C_12
REMARK    6  A    between atoms: C_12  and  O_13
REMARK    7  A    between atoms: O_13  and  C_14
REMARK    8  A    between atoms: C_14  and  C_15
REMARK    9  A    between atoms: C_17  and  O_18
REMARK   10  A    between atoms: C_19  and  O_20
REMARK                            x       y       z     vdW  Elec       q    Type
REMARK                         _______ _______ _______ _____ _____    ______ ____
ROOT
ATOM      1  C   UNL     1       2.908   4.796  19.221  0.00  0.00    +0.000 A 
ATOM      2  C   UNL     1       3.930   4.549  18.332  0.00  0.00    +0.000 A 
ATOM      3 CL   UNL     1       4.685   3.051  18.027  0.00  0.00    +0.000 Cl
ATOM      4  N   UNL     1       4.278   5.690  17.655  0.00  0.00    +0.000 N 
ATOM      5  C   UNL     1       3.436   6.716  18.089  0.00  0.00    +0.000 A 
ATOM      6  C   UNL     1       3.353   8.075  17.718  0.00  0.00    +0.000 A 
ATOM      7  C   UNL     1       2.398   8.894  18.338  0.00  0.00    +0.000 A 
ATOM      8 CL   UNL     1       2.326  10.550  17.843  0.00  0.00    +0.000 Cl
ATOM      9  C   UNL     1       1.550   8.379  19.317  0.00  0.00    +0.000 A 
ATOM     10 CL   UNL     1       0.359   9.340  20.119  0.00  0.00    +0.000 Cl
ATOM     11  C   UNL     1       1.643   7.034  19.689  0.00  0.00    +0.000 A 
ATOM     12  C   UNL     1       2.581   6.177  19.065  0.00  0.00    +0.000 A 
ENDROOT
BRANCH   4  13
ATOM     13  C   UNL     1       5.358   5.862  16.677  0.00  0.00    +0.000 C 
ATOM     14  O   UNL     1       4.849   5.736  15.331  0.00  0.00    +0.000 OA
ATOM     15  C   UNL     1       5.851   5.084  14.510  0.00  0.00    +0.000 C 
ATOM     16  C   UNL     1       7.080   4.855  15.396  0.00  0.00    +0.000 C 
ATOM     17  C   UNL     1       6.529   4.888  16.818  0.00  0.00    +0.000 C 
BRANCH  16  18
ATOM     18  O   UNL     1       8.039   5.925  15.276  0.00  0.00    +0.000 OA
ATOM     19  H   UNL     1       8.863   5.675  15.732  0.00  0.00    +0.000 HD
ENDBRANCH  16  18
BRANCH  17  20
ATOM     20  O   UNL     1       7.515   5.346  17.744  0.00  0.00    +0.000 OA
ATOM     21  H   UNL     1       8.305   5.578  17.209  0.00  0.00    +0.000 HD
ENDBRANCH  17  20
BRANCH  15  22
ATOM     22  C   UNL     1       5.274   3.796  13.914  0.00  0.00    +0.000 C 
BRANCH  22  23
ATOM     23  O   UNL     1       6.056   3.279  12.830  0.00  0.00    +0.000 OA
BRANCH  23  24
ATOM     24  C   UNL     1       5.364   2.629  11.860  0.00  0.00    +0.000 C 
ATOM     25  C   UNL     1       4.139   3.408  11.481  0.00  0.00    +0.000 C 
ATOM     26  O   UNL     1       5.688   1.566  11.356  0.00  0.00    +0.000 OA
ENDBRANCH  23  24
ENDBRANCH  22  23
ENDBRANCH  15  22
ENDBRANCH   4  13
BRANCH   1  27
ATOM     27  C   UNL     1       2.334   3.785  20.112  0.00  0.00    +0.000 C 
ATOM     28  O   UNL     1       2.979   3.332  21.060  0.00  0.00    +0.000 OA
BRANCH  27  30
ATOM     29  C   UNL     1       0.829   2.382  18.677  0.00  0.00    +0.000 C 
ATOM     30  C   UNL     1       0.912   3.321  19.869  0.00  0.00    +0.000 C 
ENDBRANCH  27  30
ENDBRANCH   1  27
TORSDOF 8
ENDMDL
MODEL 9
REMARK VINA RESULT:      -7.1      1.118      1.327
REMARK  Name = 
REMARK  10 active torsions:
REMARK  status: ('A' for Active; 'I' for Inactive)
REMARK    1  A    between atoms: C_1  and  C_2
REMARK    2  A    between atoms: C_2  and  C_3
REMARK    3  A    between atoms: C_3  and  C_5
REMARK    4  A    between atoms: N_8  and  C_9
REMARK    5  A    between atoms: C_11  and  C_12
REMARK    6  A    between atoms: C_12  and  O_13
REMARK    7  A    between atoms: O_13  and  C_14
REMARK    8  A    between atoms: C_14  and  C_15
REMARK    9  A    between atoms: C_17  and  O_18
REMARK   10  A    between atoms: C_19  and  O_20
REMARK                            x       y       z     vdW  Elec       q    Type
REMARK                         _______ _______ _______ _____ _____    ______ ____
ROOT
ATOM      1  C   UNL     1       6.499   5.921  17.154  0.00  0.00    +0.000 A 
ATOM      2  C   UNL     1       5.582   5.192  17.878  0.00  0.00    +0.000 A 
ATOM      3 CL   UNL     1       5.092   5.470  19.487  0.00  0.00    +0.000 Cl
ATOM      4  N   UNL     1       5.050   4.181  17.120  0.00  0.00    +0.000 N 
ATOM      5  C   UNL     1       5.610   4.265  15.843  0.00  0.00    +0.000 A 
ATOM      6  C   UNL     1       5.410   3.489  14.683  0.00  0.00    +0.000 A 
ATOM      7  C   UNL     1       6.130   3.801  13.520  0.00  0.00    +0.000 A 
ATOM      8 CL   UNL     1       5.842   2.827  12.119  0.00  0.00    +0.000 Cl
ATOM      9  C   UNL     1       7.041   4.854  13.512  0.00  0.00    +0.000 A 
ATOM     10 CL   UNL     1       7.961   5.282  12.112  0.00  0.00    +0.000 Cl
ATOM     11  C   UNL     1       7.244   5.616  14.668  0.00  0.00    +0.000 A 
ATOM     12  C   UNL     1       6.516   5.340  15.849  0.00  0.00    +0.000 A 
ENDROOT
BRANCH   4  13
ATOM     13  C   UNL     1       4.096   3.148  17.539  0.00  0.00    +0.000 C 
ATOM     14  O   UNL     1       2.754   3.504  17.138  0.00  0.00    +0.000 OA
ATOM     15  C   UNL     1       1.826   3.058  18.160  0.00  0.00    +0.000 C 
ATOM     16  C   UNL     1       2.647   2.326  19.226  0.00  0.00    +0.000 C 
ATOM     17  C   UNL     1       4.064   2.859  19.041  0.00  0.00    +0.000 C 
BRANCH  16  18
ATOM     18  O   UNL     1       2.685   0.903  18.995  0.00  0.00    +0.000 OA
ATOM     19  H   UNL     1       3.571   0.649  18.678  0.00  0.00    +0.000 HD
ENDBRANCH  16  18
BRANCH  17  20
ATOM     20  O   UNL     1       5.037   1.889  19.433  0.00  0.00    +0.000 OA
ATOM     21  H   UNL     1       4.556   1.223  19.971  0.00  0.00    +0.000 HD
ENDBRANCH  17  20
BRANCH  15  22
ATOM     22  C   UNL     1       1.043   4.258  18.704  0.00  0.00    +0.000 C 
BRANCH  22  23
ATOM     23  O   UNL     1       1.871   5.400  18.960  0.00  0.00    +0.000 OA
BRANCH  23  24
ATOM     24  C   UNL     1       1.921   5.814  20.252  0.00  0.00    +0.000 C 
ATOM     25  C   UNL     1       1.854   7.310  20.324  0.00  0.00    +0.000 C 
ATOM     26  O   UNL     1       2.001   5.079  21.223  0.00  0.00    +0.000 OA
ENDBRANCH  23  24
ENDBRANCH  22  23
ENDBRANCH  15  22
ENDBRANCH   4  13
BRANCH   1  27
ATOM     27  C   UNL     1       7.261   7.049  17.694  0.00  0.00    +0.000 C 
ATOM     28  O   UNL     1       7.127   8.186  17.237  0.00  0.00    +0.000 OA
BRANCH  27  30
ATOM     29  C   UNL     1       8.319   5.322  19.175  0.00  0.00    +0.000 C 
ATOM     30  C   UNL     1       8.204   6.803  18.856  0.00  0.00    +0.000 C 
ENDBRANCH  27  30
ENDBRANCH   1  27
TORSDOF 8
ENDMDL
