MODEL 1
REMARK VINA RESULT:      -8.2      0.000      0.000
REMARK  Name = 
REMARK  5 active torsions:
REMARK  status: ('A' for Active; 'I' for Inactive)
REMARK    1  A    between atoms: C_1  and  C_2
REMARK    2  A    between atoms: N_7  and  C_8
REMARK    3  A    between atoms: C_8  and  C_9
REMARK    4  A    between atoms: N_19  and  C_20
REMARK    5  A    between atoms: N_24  and  C_25
REMARK                            x       y       z     vdW  Elec       q    Type
REMARK                         _______ _______ _______ _____ _____    ______ ____
ROOT
ATOM      1  C   UNL     1      -0.508   8.780  21.921  0.00  0.00    +0.000 C 
ATOM      2  C   UNL     1      -0.198   9.736  20.762  0.00  0.00    +0.000 C 
ATOM      3  C   UNL     1       0.421  11.038  21.294  0.00  0.00    +0.000 C 
ATOM      4  C   UNL     1       0.771  12.077  20.202  0.00  0.00    +0.000 C 
ATOM      5  C   UNL     1       1.442  11.401  18.999  0.00  0.00    +0.000 C 
ATOM      6  C   UNL     1       0.729  10.105  18.583  0.00  0.00    +0.000 C 
ATOM      7  N   UNL     1       0.593   9.131  19.671  0.00  0.00    +0.000 NA
ATOM      8  C   UNL     1       1.754  13.109  20.868  0.00  0.00    +0.000 C 
ATOM      9  N   UNL     1       1.530  14.451  20.273  0.00  0.00    +0.000 NA
ATOM     10  C   UNL     1       1.855  15.570  21.178  0.00  0.00    +0.000 C 
ATOM     11  S   UNL     1      -0.003  14.545  19.569  0.00  0.00    +0.000 S 
ATOM     12  O   UNL     1       0.173  14.789  18.155  0.00  0.00    +0.000 OA
ATOM     13  O   UNL     1      -0.865  15.345  20.399  0.00  0.00    +0.000 OA
ATOM     14  N   UNL     1      -0.399  12.922  19.816  0.00  0.00    +0.000 N 
ENDROOT
BRANCH  14  15
ATOM     15  C   UNL     1      -1.651  12.480  19.292  0.00  0.00    +0.000 A 
ATOM     16  C   UNL     1      -2.787  12.624  20.095  0.00  0.00    +0.000 A 
ATOM     17  C   UNL     1      -4.028  12.166  19.651  0.00  0.00    +0.000 A 
ATOM     18  C   UNL     1      -4.146  11.581  18.393  0.00  0.00    +0.000 A 
ATOM     19  C   UNL     1      -3.027  11.496  17.573  0.00  0.00    +0.000 A 
ATOM     20  F   UNL     1      -3.136  10.936  16.363  0.00  0.00    +0.000 F 
ATOM     21  C   UNL     1      -1.791  11.968  18.002  0.00  0.00    +0.000 A 
ENDBRANCH  14  15
BRANCH   7  22
ATOM     22  C   UNL     1       1.872   8.535  20.076  0.00  0.00    +0.000 C 
BRANCH  22  23
ATOM     23  C   UNL     1       2.027   7.070  19.718  0.00  0.00    +0.000 A 
ATOM     24  C   UNL     1       2.521   6.696  18.457  0.00  0.00    +0.000 A 
ATOM     25  C   UNL     1       2.539   5.361  18.046  0.00  0.00    +0.000 A 
ATOM     26  C   UNL     1       2.125   4.396  18.968  0.00  0.00    +0.000 A 
ATOM     27  N   UNL     1       2.046   3.028  18.842  0.00  0.00    +0.000 N 
ATOM     28  C   UNL     1       1.673   2.460  20.031  0.00  0.00    +0.000 A 
ATOM     29  C   UNL     1       1.442   3.482  20.932  0.00  0.00    +0.000 A 
ATOM     30  C   UNL     1       1.710   4.725  20.253  0.00  0.00    +0.000 A 
ATOM     31  C   UNL     1       1.638   6.082  20.624  0.00  0.00    +0.000 A 
ATOM     32  H   UNL     1       2.259   2.519  17.992  0.00  0.00    +0.000 HD
ENDBRANCH  22  23
ENDBRANCH   7  22
TORSDOF 3
ENDMDL
MODEL 2
REMARK VINA RESULT:      -8.0      0.809      1.182
REMARK  Name = 
REMARK  5 active torsions:
REMARK  status: ('A' for Active; 'I' for Inactive)
REMARK    1  A    between atoms: C_1  and  C_2
REMARK    2  A    between atoms: N_7  and  C_8
REMARK    3  A    between atoms: C_8  and  C_9
REMARK    4  A    between atoms: N_19  and  C_20
REMARK    5  A    between atoms: N_24  and  C_25
REMARK                            x       y       z     vdW  Elec       q    Type
REMARK                         _______ _______ _______ _____ _____    ______ ____
ROOT
ATOM      1  C   UNL     1      -0.453   8.628  21.739  0.00  0.00    +0.000 C 
ATOM      2  C   UNL     1      -0.169   9.637  20.620  0.00  0.00    +0.000 C 
ATOM      3  C   UNL     1       0.421  10.931  21.203  0.00  0.00    +0.000 C 
ATOM      4  C   UNL     1       0.744  12.021  20.154  0.00  0.00    +0.000 C 
ATOM      5  C   UNL     1       1.426  11.411  18.923  0.00  0.00    +0.000 C 
ATOM      6  C   UNL     1       0.742  10.117  18.455  0.00  0.00    +0.000 C 
ATOM      7  N   UNL     1       0.632   9.096  19.503  0.00  0.00    +0.000 NA
ATOM      8  C   UNL     1       1.705  13.048  20.860  0.00  0.00    +0.000 C 
ATOM      9  N   UNL     1       1.449  14.407  20.320  0.00  0.00    +0.000 NA
ATOM     10  C   UNL     1       1.750  15.496  21.269  0.00  0.00    +0.000 C 
ATOM     11  S   UNL     1      -0.089  14.495  19.624  0.00  0.00    +0.000 S 
ATOM     12  O   UNL     1       0.077  14.800  18.221  0.00  0.00    +0.000 OA
ATOM     13  O   UNL     1      -0.967  15.240  20.489  0.00  0.00    +0.000 OA
ATOM     14  N   UNL     1      -0.447  12.854  19.806  0.00  0.00    +0.000 N 
ENDROOT
BRANCH  14  15
ATOM     15  C   UNL     1      -1.690  12.405  19.267  0.00  0.00    +0.000 A 
ATOM     16  C   UNL     1      -1.695  11.893  17.966  0.00  0.00    +0.000 A 
ATOM     17  C   UNL     1      -2.889  11.483  17.373  0.00  0.00    +0.000 A 
ATOM     18  C   UNL     1      -4.084  11.562  18.084  0.00  0.00    +0.000 A 
ATOM     19  C   UNL     1      -4.066  12.014  19.398  0.00  0.00    +0.000 A 
ATOM     20  F   UNL     1      -5.211  12.091  20.086  0.00  0.00    +0.000 F 
ATOM     21  C   UNL     1      -2.876  12.406  20.002  0.00  0.00    +0.000 A 
ENDBRANCH  14  15
BRANCH   7  22
ATOM     22  C   UNL     1       1.925   8.514  19.880  0.00  0.00    +0.000 C 
BRANCH  22  23
ATOM     23  C   UNL     1       2.059   7.032  19.590  0.00  0.00    +0.000 A 
ATOM     24  C   UNL     1       2.490   6.591  18.328  0.00  0.00    +0.000 A 
ATOM     25  C   UNL     1       2.485   5.237  17.985  0.00  0.00    +0.000 A 
ATOM     26  C   UNL     1       2.113   4.323  18.974  0.00  0.00    +0.000 A 
ATOM     27  N   UNL     1       2.024   2.950  18.922  0.00  0.00    +0.000 N 
ATOM     28  C   UNL     1       1.708   2.445  20.155  0.00  0.00    +0.000 A 
ATOM     29  C   UNL     1       1.524   3.514  21.012  0.00  0.00    +0.000 A 
ATOM     30  C   UNL     1       1.762   4.719  20.259  0.00  0.00    +0.000 A 
ATOM     31  C   UNL     1       1.712   6.093  20.563  0.00  0.00    +0.000 A 
ATOM     32  H   UNL     1       2.195   2.398  18.090  0.00  0.00    +0.000 HD
ENDBRANCH  22  23
ENDBRANCH   7  22
TORSDOF 3
ENDMDL
MODEL 3
REMARK VINA RESULT:      -7.9      0.665      1.428
REMARK  Name = 
REMARK  5 active torsions:
REMARK  status: ('A' for Active; 'I' for Inactive)
REMARK    1  A    between atoms: C_1  and  C_2
REMARK    2  A    between atoms: N_7  and  C_8
REMARK    3  A    between atoms: C_8  and  C_9
REMARK    4  A    between atoms: N_19  and  C_20
REMARK    5  A    between atoms: N_24  and  C_25
REMARK                            x       y       z     vdW  Elec       q    Type
REMARK                         _______ _______ _______ _____ _____    ______ ____
ROOT
ATOM      1  C   UNL     1      -0.625   8.649  21.710  0.00  0.00    +0.000 C 
ATOM      2  C   UNL     1      -0.270   9.669  20.622  0.00  0.00    +0.000 C 
ATOM      3  C   UNL     1       0.216  10.982  21.256  0.00  0.00    +0.000 C 
ATOM      4  C   UNL     1       0.599  12.084  20.241  0.00  0.00    +0.000 C 
ATOM      5  C   UNL     1       1.417  11.500  19.081  0.00  0.00    +0.000 C 
ATOM      6  C   UNL     1       0.826  10.184  18.553  0.00  0.00    +0.000 C 
ATOM      7  N   UNL     1       0.652   9.158  19.587  0.00  0.00    +0.000 NA
ATOM      8  C   UNL     1       1.453  13.143  21.033  0.00  0.00    +0.000 C 
ATOM      9  N   UNL     1       1.201  14.493  20.469  0.00  0.00    +0.000 NA
ATOM     10  C   UNL     1       1.373  15.590  21.441  0.00  0.00    +0.000 C 
ATOM     11  S   UNL     1      -0.265  14.528  19.629  0.00  0.00    +0.000 S 
ATOM     12  O   UNL     1       0.023  14.841  18.248  0.00  0.00    +0.000 OA
ATOM     13  O   UNL     1      -1.246  15.241  20.405  0.00  0.00    +0.000 OA
ATOM     14  N   UNL     1      -0.581  12.876  19.779  0.00  0.00    +0.000 N 
ENDROOT
BRANCH  14  15
ATOM     15  C   UNL     1      -1.751  12.385  19.125  0.00  0.00    +0.000 A 
ATOM     16  C   UNL     1      -2.964  12.443  19.817  0.00  0.00    +0.000 A 
ATOM     17  C   UNL     1      -4.130  11.934  19.244  0.00  0.00    +0.000 A 
ATOM     18  C   UNL     1      -4.095  11.383  17.965  0.00  0.00    +0.000 A 
ATOM     19  C   UNL     1      -2.899  11.383  17.256  0.00  0.00    +0.000 A 
ATOM     20  F   UNL     1      -2.861  10.855  16.027  0.00  0.00    +0.000 F 
ATOM     21  C   UNL     1      -1.738  11.906  17.814  0.00  0.00    +0.000 A 
ENDBRANCH  14  15
BRANCH   7  22
ATOM     22  C   UNL     1       1.923   8.621  20.087  0.00  0.00    +0.000 C 
BRANCH  22  23
ATOM     23  C   UNL     1       2.185   7.174  19.719  0.00  0.00    +0.000 A 
ATOM     24  C   UNL     1       1.748   6.137  20.560  0.00  0.00    +0.000 A 
ATOM     25  C   UNL     1       2.099   4.806  20.323  0.00  0.00    +0.000 A 
ATOM     26  C   UNL     1       2.832   4.528  19.167  0.00  0.00    +0.000 A 
ATOM     27  N   UNL     1       3.302   3.328  18.684  0.00  0.00    +0.000 N 
ATOM     28  C   UNL     1       3.896   3.505  17.462  0.00  0.00    +0.000 A 
ATOM     29  C   UNL     1       3.869   4.856  17.173  0.00  0.00    +0.000 A 
ATOM     30  C   UNL     1       3.208   5.520  18.268  0.00  0.00    +0.000 A 
ATOM     31  C   UNL     1       2.900   6.862  18.561  0.00  0.00    +0.000 A 
ATOM     32  H   UNL     1       3.197   2.440  19.160  0.00  0.00    +0.000 HD
ENDBRANCH  22  23
ENDBRANCH   7  22
TORSDOF 3
ENDMDL
MODEL 4
REMARK VINA RESULT:      -7.7      0.989      1.799
REMARK  Name = 
REMARK  5 active torsions:
REMARK  status: ('A' for Active; 'I' for Inactive)
REMARK    1  A    between atoms: C_1  and  C_2
REMARK    2  A    between atoms: N_7  and  C_8
REMARK    3  A    between atoms: C_8  and  C_9
REMARK    4  A    between atoms: N_19  and  C_20
REMARK    5  A    between atoms: N_24  and  C_25
REMARK                            x       y       z     vdW  Elec       q    Type
REMARK                         _______ _______ _______ _____ _____    ______ ____
ROOT
ATOM      1  C   UNL     1      -0.551   8.697  21.813  0.00  0.00    +0.000 C 
ATOM      2  C   UNL     1      -0.243   9.694  20.689  0.00  0.00    +0.000 C 
ATOM      3  C   UNL     1       0.280  11.016  21.273  0.00  0.00    +0.000 C 
ATOM      4  C   UNL     1       0.619  12.095  20.219  0.00  0.00    +0.000 C 
ATOM      5  C   UNL     1       1.377  11.484  19.033  0.00  0.00    +0.000 C 
ATOM      6  C   UNL     1       0.755  10.161  18.560  0.00  0.00    +0.000 C 
ATOM      7  N   UNL     1       0.625   9.157  19.621  0.00  0.00    +0.000 NA
ATOM      8  C   UNL     1       1.516  13.164  20.948  0.00  0.00    +0.000 C 
ATOM      9  N   UNL     1       1.245  14.505  20.370  0.00  0.00    +0.000 NA
ATOM     10  C   UNL     1       1.469  15.619  21.311  0.00  0.00    +0.000 C 
ATOM     11  S   UNL     1      -0.260  14.532  19.601  0.00  0.00    +0.000 S 
ATOM     12  O   UNL     1      -0.036  14.817  18.201  0.00  0.00    +0.000 OA
ATOM     13  O   UNL     1      -1.199  15.266  20.408  0.00  0.00    +0.000 OA
ATOM     14  N   UNL     1      -0.577  12.886  19.798  0.00  0.00    +0.000 N 
ENDROOT
BRANCH  14  15
ATOM     15  C   UNL     1      -1.779  12.389  19.211  0.00  0.00    +0.000 A 
ATOM     16  C   UNL     1      -1.710  11.864  17.916  0.00  0.00    +0.000 A 
ATOM     17  C   UNL     1      -2.862  11.408  17.276  0.00  0.00    +0.000 A 
ATOM     18  C   UNL     1      -4.089  11.452  17.934  0.00  0.00    +0.000 A 
ATOM     19  C   UNL     1      -4.144  11.917  19.242  0.00  0.00    +0.000 A 
ATOM     20  F   UNL     1      -5.321  11.961  19.879  0.00  0.00    +0.000 F 
ATOM     21  C   UNL     1      -2.996  12.355  19.893  0.00  0.00    +0.000 A 
ENDBRANCH  14  15
BRANCH   7  22
ATOM     22  C   UNL     1       1.916   8.622  20.070  0.00  0.00    +0.000 C 
BRANCH  22  23
ATOM     23  C   UNL     1       2.143   7.160  19.738  0.00  0.00    +0.000 A 
ATOM     24  C   UNL     1       1.677   6.155  20.601  0.00  0.00    +0.000 A 
ATOM     25  C   UNL     1       1.995   4.810  20.398  0.00  0.00    +0.000 A 
ATOM     26  C   UNL     1       2.726   4.487  19.252  0.00  0.00    +0.000 A 
ATOM     27  N   UNL     1       3.168   3.264  18.800  0.00  0.00    +0.000 N 
ATOM     28  C   UNL     1       3.771   3.397  17.578  0.00  0.00    +0.000 A 
ATOM     29  C   UNL     1       3.780   4.741  17.257  0.00  0.00    +0.000 A 
ATOM     30  C   UNL     1       3.131   5.447  18.332  0.00  0.00    +0.000 A 
ATOM     31  C   UNL     1       2.855   6.803  18.592  0.00  0.00    +0.000 A 
ATOM     32  H   UNL     1       3.039   2.391  19.297  0.00  0.00    +0.000 HD
ENDBRANCH  22  23
ENDBRANCH   7  22
TORSDOF 3
ENDMDL
MODEL 5
REMARK VINA RESULT:      -7.6      1.235      2.090
REMARK  Name = 
REMARK  5 active torsions:
REMARK  status: ('A' for Active; 'I' for Inactive)
REMARK    1  A    between atoms: C_1  and  C_2
REMARK    2  A    between atoms: N_7  and  C_8
REMARK    3  A    between atoms: C_8  and  C_9
REMARK    4  A    between atoms: N_19  and  C_20
REMARK    5  A    between atoms: N_24  and  C_25
REMARK                            x       y       z     vdW  Elec       q    Type
REMARK                         _______ _______ _______ _____ _____    ______ ____
ROOT
ATOM      1  C   UNL     1      -0.459   8.522  21.550  0.00  0.00    +0.000 C 
ATOM      2  C   UNL     1      -0.134   9.559  20.467  0.00  0.00    +0.000 C 
ATOM      3  C   UNL     1       0.387  10.856  21.106  0.00  0.00    +0.000 C 
ATOM      4  C   UNL     1       0.744  11.972  20.097  0.00  0.00    +0.000 C 
ATOM      5  C   UNL     1       1.514  11.401  18.899  0.00  0.00    +0.000 C 
ATOM      6  C   UNL     1       0.893  10.099  18.369  0.00  0.00    +0.000 C 
ATOM      7  N   UNL     1       0.746   9.057  19.392  0.00  0.00    +0.000 NA
ATOM      8  C   UNL     1       1.635  13.009  20.876  0.00  0.00    +0.000 C 
ATOM      9  N   UNL     1       1.377  14.371  20.345  0.00  0.00    +0.000 NA
ATOM     10  C   UNL     1       1.593  15.449  21.329  0.00  0.00    +0.000 C 
ATOM     11  S   UNL     1      -0.118  14.434  19.559  0.00  0.00    +0.000 S 
ATOM     12  O   UNL     1       0.124  14.768  18.174  0.00  0.00    +0.000 OA
ATOM     13  O   UNL     1      -1.065  15.142  20.381  0.00  0.00    +0.000 OA
ATOM     14  N   UNL     1      -0.444  12.782  19.691  0.00  0.00    +0.000 N 
ENDROOT
BRANCH  14  15
ATOM     15  C   UNL     1      -1.641  12.313  19.071  0.00  0.00    +0.000 A 
ATOM     16  C   UNL     1      -2.822  12.336  19.820  0.00  0.00    +0.000 A 
ATOM     17  C   UNL     1      -4.011  11.846  19.279  0.00  0.00    +0.000 A 
ATOM     18  C   UNL     1      -4.033  11.349  17.978  0.00  0.00    +0.000 A 
ATOM     19  C   UNL     1      -2.871  11.384  17.216  0.00  0.00    +0.000 A 
ATOM     20  F   UNL     1      -2.887  10.909  15.965  0.00  0.00    +0.000 F 
ATOM     21  C   UNL     1      -1.687  11.889  17.742  0.00  0.00    +0.000 A 
ENDBRANCH  14  15
BRANCH   7  22
ATOM     22  C   UNL     1       2.029   8.500  19.836  0.00  0.00    +0.000 C 
BRANCH  22  23
ATOM     23  C   UNL     1       2.567   7.382  18.965  0.00  0.00    +0.000 A 
ATOM     24  C   UNL     1       2.128   6.061  19.154  0.00  0.00    +0.000 A 
ATOM     25  C   UNL     1       2.709   4.992  18.469  0.00  0.00    +0.000 A 
ATOM     26  C   UNL     1       3.690   5.291  17.520  0.00  0.00    +0.000 A 
ATOM     27  N   UNL     1       4.417   4.454  16.704  0.00  0.00    +0.000 N 
ATOM     28  C   UNL     1       5.209   5.182  15.858  0.00  0.00    +0.000 A 
ATOM     29  C   UNL     1       5.044   6.518  16.171  0.00  0.00    +0.000 A 
ATOM     30  C   UNL     1       4.088   6.594  17.247  0.00  0.00    +0.000 A 
ATOM     31  C   UNL     1       3.536   7.650  17.997  0.00  0.00    +0.000 A 
ATOM     32  H   UNL     1       4.350   3.443  16.719  0.00  0.00    +0.000 HD
ENDBRANCH  22  23
ENDBRANCH   7  22
TORSDOF 3
ENDMDL
MODEL 6
REMARK VINA RESULT:      -7.1      2.689      4.194
REMARK  Name = 
REMARK  5 active torsions:
REMARK  status: ('A' for Active; 'I' for Inactive)
REMARK    1  A    between atoms: C_1  and  C_2
REMARK    2  A    between atoms: N_7  and  C_8
REMARK    3  A    between atoms: C_8  and  C_9
REMARK    4  A    between atoms: N_19  and  C_20
REMARK    5  A    between atoms: N_24  and  C_25
REMARK                            x       y       z     vdW  Elec       q    Type
REMARK                         _______ _______ _______ _____ _____    ______ ____
ROOT
ATOM      1  C   UNL     1      -1.758  12.019  18.051  0.00  0.00    +0.000 C 
ATOM      2  C   UNL     1      -0.742  12.545  19.071  0.00  0.00    +0.000 C 
ATOM      3  C   UNL     1      -1.445  12.912  20.388  0.00  0.00    +0.000 C 
ATOM      4  C   UNL     1      -0.505  13.458  21.488  0.00  0.00    +0.000 C 
ATOM      5  C   UNL     1       0.784  12.630  21.569  0.00  0.00    +0.000 C 
ATOM      6  C   UNL     1       1.372  12.325  20.182  0.00  0.00    +0.000 C 
ATOM      7  N   UNL     1       0.427  11.665  19.274  0.00  0.00    +0.000 NA
ATOM      8  C   UNL     1      -1.302  13.363  22.842  0.00  0.00    +0.000 C 
ATOM      9  N   UNL     1      -0.899  14.485  23.726  0.00  0.00    +0.000 NA
ATOM     10  C   UNL     1      -1.948  14.909  24.673  0.00  0.00    +0.000 C 
ATOM     11  S   UNL     1      -0.223  15.745  22.824  0.00  0.00    +0.000 S 
ATOM     12  O   UNL     1       1.144  15.917  23.260  0.00  0.00    +0.000 OA
ATOM     13  O   UNL     1      -1.161  16.834  22.741  0.00  0.00    +0.000 OA
ATOM     14  N   UNL     1      -0.246  14.923  21.349  0.00  0.00    +0.000 N 
ENDROOT
BRANCH  14  15
ATOM     15  C   UNL     1       0.327  15.598  20.230  0.00  0.00    +0.000 A 
ATOM     16  C   UNL     1       1.721  15.665  20.147  0.00  0.00    +0.000 A 
ATOM     17  C   UNL     1       2.334  16.353  19.099  0.00  0.00    +0.000 A 
ATOM     18  C   UNL     1       1.558  16.959  18.114  0.00  0.00    +0.000 A 
ATOM     19  C   UNL     1       0.174  16.838  18.167  0.00  0.00    +0.000 A 
ATOM     20  F   UNL     1      -0.576  17.417  17.222  0.00  0.00    +0.000 F 
ATOM     21  C   UNL     1      -0.442  16.137  19.198  0.00  0.00    +0.000 A 
ENDBRANCH  14  15
BRANCH   7  22
ATOM     22  C   UNL     1       0.116  10.285  19.667  0.00  0.00    +0.000 C 
BRANCH  22  23
ATOM     23  C   UNL     1       1.133   9.256  19.215  0.00  0.00    +0.000 A 
ATOM     24  C   UNL     1       1.733   9.359  17.949  0.00  0.00    +0.000 A 
ATOM     25  C   UNL     1       2.561   8.352  17.448  0.00  0.00    +0.000 A 
ATOM     26  C   UNL     1       2.842   7.270  18.287  0.00  0.00    +0.000 A 
ATOM     27  N   UNL     1       3.618   6.156  18.065  0.00  0.00    +0.000 N 
ATOM     28  C   UNL     1       3.692   5.391  19.198  0.00  0.00    +0.000 A 
ATOM     29  C   UNL     1       2.895   5.986  20.159  0.00  0.00    +0.000 A 
ATOM     30  C   UNL     1       2.333   7.178  19.577  0.00  0.00    +0.000 A 
ATOM     31  C   UNL     1       1.448   8.172  20.037  0.00  0.00    +0.000 A 
ATOM     32  H   UNL     1       4.086   5.951  17.190  0.00  0.00    +0.000 HD
ENDBRANCH  22  23
ENDBRANCH   7  22
TORSDOF 3
ENDMDL
MODEL 7
REMARK VINA RESULT:      -7.1      3.260      7.522
REMARK  Name = 
REMARK  5 active torsions:
REMARK  status: ('A' for Active; 'I' for Inactive)
REMARK    1  A    between atoms: C_1  and  C_2
REMARK    2  A    between atoms: N_7  and  C_8
REMARK    3  A    between atoms: C_8  and  C_9
REMARK    4  A    between atoms: N_19  and  C_20
REMARK    5  A    between atoms: N_24  and  C_25
REMARK                            x       y       z     vdW  Elec       q    Type
REMARK                         _______ _______ _______ _____ _____    ______ ____
ROOT
ATOM      1  C   UNL     1      -2.788  10.763  16.822  0.00  0.00    +0.000 C 
ATOM      2  C   UNL     1      -2.061  11.242  18.084  0.00  0.00    +0.000 C 
ATOM      3  C   UNL     1      -1.229  12.497  17.779  0.00  0.00    +0.000 C 
ATOM      4  C   UNL     1      -0.450  13.062  18.990  0.00  0.00    +0.000 C 
ATOM      5  C   UNL     1      -1.325  13.069  20.250  0.00  0.00    +0.000 C 
ATOM      6  C   UNL     1      -2.110  11.760  20.424  0.00  0.00    +0.000 C 
ATOM      7  N   UNL     1      -2.935  11.407  19.263  0.00  0.00    +0.000 NA
ATOM      8  C   UNL     1      -0.033  14.530  18.606  0.00  0.00    +0.000 C 
ATOM      9  N   UNL     1       1.271  14.850  19.240  0.00  0.00    +0.000 NA
ATOM     10  C   UNL     1       2.071  15.844  18.499  0.00  0.00    +0.000 C 
ATOM     11  S   UNL     1       2.108  13.435  19.634  0.00  0.00    +0.000 S 
ATOM     12  O   UNL     1       2.282  13.410  21.069  0.00  0.00    +0.000 OA
ATOM     13  O   UNL     1       3.195  13.247  18.711  0.00  0.00    +0.000 OA
ATOM     14  N   UNL     1       0.864  12.380  19.198  0.00  0.00    +0.000 N 
ENDROOT
BRANCH  14  15
ATOM     15  C   UNL     1       1.089  10.990  19.434  0.00  0.00    +0.000 A 
ATOM     16  C   UNL     1       1.558  10.212  18.371  0.00  0.00    +0.000 A 
ATOM     17  C   UNL     1       1.751   8.840  18.532  0.00  0.00    +0.000 A 
ATOM     18  C   UNL     1       1.498   8.240  19.763  0.00  0.00    +0.000 A 
ATOM     19  C   UNL     1       1.092   9.027  20.834  0.00  0.00    +0.000 A 
ATOM     20  F   UNL     1       0.849   8.456  22.019  0.00  0.00    +0.000 F 
ATOM     21  C   UNL     1       0.916  10.399  20.685  0.00  0.00    +0.000 A 
ENDBRANCH  14  15
BRANCH   7  22
ATOM     22  C   UNL     1      -4.081  12.305  19.076  0.00  0.00    +0.000 C 
BRANCH  22  23
ATOM     23  C   UNL     1      -5.110  12.254  20.188  0.00  0.00    +0.000 A 
ATOM     24  C   UNL     1      -6.296  11.518  20.025  0.00  0.00    +0.000 A 
ATOM     25  C   UNL     1      -7.324  11.569  20.969  0.00  0.00    +0.000 A 
ATOM     26  C   UNL     1      -7.099  12.315  22.129  0.00  0.00    +0.000 A 
ATOM     27  N   UNL     1      -7.917  12.534  23.214  0.00  0.00    +0.000 N 
ATOM     28  C   UNL     1      -7.256  13.255  24.172  0.00  0.00    +0.000 A 
ATOM     29  C   UNL     1      -6.005  13.568  23.675  0.00  0.00    +0.000 A 
ATOM     30  C   UNL     1      -5.904  12.987  22.360  0.00  0.00    +0.000 A 
ATOM     31  C   UNL     1      -4.907  12.975  21.366  0.00  0.00    +0.000 A 
ATOM     32  H   UNL     1      -8.864  12.185  23.293  0.00  0.00    +0.000 HD
ENDBRANCH  22  23
ENDBRANCH   7  22
TORSDOF 3
ENDMDL
MODEL 8
REMARK VINA RESULT:      -7.1      2.573      4.079
REMARK  Name = 
REMARK  5 active torsions:
REMARK  status: ('A' for Active; 'I' for Inactive)
REMARK    1  A    between atoms: C_1  and  C_2
REMARK    2  A    between atoms: N_7  and  C_8
REMARK    3  A    between atoms: C_8  and  C_9
REMARK    4  A    between atoms: N_19  and  C_20
REMARK    5  A    between atoms: N_24  and  C_25
REMARK                            x       y       z     vdW  Elec       q    Type
REMARK                         _______ _______ _______ _____ _____    ______ ____
ROOT
ATOM      1  C   UNL     1      -1.385  11.327  17.872  0.00  0.00    +0.000 C 
ATOM      2  C   UNL     1      -0.732  11.902  19.135  0.00  0.00    +0.000 C 
ATOM      3  C   UNL     1      -1.786  12.118  20.232  0.00  0.00    +0.000 C 
ATOM      4  C   UNL     1      -1.230  12.699  21.553  0.00  0.00    +0.000 C 
ATOM      5  C   UNL     1       0.084  12.010  21.944  0.00  0.00    +0.000 C 
ATOM      6  C   UNL     1       1.038  11.847  20.751  0.00  0.00    +0.000 C 
ATOM      7  N   UNL     1       0.442  11.141  19.611  0.00  0.00    +0.000 NA
ATOM      8  C   UNL     1      -2.329  12.444  22.650  0.00  0.00    +0.000 C 
ATOM      9  N   UNL     1      -2.300  13.553  23.637  0.00  0.00    +0.000 NA
ATOM     10  C   UNL     1      -3.598  13.810  24.289  0.00  0.00    +0.000 C 
ATOM     11  S   UNL     1      -1.569  14.926  22.975  0.00  0.00    +0.000 S 
ATOM     12  O   UNL     1      -0.388  15.218  23.756  0.00  0.00    +0.000 OA
ATOM     13  O   UNL     1      -2.575  15.911  22.679  0.00  0.00    +0.000 OA
ATOM     14  N   UNL     1      -1.118  14.189  21.524  0.00  0.00    +0.000 N 
ENDROOT
BRANCH  14  15
ATOM     15  C   UNL     1      -0.361  14.982  20.610  0.00  0.00    +0.000 A 
ATOM     16  C   UNL     1       1.007  15.140  20.854  0.00  0.00    +0.000 A 
ATOM     17  C   UNL     1       1.786  15.943  20.020  0.00  0.00    +0.000 A 
ATOM     18  C   UNL     1       1.207  16.576  18.922  0.00  0.00    +0.000 A 
ATOM     19  C   UNL     1      -0.140  16.367  18.648  0.00  0.00    +0.000 A 
ATOM     20  F   UNL     1      -0.701  16.972  17.594  0.00  0.00    +0.000 F 
ATOM     21  C   UNL     1      -0.917  15.552  19.464  0.00  0.00    +0.000 A 
ENDBRANCH  14  15
BRANCH   7  22
ATOM     22  C   UNL     1       0.204   9.717  19.874  0.00  0.00    +0.000 C 
BRANCH  22  23
ATOM     23  C   UNL     1       1.274   8.789  19.332  0.00  0.00    +0.000 A 
ATOM     24  C   UNL     1       1.852   9.030  18.075  0.00  0.00    +0.000 A 
ATOM     25  C   UNL     1       2.731   8.117  17.488  0.00  0.00    +0.000 A 
ATOM     26  C   UNL     1       3.084   6.989  18.233  0.00  0.00    +0.000 A 
ATOM     27  N   UNL     1       3.921   5.944  17.915  0.00  0.00    +0.000 N 
ATOM     28  C   UNL     1       4.051   5.095  18.982  0.00  0.00    +0.000 A 
ATOM     29  C   UNL     1       3.233   5.562  19.993  0.00  0.00    +0.000 A 
ATOM     30  C   UNL     1       2.596   6.762  19.515  0.00  0.00    +0.000 A 
ATOM     31  C   UNL     1       1.660   7.662  20.061  0.00  0.00    +0.000 A 
ATOM     32  H   UNL     1       4.389   5.838  17.023  0.00  0.00    +0.000 HD
ENDBRANCH  22  23
ENDBRANCH   7  22
TORSDOF 3
ENDMDL
MODEL 9
REMARK VINA RESULT:      -7.0      2.833      4.282
REMARK  Name = 
REMARK  5 active torsions:
REMARK  status: ('A' for Active; 'I' for Inactive)
REMARK    1  A    between atoms: C_1  and  C_2
REMARK    2  A    between atoms: N_7  and  C_8
REMARK    3  A    between atoms: C_8  and  C_9
REMARK    4  A    between atoms: N_19  and  C_20
REMARK    5  A    between atoms: N_24  and  C_25
REMARK                            x       y       z     vdW  Elec       q    Type
REMARK                         _______ _______ _______ _____ _____    ______ ____
ROOT
ATOM      1  C   UNL     1      -1.724  11.866  17.891  0.00  0.00    +0.000 C 
ATOM      2  C   UNL     1      -0.865  12.394  19.046  0.00  0.00    +0.000 C 
ATOM      3  C   UNL     1      -1.742  12.697  20.271  0.00  0.00    +0.000 C 
ATOM      4  C   UNL     1      -0.971  13.239  21.497  0.00  0.00    +0.000 C 
ATOM      5  C   UNL     1       0.327  12.452  21.720  0.00  0.00    +0.000 C 
ATOM      6  C   UNL     1       1.097  12.210  20.412  0.00  0.00    +0.000 C 
ATOM      7  N   UNL     1       0.301  11.547  19.373  0.00  0.00    +0.000 NA
ATOM      8  C   UNL     1      -1.929  13.076  22.734  0.00  0.00    +0.000 C 
ATOM      9  N   UNL     1      -1.684  14.183  23.692  0.00  0.00    +0.000 NA
ATOM     10  C   UNL     1      -2.859  14.543  24.508  0.00  0.00    +0.000 C 
ATOM     11  S   UNL     1      -0.946  15.492  22.918  0.00  0.00    +0.000 S 
ATOM     12  O   UNL     1       0.348  15.696  23.529  0.00  0.00    +0.000 OA
ATOM     13  O   UNL     1      -1.905  16.551  22.744  0.00  0.00    +0.000 OA
ATOM     14  N   UNL     1      -0.751  14.716  21.431  0.00  0.00    +0.000 N 
ENDROOT
BRANCH  14  15
ATOM     15  C   UNL     1      -0.065  15.444  20.412  0.00  0.00    +0.000 A 
ATOM     16  C   UNL     1      -0.831  16.077  19.429  0.00  0.00    +0.000 A 
ATOM     17  C   UNL     1      -0.212  16.763  18.383  0.00  0.00    +0.000 A 
ATOM     18  C   UNL     1       1.177  16.839  18.326  0.00  0.00    +0.000 A 
ATOM     19  C   UNL     1       1.934  16.261  19.339  0.00  0.00    +0.000 A 
ATOM     20  F   UNL     1       3.269  16.332  19.289  0.00  0.00    +0.000 F 
ATOM     21  C   UNL     1       1.322  15.592  20.394  0.00  0.00    +0.000 A 
ENDBRANCH  14  15
BRANCH   7  22
ATOM     22  C   UNL     1      -0.007  10.147  19.687  0.00  0.00    +0.000 C 
BRANCH  22  23
ATOM     23  C   UNL     1       1.062   9.157  19.267  0.00  0.00    +0.000 A 
ATOM     24  C   UNL     1       1.737   9.317  18.045  0.00  0.00    +0.000 A 
ATOM     25  C   UNL     1       2.620   8.346  17.565  0.00  0.00    +0.000 A 
ATOM     26  C   UNL     1       2.875   7.244  18.385  0.00  0.00    +0.000 A 
ATOM     27  N   UNL     1       3.691   6.156  18.177  0.00  0.00    +0.000 N 
ATOM     28  C   UNL     1       3.713   5.356  19.288  0.00  0.00    +0.000 A 
ATOM     29  C   UNL     1       2.844   5.899  20.215  0.00  0.00    +0.000 A 
ATOM     30  C   UNL     1       2.289   7.096  19.637  0.00  0.00    +0.000 A 
ATOM     31  C   UNL     1       1.352   8.054  20.072  0.00  0.00    +0.000 A 
ATOM     32  H   UNL     1       4.218   5.992  17.327  0.00  0.00    +0.000 HD
ENDBRANCH  22  23
ENDBRANCH   7  22
TORSDOF 3
ENDMDL
