MODEL 1
REMARK VINA RESULT:      -8.8      0.000      0.000
REMARK  Name = 
REMARK  4 active torsions:
REMARK  status: ('A' for Active; 'I' for Inactive)
REMARK    1  A    between atoms: C_1  and  C_2
REMARK    2  A    between atoms: C_5  and  C_6
REMARK    3  A    between atoms: C_8  and  C_9
REMARK    4  A    between atoms: C_13  and  C_14
REMARK                            x       y       z     vdW  Elec       q    Type
REMARK                         _______ _______ _______ _____ _____    ______ ____
ROOT
ATOM      1  C   UNL     1       6.468   5.272  15.811  0.00  0.00    +0.000 A 
ATOM      2  N   UNL     1       7.061   4.987  14.598  0.00  0.00    +0.000 NA
ATOM      3  C   UNL     1       6.140   4.379  13.888  0.00  0.00    +0.000 A 
ATOM      4  N   UNL     1       4.995   4.210  14.612  0.00  0.00    +0.000 N 
ATOM      5  C   UNL     1       5.172   4.761  15.865  0.00  0.00    +0.000 A 
ATOM      6  H   UNL     1       4.169   3.732  14.289  0.00  0.00    +0.000 HD
ENDROOT
BRANCH   5   7
ATOM      7  C   UNL     1       4.155   4.669  16.919  0.00  0.00    +0.000 A 
ATOM      8  C   UNL     1       3.663   5.823  17.537  0.00  0.00    +0.000 A 
ATOM      9  C   UNL     1       2.665   5.770  18.517  0.00  0.00    +0.000 A 
ATOM     10  C   UNL     1       2.180   4.523  18.942  0.00  0.00    +0.000 A 
ATOM     11  N   UNL     1       1.215   4.319  19.915  0.00  0.00    +0.000 NA
ATOM     12  C   UNL     1       1.020   3.030  20.069  0.00  0.00    +0.000 A 
ATOM     13  S   UNL     1       1.954   1.991  19.080  0.00  0.00    +0.000 S 
ATOM     14  C   UNL     1       2.702   3.368  18.358  0.00  0.00    +0.000 A 
ATOM     15  C   UNL     1       3.679   3.417  17.343  0.00  0.00    +0.000 A 
ENDBRANCH   5   7
BRANCH   1  20
ATOM     16  C   UNL     1       8.332   9.246  18.038  0.00  0.00    +0.000 C 
ATOM     17  C   UNL     1       7.995   7.801  17.974  0.00  0.00    +0.000 A 
ATOM     18  C   UNL     1       8.168   6.849  18.959  0.00  0.00    +0.000 A 
ATOM     19  S   UNL     1       7.673   5.310  18.380  0.00  0.00    +0.000 S 
ATOM     20  C   UNL     1       7.169   6.035  16.906  0.00  0.00    +0.000 A 
ATOM     21  N   UNL     1       7.424   7.325  16.813  0.00  0.00    +0.000 NA
ENDBRANCH   1  20
BRANCH   3  22
ATOM     22  C   UNL     1       6.311   3.923  12.445  0.00  0.00    +0.000 C 
ATOM     23  C   UNL     1       6.308   2.435  12.160  0.00  0.00    +0.000 C 
ATOM     24  C   UNL     1       5.135   3.262  11.757  0.00  0.00    +0.000 C 
ENDBRANCH   3  22
TORSDOF 3
ENDMDL
MODEL 2
REMARK VINA RESULT:      -8.6      1.055      1.478
REMARK  Name = 
REMARK  4 active torsions:
REMARK  status: ('A' for Active; 'I' for Inactive)
REMARK    1  A    between atoms: C_1  and  C_2
REMARK    2  A    between atoms: C_5  and  C_6
REMARK    3  A    between atoms: C_8  and  C_9
REMARK    4  A    between atoms: C_13  and  C_14
REMARK                            x       y       z     vdW  Elec       q    Type
REMARK                         _______ _______ _______ _____ _____    ______ ____
ROOT
ATOM      1  C   UNL     1       6.373   4.915  15.739  0.00  0.00    +0.000 A 
ATOM      2  N   UNL     1       6.888   4.780  14.465  0.00  0.00    +0.000 NA
ATOM      3  C   UNL     1       6.001   4.081  13.798  0.00  0.00    +0.000 A 
ATOM      4  N   UNL     1       4.962   3.711  14.603  0.00  0.00    +0.000 N 
ATOM      5  C   UNL     1       5.173   4.218  15.868  0.00  0.00    +0.000 A 
ATOM      6  H   UNL     1       4.185   3.134  14.320  0.00  0.00    +0.000 HD
ENDROOT
BRANCH   5   7
ATOM      7  C   UNL     1       4.279   3.926  16.996  0.00  0.00    +0.000 A 
ATOM      8  C   UNL     1       3.900   2.610  17.280  0.00  0.00    +0.000 A 
ATOM      9  C   UNL     1       3.081   2.296  18.371  0.00  0.00    +0.000 A 
ATOM     10  C   UNL     1       2.573   3.330  19.174  0.00  0.00    +0.000 A 
ATOM     11  N   UNL     1       1.737   3.170  20.267  0.00  0.00    +0.000 NA
ATOM     12  C   UNL     1       1.446   4.347  20.768  0.00  0.00    +0.000 A 
ATOM     13  S   UNL     1       2.139   5.703  19.986  0.00  0.00    +0.000 S 
ATOM     14  C   UNL     1       2.916   4.647  18.864  0.00  0.00    +0.000 A 
ATOM     15  C   UNL     1       3.770   4.966  17.790  0.00  0.00    +0.000 A 
ENDBRANCH   5   7
BRANCH   1  20
ATOM     16  C   UNL     1       8.112   8.981  17.899  0.00  0.00    +0.000 C 
ATOM     17  C   UNL     1       7.828   7.524  17.856  0.00  0.00    +0.000 A 
ATOM     18  C   UNL     1       8.046   6.591  18.849  0.00  0.00    +0.000 A 
ATOM     19  S   UNL     1       7.603   5.027  18.294  0.00  0.00    +0.000 S 
ATOM     20  C   UNL     1       7.057   5.716  16.817  0.00  0.00    +0.000 A 
ATOM     21  N   UNL     1       7.263   7.013  16.707  0.00  0.00    +0.000 NA
ENDBRANCH   1  20
BRANCH   3  22
ATOM     22  C   UNL     1       6.101   3.728  12.320  0.00  0.00    +0.000 C 
ATOM     23  C   UNL     1       5.903   2.281  11.915  0.00  0.00    +0.000 C 
ATOM     24  C   UNL     1       4.845   3.283  11.601  0.00  0.00    +0.000 C 
ENDBRANCH   3  22
TORSDOF 3
ENDMDL
MODEL 3
REMARK VINA RESULT:      -7.9      3.129      5.572
REMARK  Name = 
REMARK  4 active torsions:
REMARK  status: ('A' for Active; 'I' for Inactive)
REMARK    1  A    between atoms: C_1  and  C_2
REMARK    2  A    between atoms: C_5  and  C_6
REMARK    3  A    between atoms: C_8  and  C_9
REMARK    4  A    between atoms: C_13  and  C_14
REMARK                            x       y       z     vdW  Elec       q    Type
REMARK                         _______ _______ _______ _____ _____    ______ ____
ROOT
ATOM      1  C   UNL     1       3.431   5.109  17.841  0.00  0.00    +0.000 A 
ATOM      2  N   UNL     1       4.357   4.583  16.962  0.00  0.00    +0.000 NA
ATOM      3  C   UNL     1       4.954   5.616  16.418  0.00  0.00    +0.000 A 
ATOM      4  N   UNL     1       4.415   6.787  16.867  0.00  0.00    +0.000 N 
ATOM      5  C   UNL     1       3.418   6.502  17.777  0.00  0.00    +0.000 A 
ATOM      6  H   UNL     1       4.685   7.708  16.557  0.00  0.00    +0.000 HD
ENDROOT
BRANCH   5   7
ATOM      7  C   UNL     1       2.579   7.543  18.382  0.00  0.00    +0.000 A 
ATOM      8  C   UNL     1       2.103   8.610  17.613  0.00  0.00    +0.000 A 
ATOM      9  C   UNL     1       1.269   9.596  18.153  0.00  0.00    +0.000 A 
ATOM     10  C   UNL     1       0.943   9.555  19.518  0.00  0.00    +0.000 A 
ATOM     11  N   UNL     1       0.151  10.472  20.189  0.00  0.00    +0.000 NA
ATOM     12  C   UNL     1       0.073  10.134  21.455  0.00  0.00    +0.000 A 
ATOM     13  S   UNL     1       0.921   8.723  21.924  0.00  0.00    +0.000 S 
ATOM     14  C   UNL     1       1.453   8.514  20.296  0.00  0.00    +0.000 A 
ATOM     15  C   UNL     1       2.262   7.497  19.750  0.00  0.00    +0.000 A 
ENDBRANCH   5   7
BRANCH   1  20
ATOM     16  C   UNL     1       2.067   2.932  22.039  0.00  0.00    +0.000 C 
ATOM     17  C   UNL     1       1.883   3.274  20.606  0.00  0.00    +0.000 A 
ATOM     18  C   UNL     1       0.815   2.956  19.792  0.00  0.00    +0.000 A 
ATOM     19  S   UNL     1       1.099   3.531  18.199  0.00  0.00    +0.000 S 
ATOM     20  C   UNL     1       2.567   4.252  18.729  0.00  0.00    +0.000 A 
ATOM     21  N   UNL     1       2.871   4.014  19.990  0.00  0.00    +0.000 NA
ENDBRANCH   1  20
BRANCH   3  22
ATOM     22  C   UNL     1       6.103   5.534  15.422  0.00  0.00    +0.000 C 
ATOM     23  C   UNL     1       7.263   4.613  15.742  0.00  0.00    +0.000 C 
ATOM     24  C   UNL     1       6.305   4.239  14.664  0.00  0.00    +0.000 C 
ENDBRANCH   3  22
TORSDOF 3
ENDMDL
MODEL 4
REMARK VINA RESULT:      -7.7      1.290      1.741
REMARK  Name = 
REMARK  4 active torsions:
REMARK  status: ('A' for Active; 'I' for Inactive)
REMARK    1  A    between atoms: C_1  and  C_2
REMARK    2  A    between atoms: C_5  and  C_6
REMARK    3  A    between atoms: C_8  and  C_9
REMARK    4  A    between atoms: C_13  and  C_14
REMARK                            x       y       z     vdW  Elec       q    Type
REMARK                         _______ _______ _______ _____ _____    ______ ____
ROOT
ATOM      1  C   UNL     1       6.544   5.076  16.123  0.00  0.00    +0.000 A 
ATOM      2  N   UNL     1       7.138   4.643  14.954  0.00  0.00    +0.000 NA
ATOM      3  C   UNL     1       6.233   3.909  14.350  0.00  0.00    +0.000 A 
ATOM      4  N   UNL     1       5.101   3.805  15.106  0.00  0.00    +0.000 N 
ATOM      5  C   UNL     1       5.268   4.534  16.265  0.00  0.00    +0.000 A 
ATOM      6  H   UNL     1       4.290   3.258  14.865  0.00  0.00    +0.000 HD
ENDROOT
BRANCH   5   7
ATOM      7  C   UNL     1       4.264   4.557  17.336  0.00  0.00    +0.000 A 
ATOM      8  C   UNL     1       3.640   3.377  17.752  0.00  0.00    +0.000 A 
ATOM      9  C   UNL     1       2.708   3.362  18.796  0.00  0.00    +0.000 A 
ATOM     10  C   UNL     1       2.338   4.568  19.410  0.00  0.00    +0.000 A 
ATOM     11  N   UNL     1       1.415   4.706  20.435  0.00  0.00    +0.000 NA
ATOM     12  C   UNL     1       1.304   5.975  20.751  0.00  0.00    +0.000 A 
ATOM     13  S   UNL     1       2.277   7.072  19.867  0.00  0.00    +0.000 S 
ATOM     14  C   UNL     1       2.928   5.753  18.966  0.00  0.00    +0.000 A 
ATOM     15  C   UNL     1       3.895   5.770  17.941  0.00  0.00    +0.000 A 
ENDBRANCH   5   7
BRANCH   1  20
ATOM     16  C   UNL     1       8.212   9.402  17.775  0.00  0.00    +0.000 C 
ATOM     17  C   UNL     1       7.968   7.943  17.901  0.00  0.00    +0.000 A 
ATOM     18  C   UNL     1       8.231   7.134  18.987  0.00  0.00    +0.000 A 
ATOM     19  S   UNL     1       7.820   5.507  18.621  0.00  0.00    +0.000 S 
ATOM     20  C   UNL     1       7.227   6.011  17.089  0.00  0.00    +0.000 A 
ATOM     21  N   UNL     1       7.394   7.292  16.829  0.00  0.00    +0.000 NA
ENDBRANCH   1  20
BRANCH   3  22
ATOM     22  C   UNL     1       6.408   3.259  12.984  0.00  0.00    +0.000 C 
ATOM     23  C   UNL     1       5.536   3.745  11.844  0.00  0.00    +0.000 C 
ATOM     24  C   UNL     1       6.984   4.094  11.860  0.00  0.00    +0.000 C 
ENDBRANCH   3  22
TORSDOF 3
ENDMDL
MODEL 5
REMARK VINA RESULT:      -7.6      0.974      1.159
REMARK  Name = 
REMARK  4 active torsions:
REMARK  status: ('A' for Active; 'I' for Inactive)
REMARK    1  A    between atoms: C_1  and  C_2
REMARK    2  A    between atoms: C_5  and  C_6
REMARK    3  A    between atoms: C_8  and  C_9
REMARK    4  A    between atoms: C_13  and  C_14
REMARK                            x       y       z     vdW  Elec       q    Type
REMARK                         _______ _______ _______ _____ _____    ______ ____
ROOT
ATOM      1  C   UNL     1       6.462   5.105  15.862  0.00  0.00    +0.000 A 
ATOM      2  N   UNL     1       6.876   5.037  14.547  0.00  0.00    +0.000 NA
ATOM      3  C   UNL     1       6.010   4.258  13.944  0.00  0.00    +0.000 A 
ATOM      4  N   UNL     1       5.086   3.776  14.826  0.00  0.00    +0.000 N 
ATOM      5  C   UNL     1       5.353   4.289  16.078  0.00  0.00    +0.000 A 
ATOM      6  H   UNL     1       4.349   3.126  14.599  0.00  0.00    +0.000 HD
ENDROOT
BRANCH   5   7
ATOM      7  C   UNL     1       4.593   3.895  17.271  0.00  0.00    +0.000 A 
ATOM      8  C   UNL     1       5.241   3.701  18.495  0.00  0.00    +0.000 A 
ATOM      9  C   UNL     1       4.538   3.364  19.658  0.00  0.00    +0.000 A 
ATOM     10  C   UNL     1       3.152   3.155  19.593  0.00  0.00    +0.000 A 
ATOM     11  N   UNL     1       2.336   2.797  20.653  0.00  0.00    +0.000 NA
ATOM     12  C   UNL     1       1.101   2.670  20.228  0.00  0.00    +0.000 A 
ATOM     13  S   UNL     1       0.831   2.967  18.564  0.00  0.00    +0.000 S 
ATOM     14  C   UNL     1       2.511   3.306  18.362  0.00  0.00    +0.000 A 
ATOM     15  C   UNL     1       3.206   3.683  17.196  0.00  0.00    +0.000 A 
ENDBRANCH   5   7
BRANCH   1  20
ATOM     16  C   UNL     1       8.107   9.292  17.859  0.00  0.00    +0.000 C 
ATOM     17  C   UNL     1       7.884   7.823  17.861  0.00  0.00    +0.000 A 
ATOM     18  C   UNL     1       8.180   6.925  18.865  0.00  0.00    +0.000 A 
ATOM     19  S   UNL     1       7.783   5.331  18.364  0.00  0.00    +0.000 S 
ATOM     20  C   UNL     1       7.152   5.960  16.894  0.00  0.00    +0.000 A 
ATOM     21  N   UNL     1       7.298   7.261  16.746  0.00  0.00    +0.000 NA
ENDBRANCH   1  20
BRANCH   3  22
ATOM     22  C   UNL     1       6.018   3.932  12.456  0.00  0.00    +0.000 C 
ATOM     23  C   UNL     1       6.035   2.475  12.043  0.00  0.00    +0.000 C 
ATOM     24  C   UNL     1       4.792   3.276  11.857  0.00  0.00    +0.000 C 
ENDBRANCH   3  22
TORSDOF 3
ENDMDL
MODEL 6
REMARK VINA RESULT:      -7.6      1.388      2.001
REMARK  Name = 
REMARK  4 active torsions:
REMARK  status: ('A' for Active; 'I' for Inactive)
REMARK    1  A    between atoms: C_1  and  C_2
REMARK    2  A    between atoms: C_5  and  C_6
REMARK    3  A    between atoms: C_8  and  C_9
REMARK    4  A    between atoms: C_13  and  C_14
REMARK                            x       y       z     vdW  Elec       q    Type
REMARK                         _______ _______ _______ _____ _____    ______ ____
ROOT
ATOM      1  C   UNL     1       6.354   4.817  16.039  0.00  0.00    +0.000 A 
ATOM      2  N   UNL     1       6.906   4.786  14.773  0.00  0.00    +0.000 NA
ATOM      3  C   UNL     1       6.047   4.129  14.030  0.00  0.00    +0.000 A 
ATOM      4  N   UNL     1       4.991   3.688  14.774  0.00  0.00    +0.000 N 
ATOM      5  C   UNL     1       5.160   4.099  16.080  0.00  0.00    +0.000 A 
ATOM      6  H   UNL     1       4.230   3.125  14.427  0.00  0.00    +0.000 HD
ENDROOT
BRANCH   5   7
ATOM      7  C   UNL     1       4.239   3.712  17.156  0.00  0.00    +0.000 A 
ATOM      8  C   UNL     1       3.860   2.376  17.321  0.00  0.00    +0.000 A 
ATOM      9  C   UNL     1       3.015   1.971  18.361  0.00  0.00    +0.000 A 
ATOM     10  C   UNL     1       2.480   2.933  19.233  0.00  0.00    +0.000 A 
ATOM     11  N   UNL     1       1.617   2.681  20.286  0.00  0.00    +0.000 NA
ATOM     12  C   UNL     1       1.307   3.812  20.874  0.00  0.00    +0.000 A 
ATOM     13  S   UNL     1       2.013   5.230  20.225  0.00  0.00    +0.000 S 
ATOM     14  C   UNL     1       2.824   4.273  19.041  0.00  0.00    +0.000 A 
ATOM     15  C   UNL     1       3.704   4.682  18.020  0.00  0.00    +0.000 A 
ENDBRANCH   5   7
BRANCH   1  20
ATOM     16  C   UNL     1       8.525   5.232  20.437  0.00  0.00    +0.000 C 
ATOM     17  C   UNL     1       8.014   5.783  19.156  0.00  0.00    +0.000 A 
ATOM     18  C   UNL     1       8.106   7.083  18.700  0.00  0.00    +0.000 A 
ATOM     19  S   UNL     1       7.312   7.230  17.184  0.00  0.00    +0.000 S 
ATOM     20  C   UNL     1       6.997   5.541  17.194  0.00  0.00    +0.000 A 
ATOM     21  N   UNL     1       7.384   4.916  18.289  0.00  0.00    +0.000 NA
ENDBRANCH   1  20
BRANCH   3  22
ATOM     22  C   UNL     1       6.194   3.891  12.533  0.00  0.00    +0.000 C 
ATOM     23  C   UNL     1       6.297   2.461  12.043  0.00  0.00    +0.000 C 
ATOM     24  C   UNL     1       5.047   3.233  11.795  0.00  0.00    +0.000 C 
ENDBRANCH   3  22
TORSDOF 3
ENDMDL
MODEL 7
REMARK VINA RESULT:      -7.5      3.322      5.840
REMARK  Name = 
REMARK  4 active torsions:
REMARK  status: ('A' for Active; 'I' for Inactive)
REMARK    1  A    between atoms: C_1  and  C_2
REMARK    2  A    between atoms: C_5  and  C_6
REMARK    3  A    between atoms: C_8  and  C_9
REMARK    4  A    between atoms: C_13  and  C_14
REMARK                            x       y       z     vdW  Elec       q    Type
REMARK                         _______ _______ _______ _____ _____    ______ ____
ROOT
ATOM      1  C   UNL     1       3.330   5.041  17.945  0.00  0.00    +0.000 A 
ATOM      2  N   UNL     1       4.212   4.631  16.965  0.00  0.00    +0.000 NA
ATOM      3  C   UNL     1       4.776   5.727  16.516  0.00  0.00    +0.000 A 
ATOM      4  N   UNL     1       4.255   6.832  17.125  0.00  0.00    +0.000 N 
ATOM      5  C   UNL     1       3.307   6.432  18.045  0.00  0.00    +0.000 A 
ATOM      6  H   UNL     1       4.504   7.785  16.912  0.00  0.00    +0.000 HD
ENDROOT
BRANCH   5   7
ATOM      7  C   UNL     1       2.495   7.386  18.809  0.00  0.00    +0.000 A 
ATOM      8  C   UNL     1       2.179   7.138  20.149  0.00  0.00    +0.000 A 
ATOM      9  C   UNL     1       1.440   8.047  20.915  0.00  0.00    +0.000 A 
ATOM     10  C   UNL     1       0.947   9.216  20.314  0.00  0.00    +0.000 A 
ATOM     11  N   UNL     1       0.185  10.189  20.941  0.00  0.00    +0.000 NA
ATOM     12  C   UNL     1      -0.114  11.130  20.077  0.00  0.00    +0.000 A 
ATOM     13  S   UNL     1       0.484  10.926  18.486  0.00  0.00    +0.000 S 
ATOM     14  C   UNL     1       1.225   9.444  18.965  0.00  0.00    +0.000 A 
ATOM     15  C   UNL     1       2.001   8.551  18.200  0.00  0.00    +0.000 A 
ENDBRANCH   5   7
BRANCH   1  20
ATOM     16  C   UNL     1       1.988   2.636  22.024  0.00  0.00    +0.000 C 
ATOM     17  C   UNL     1       1.843   2.990  20.589  0.00  0.00    +0.000 A 
ATOM     18  C   UNL     1       0.861   2.579  19.712  0.00  0.00    +0.000 A 
ATOM     19  S   UNL     1       1.165   3.218  18.147  0.00  0.00    +0.000 S 
ATOM     20  C   UNL     1       2.517   4.077  18.769  0.00  0.00    +0.000 A 
ATOM     21  N   UNL     1       2.778   3.844  20.040  0.00  0.00    +0.000 NA
ENDBRANCH   1  20
BRANCH   3  22
ATOM     22  C   UNL     1       5.872   5.774  15.460  0.00  0.00    +0.000 C 
ATOM     23  C   UNL     1       7.135   4.973  15.704  0.00  0.00    +0.000 C 
ATOM     24  C   UNL     1       6.164   4.514  14.671  0.00  0.00    +0.000 C 
ENDBRANCH   3  22
TORSDOF 3
ENDMDL
MODEL 8
REMARK VINA RESULT:      -7.4      0.943      1.345
REMARK  Name = 
REMARK  4 active torsions:
REMARK  status: ('A' for Active; 'I' for Inactive)
REMARK    1  A    between atoms: C_1  and  C_2
REMARK    2  A    between atoms: C_5  and  C_6
REMARK    3  A    between atoms: C_8  and  C_9
REMARK    4  A    between atoms: C_13  and  C_14
REMARK                            x       y       z     vdW  Elec       q    Type
REMARK                         _______ _______ _______ _____ _____    ______ ____
ROOT
ATOM      1  C   UNL     1       6.453   5.090  16.076  0.00  0.00    +0.000 A 
ATOM      2  N   UNL     1       7.103   4.848  14.881  0.00  0.00    +0.000 NA
ATOM      3  C   UNL     1       6.195   4.336  14.084  0.00  0.00    +0.000 A 
ATOM      4  N   UNL     1       5.003   4.185  14.731  0.00  0.00    +0.000 N 
ATOM      5  C   UNL     1       5.132   4.648  16.024  0.00  0.00    +0.000 A 
ATOM      6  H   UNL     1       4.173   3.773  14.332  0.00  0.00    +0.000 HD
ENDROOT
BRANCH   5   7
ATOM      7  C   UNL     1       4.051   4.547  17.012  0.00  0.00    +0.000 A 
ATOM      8  C   UNL     1       3.486   5.699  17.568  0.00  0.00    +0.000 A 
ATOM      9  C   UNL     1       2.428   5.635  18.482  0.00  0.00    +0.000 A 
ATOM     10  C   UNL     1       1.953   4.384  18.905  0.00  0.00    +0.000 A 
ATOM     11  N   UNL     1       0.933   4.171  19.818  0.00  0.00    +0.000 NA
ATOM     12  C   UNL     1       0.766   2.880  19.989  0.00  0.00    +0.000 A 
ATOM     13  S   UNL     1       1.794   1.850  19.087  0.00  0.00    +0.000 S 
ATOM     14  C   UNL     1       2.546   3.233  18.383  0.00  0.00    +0.000 A 
ATOM     15  C   UNL     1       3.586   3.290  17.434  0.00  0.00    +0.000 A 
ENDBRANCH   5   7
BRANCH   1  20
ATOM     16  C   UNL     1       8.606   5.264  20.498  0.00  0.00    +0.000 C 
ATOM     17  C   UNL     1       8.139   5.878  19.230  0.00  0.00    +0.000 A 
ATOM     18  C   UNL     1       8.308   7.181  18.809  0.00  0.00    +0.000 A 
ATOM     19  S   UNL     1       7.537   7.414  17.292  0.00  0.00    +0.000 S 
ATOM     20  C   UNL     1       7.126   5.746  17.254  0.00  0.00    +0.000 A 
ATOM     21  N   UNL     1       7.467   5.071  18.334  0.00  0.00    +0.000 NA
ENDBRANCH   1  20
BRANCH   3  22
ATOM     22  C   UNL     1       6.428   3.960  12.627  0.00  0.00    +0.000 C 
ATOM     23  C   UNL     1       6.377   2.494  12.249  0.00  0.00    +0.000 C 
ATOM     24  C   UNL     1       5.266   3.397  11.836  0.00  0.00    +0.000 C 
ENDBRANCH   3  22
TORSDOF 3
ENDMDL
MODEL 9
REMARK VINA RESULT:      -7.0      3.492      6.019
REMARK  Name = 
REMARK  4 active torsions:
REMARK  status: ('A' for Active; 'I' for Inactive)
REMARK    1  A    between atoms: C_1  and  C_2
REMARK    2  A    between atoms: C_5  and  C_6
REMARK    3  A    between atoms: C_8  and  C_9
REMARK    4  A    between atoms: C_13  and  C_14
REMARK                            x       y       z     vdW  Elec       q    Type
REMARK                         _______ _______ _______ _____ _____    ______ ____
ROOT
ATOM      1  C   UNL     1       3.793   5.254  18.635  0.00  0.00    +0.000 A 
ATOM      2  N   UNL     1       3.761   3.955  19.101  0.00  0.00    +0.000 NA
ATOM      3  C   UNL     1       2.625   3.840  19.748  0.00  0.00    +0.000 A 
ATOM      4  N   UNL     1       1.949   5.026  19.766  0.00  0.00    +0.000 N 
ATOM      5  C   UNL     1       2.677   5.968  19.071  0.00  0.00    +0.000 A 
ATOM      6  H   UNL     1       1.074   5.188  20.240  0.00  0.00    +0.000 HD
ENDROOT
BRANCH   5   7
ATOM      7  C   UNL     1       2.266   7.374  18.978  0.00  0.00    +0.000 A 
ATOM      8  C   UNL     1       2.454   8.094  17.794  0.00  0.00    +0.000 A 
ATOM      9  C   UNL     1       2.037   9.423  17.662  0.00  0.00    +0.000 A 
ATOM     10  C   UNL     1       1.467  10.081  18.763  0.00  0.00    +0.000 A 
ATOM     11  N   UNL     1       1.032  11.396  18.785  0.00  0.00    +0.000 NA
ATOM     12  C   UNL     1       0.572  11.682  19.980  0.00  0.00    +0.000 A 
ATOM     13  S   UNL     1       0.623  10.425  21.140  0.00  0.00    +0.000 S 
ATOM     14  C   UNL     1       1.319   9.377  19.960  0.00  0.00    +0.000 A 
ATOM     15  C   UNL     1       1.702   8.027  20.086  0.00  0.00    +0.000 A 
ENDBRANCH   5   7
BRANCH   1  20
ATOM     16  C   UNL     1       7.786   7.943  17.611  0.00  0.00    +0.000 C 
ATOM     17  C   UNL     1       6.735   6.952  17.268  0.00  0.00    +0.000 A 
ATOM     18  C   UNL     1       6.609   6.223  16.102  0.00  0.00    +0.000 A 
ATOM     19  S   UNL     1       5.194   5.251  16.168  0.00  0.00    +0.000 S 
ATOM     20  C   UNL     1       4.910   5.788  17.775  0.00  0.00    +0.000 A 
ATOM     21  N   UNL     1       5.763   6.693  18.212  0.00  0.00    +0.000 NA
ENDBRANCH   1  20
BRANCH   3  22
ATOM     22  C   UNL     1       2.114   2.557  20.391  0.00  0.00    +0.000 C 
ATOM     23  C   UNL     1       2.572   2.231  21.798  0.00  0.00    +0.000 C 
ATOM     24  C   UNL     1       1.168   2.671  21.567  0.00  0.00    +0.000 C 
ENDBRANCH   3  22
TORSDOF 3
ENDMDL
