MODEL 1
REMARK VINA RESULT:      -7.6      0.000      0.000
REMARK  Name = 
REMARK  7 active torsions:
REMARK  status: ('A' for Active; 'I' for Inactive)
REMARK    1  A    between atoms: C_1  and  C_2
REMARK    2  A    between atoms: C_2  and  C_3
REMARK    3  A    between atoms: C_3  and  C_4
REMARK    4  A    between atoms: C_14  and  C_15
REMARK    5  A    between atoms: N_17  and  C_18
REMARK    6  A    between atoms: C_22  and  C_23
REMARK    7  A    between atoms: C_23  and  C_24
REMARK                            x       y       z     vdW  Elec       q    Type
REMARK                         _______ _______ _______ _____ _____    ______ ____
ROOT
ATOM      1  C   UNL     1       4.698   4.362  17.292  0.00  0.00    +0.000 A 
ATOM      2  C   UNL     1       4.232   3.650  18.332  0.00  0.00    +0.000 A 
ATOM      3  C   UNL     1       3.319   4.291  19.311  0.00  0.00    +0.000 A 
ATOM      4  O   UNL     1       2.885   3.633  20.251  0.00  0.00    +0.000 OA
ATOM      5  N   UNL     1       3.057   5.616  19.033  0.00  0.00    +0.000 N 
ATOM      6  N   UNL     1       2.261   6.392  19.841  0.00  0.00    +0.000 NA
ATOM      7  C   UNL     1       2.149   7.587  19.339  0.00  0.00    +0.000 A 
ATOM      8  N   UNL     1       1.451   8.634  19.903  0.00  0.00    +0.000 N 
ATOM      9  C   UNL     1       0.908   9.758  19.140  0.00  0.00    +0.000 C 
ATOM     10  C   UNL     1       1.268  11.062  19.854  0.00  0.00    +0.000 C 
ATOM     11  C   UNL     1       0.782  11.069  21.316  0.00  0.00    +0.000 C 
ATOM     12  C   UNL     1       1.257   9.798  22.036  0.00  0.00    +0.000 C 
ATOM     13  C   UNL     1       0.906   8.525  21.257  0.00  0.00    +0.000 C 
ATOM     14  S   UNL     1       3.035   7.850  17.835  0.00  0.00    +0.000 S 
ATOM     15  C   UNL     1       3.575   6.215  17.923  0.00  0.00    +0.000 A 
ATOM     16  N   UNL     1       4.353   5.674  17.052  0.00  0.00    +0.000 NA
ENDROOT
BRANCH  11  17
ATOM     17  C   UNL     1      -0.739  11.230  21.367  0.00  0.00    +0.000 C 
ATOM     18  O   UNL     1      -1.402  10.632  22.212  0.00  0.00    +0.000 OA
ATOM     19  N   UNL     1      -1.266  12.046  20.380  0.00  0.00    +0.000 N 
ATOM     20  H   UNL     1      -0.680  12.259  19.583  0.00  0.00    +0.000 HD
BRANCH  19  21
ATOM     21  C   UNL     1      -2.622  12.440  20.300  0.00  0.00    +0.000 A 
ATOM     22  C   UNL     1      -3.216  13.288  21.238  0.00  0.00    +0.000 A 
ATOM     23  C   UNL     1      -4.562  13.632  21.140  0.00  0.00    +0.000 A 
ATOM     24  C   UNL     1      -5.337  13.136  20.096  0.00  0.00    +0.000 A 
ATOM     25  C   UNL     1      -4.764  12.303  19.129  0.00  0.00    +0.000 A 
ATOM     26  C   UNL     1      -3.396  11.974  19.230  0.00  0.00    +0.000 A 
BRANCH  25  27
ATOM     27  C   UNL     1      -5.547  11.724  17.993  0.00  0.00    +0.000 C 
ATOM     28  C   UNL     1      -4.876  11.333  16.697  0.00  0.00    +0.000 C 
ATOM     29  O   UNL     1      -6.764  11.580  18.120  0.00  0.00    +0.000 OA
ENDBRANCH  25  27
ENDBRANCH  19  21
ENDBRANCH  11  17
BRANCH   1  30
ATOM     30  C   UNL     1       5.649   3.758  16.285  0.00  0.00    +0.000 C 
BRANCH  30  32
ATOM     31  C   UNL     1       5.768   3.942  13.770  0.00  0.00    +0.000 C 
ATOM     32  C   UNL     1       5.883   4.689  15.090  0.00  0.00    +0.000 C 
ENDBRANCH  30  32
ENDBRANCH   1  30
TORSDOF 5
ENDMDL
MODEL 2
REMARK VINA RESULT:      -7.4      1.527      2.483
REMARK  Name = 
REMARK  7 active torsions:
REMARK  status: ('A' for Active; 'I' for Inactive)
REMARK    1  A    between atoms: C_1  and  C_2
REMARK    2  A    between atoms: C_2  and  C_3
REMARK    3  A    between atoms: C_3  and  C_4
REMARK    4  A    between atoms: C_14  and  C_15
REMARK    5  A    between atoms: N_17  and  C_18
REMARK    6  A    between atoms: C_22  and  C_23
REMARK    7  A    between atoms: C_23  and  C_24
REMARK                            x       y       z     vdW  Elec       q    Type
REMARK                         _______ _______ _______ _____ _____    ______ ____
ROOT
ATOM      1  C   UNL     1       4.752   4.356  17.058  0.00  0.00    +0.000 A 
ATOM      2  C   UNL     1       4.379   3.610  18.112  0.00  0.00    +0.000 A 
ATOM      3  C   UNL     1       3.511   4.199  19.159  0.00  0.00    +0.000 A 
ATOM      4  O   UNL     1       3.162   3.509  20.112  0.00  0.00    +0.000 OA
ATOM      5  N   UNL     1       3.184   5.518  18.926  0.00  0.00    +0.000 N 
ATOM      6  N   UNL     1       2.416   6.250  19.799  0.00  0.00    +0.000 NA
ATOM      7  C   UNL     1       2.230   7.449  19.329  0.00  0.00    +0.000 A 
ATOM      8  N   UNL     1       1.533   8.459  19.958  0.00  0.00    +0.000 N 
ATOM      9  C   UNL     1       0.903   9.577  19.254  0.00  0.00    +0.000 C 
ATOM     10  C   UNL     1       1.262  10.880  19.970  0.00  0.00    +0.000 C 
ATOM     11  C   UNL     1       0.872  10.843  21.460  0.00  0.00    +0.000 C 
ATOM     12  C   UNL     1       1.438   9.578  22.122  0.00  0.00    +0.000 C 
ATOM     13  C   UNL     1       1.082   8.307  21.342  0.00  0.00    +0.000 C 
ATOM     14  S   UNL     1       3.006   7.771  17.777  0.00  0.00    +0.000 S 
ATOM     15  C   UNL     1       3.608   6.156  17.798  0.00  0.00    +0.000 A 
ATOM     16  N   UNL     1       4.347   5.659  16.868  0.00  0.00    +0.000 NA
ENDROOT
BRANCH  11  17
ATOM     17  C   UNL     1      -0.647  10.947  21.612  0.00  0.00    +0.000 C 
ATOM     18  O   UNL     1      -1.260  10.148  22.316  0.00  0.00    +0.000 OA
ATOM     19  N   UNL     1      -1.232  11.962  20.873  0.00  0.00    +0.000 N 
ATOM     20  H   UNL     1      -0.687  12.375  20.127  0.00  0.00    +0.000 HD
BRANCH  19  21
ATOM     21  C   UNL     1      -2.596  12.329  20.947  0.00  0.00    +0.000 A 
ATOM     22  C   UNL     1      -3.403  12.456  19.813  0.00  0.00    +0.000 A 
ATOM     23  C   UNL     1      -4.735  12.846  19.923  0.00  0.00    +0.000 A 
ATOM     24  C   UNL     1      -5.286  13.112  21.174  0.00  0.00    +0.000 A 
ATOM     25  C   UNL     1      -4.508  12.972  22.328  0.00  0.00    +0.000 A 
ATOM     26  C   UNL     1      -3.164  12.562  22.205  0.00  0.00    +0.000 A 
BRANCH  25  27
ATOM     27  C   UNL     1      -5.034  13.260  23.699  0.00  0.00    +0.000 C 
ATOM     28  C   UNL     1      -4.724  12.351  24.865  0.00  0.00    +0.000 C 
ATOM     29  O   UNL     1      -5.747  14.251  23.867  0.00  0.00    +0.000 OA
ENDBRANCH  25  27
ENDBRANCH  19  21
ENDBRANCH  11  17
BRANCH   1  30
ATOM     30  C   UNL     1       5.656   3.805  15.980  0.00  0.00    +0.000 C 
BRANCH  30  32
ATOM     31  C   UNL     1       7.648   4.525  17.352  0.00  0.00    +0.000 C 
ATOM     32  C   UNL     1       7.021   4.501  15.967  0.00  0.00    +0.000 C 
ENDBRANCH  30  32
ENDBRANCH   1  30
TORSDOF 5
ENDMDL
MODEL 3
REMARK VINA RESULT:      -7.4      3.525      5.196
REMARK  Name = 
REMARK  7 active torsions:
REMARK  status: ('A' for Active; 'I' for Inactive)
REMARK    1  A    between atoms: C_1  and  C_2
REMARK    2  A    between atoms: C_2  and  C_3
REMARK    3  A    between atoms: C_3  and  C_4
REMARK    4  A    between atoms: C_14  and  C_15
REMARK    5  A    between atoms: N_17  and  C_18
REMARK    6  A    between atoms: C_22  and  C_23
REMARK    7  A    between atoms: C_23  and  C_24
REMARK                            x       y       z     vdW  Elec       q    Type
REMARK                         _______ _______ _______ _____ _____    ______ ____
ROOT
ATOM      1  C   UNL     1       4.031   4.063  19.159  0.00  0.00    +0.000 A 
ATOM      2  C   UNL     1       4.467   4.603  18.009  0.00  0.00    +0.000 A 
ATOM      3  C   UNL     1       4.038   5.971  17.631  0.00  0.00    +0.000 A 
ATOM      4  O   UNL     1       4.449   6.466  16.586  0.00  0.00    +0.000 OA
ATOM      5  N   UNL     1       3.184   6.553  18.544  0.00  0.00    +0.000 N 
ATOM      6  N   UNL     1       2.649   7.804  18.356  0.00  0.00    +0.000 NA
ATOM      7  C   UNL     1       1.907   8.128  19.375  0.00  0.00    +0.000 A 
ATOM      8  N   UNL     1       1.191   9.299  19.508  0.00  0.00    +0.000 N 
ATOM      9  C   UNL     1       0.800   9.875  20.796  0.00  0.00    +0.000 C 
ATOM     10  C   UNL     1      -0.674  10.276  20.732  0.00  0.00    +0.000 C 
ATOM     11  C   UNL     1      -0.958  11.236  19.561  0.00  0.00    +0.000 C 
ATOM     12  C   UNL     1      -0.402  10.653  18.253  0.00  0.00    +0.000 C 
ATOM     13  C   UNL     1       1.066  10.231  18.385  0.00  0.00    +0.000 C 
ATOM     14  S   UNL     1       1.798   6.901  20.638  0.00  0.00    +0.000 S 
ATOM     15  C   UNL     1       2.839   5.904  19.692  0.00  0.00    +0.000 A 
ATOM     16  N   UNL     1       3.213   4.725  20.049  0.00  0.00    +0.000 NA
ENDROOT
BRANCH  11  17
ATOM     17  C   UNL     1      -0.390  12.624  19.864  0.00  0.00    +0.000 C 
ATOM     18  O   UNL     1      -0.173  12.971  21.023  0.00  0.00    +0.000 OA
ATOM     19  N   UNL     1      -0.197  13.423  18.750  0.00  0.00    +0.000 N 
ATOM     20  H   UNL     1      -0.659  13.153  17.891  0.00  0.00    +0.000 HD
BRANCH  19  21
ATOM     21  C   UNL     1       0.428  14.692  18.767  0.00  0.00    +0.000 A 
ATOM     22  C   UNL     1      -0.296  15.887  18.769  0.00  0.00    +0.000 A 
ATOM     23  C   UNL     1       0.356  17.118  18.758  0.00  0.00    +0.000 A 
ATOM     24  C   UNL     1       1.746  17.175  18.750  0.00  0.00    +0.000 A 
ATOM     25  C   UNL     1       2.498  15.994  18.769  0.00  0.00    +0.000 A 
ATOM     26  C   UNL     1       1.827  14.754  18.796  0.00  0.00    +0.000 A 
BRANCH  25  27
ATOM     27  C   UNL     1       3.994  15.987  18.743  0.00  0.00    +0.000 C 
ATOM     28  C   UNL     1       4.757  15.068  17.818  0.00  0.00    +0.000 C 
ATOM     29  O   UNL     1       4.606  16.736  19.505  0.00  0.00    +0.000 OA
ENDBRANCH  25  27
ENDBRANCH  19  21
ENDBRANCH  11  17
BRANCH   1  30
ATOM     30  C   UNL     1       4.423   2.663  19.573  0.00  0.00    +0.000 C 
BRANCH  30  32
ATOM     31  C   UNL     1       2.173   1.907  18.714  0.00  0.00    +0.000 C 
ATOM     32  C   UNL     1       3.660   1.598  18.777  0.00  0.00    +0.000 C 
ENDBRANCH  30  32
ENDBRANCH   1  30
TORSDOF 5
ENDMDL
MODEL 4
REMARK VINA RESULT:      -7.2      3.783      5.510
REMARK  Name = 
REMARK  7 active torsions:
REMARK  status: ('A' for Active; 'I' for Inactive)
REMARK    1  A    between atoms: C_1  and  C_2
REMARK    2  A    between atoms: C_2  and  C_3
REMARK    3  A    between atoms: C_3  and  C_4
REMARK    4  A    between atoms: C_14  and  C_15
REMARK    5  A    between atoms: N_17  and  C_18
REMARK    6  A    between atoms: C_22  and  C_23
REMARK    7  A    between atoms: C_23  and  C_24
REMARK                            x       y       z     vdW  Elec       q    Type
REMARK                         _______ _______ _______ _____ _____    ______ ____
ROOT
ATOM      1  C   UNL     1       3.325   4.736  19.622  0.00  0.00    +0.000 A 
ATOM      2  C   UNL     1       3.739   5.201  18.431  0.00  0.00    +0.000 A 
ATOM      3  C   UNL     1       3.341   6.561  17.995  0.00  0.00    +0.000 A 
ATOM      4  O   UNL     1       3.732   6.987  16.913  0.00  0.00    +0.000 OA
ATOM      5  N   UNL     1       2.536   7.217  18.903  0.00  0.00    +0.000 N 
ATOM      6  N   UNL     1       2.035   8.474  18.666  0.00  0.00    +0.000 NA
ATOM      7  C   UNL     1       1.338   8.875  19.689  0.00  0.00    +0.000 A 
ATOM      8  N   UNL     1       0.664  10.074  19.783  0.00  0.00    +0.000 N 
ATOM      9  C   UNL     1       0.334  10.728  21.050  0.00  0.00    +0.000 C 
ATOM     10  C   UNL     1      -1.128  11.175  21.011  0.00  0.00    +0.000 C 
ATOM     11  C   UNL     1      -1.421  12.081  19.801  0.00  0.00    +0.000 C 
ATOM     12  C   UNL     1      -0.927  11.412  18.509  0.00  0.00    +0.000 C 
ATOM     13  C   UNL     1       0.531  10.950  18.617  0.00  0.00    +0.000 C 
ATOM     14  S   UNL     1       1.233   7.719  21.019  0.00  0.00    +0.000 S 
ATOM     15  C   UNL     1       2.209   6.640  20.094  0.00  0.00    +0.000 A 
ATOM     16  N   UNL     1       2.558   5.469  20.501  0.00  0.00    +0.000 NA
ENDROOT
BRANCH  11  17
ATOM     17  C   UNL     1      -0.799  13.463  20.012  0.00  0.00    +0.000 C 
ATOM     18  O   UNL     1      -0.553  13.871  21.145  0.00  0.00    +0.000 OA
ATOM     19  N   UNL     1      -0.596  14.187  18.849  0.00  0.00    +0.000 N 
ATOM     20  H   UNL     1      -1.081  13.883  18.014  0.00  0.00    +0.000 HD
BRANCH  19  21
ATOM     21  C   UNL     1       0.073  15.431  18.780  0.00  0.00    +0.000 A 
ATOM     22  C   UNL     1      -0.607  16.651  18.764  0.00  0.00    +0.000 A 
ATOM     23  C   UNL     1       0.085  17.855  18.668  0.00  0.00    +0.000 A 
ATOM     24  C   UNL     1       1.475  17.860  18.593  0.00  0.00    +0.000 A 
ATOM     25  C   UNL     1       2.185  16.654  18.629  0.00  0.00    +0.000 A 
ATOM     26  C   UNL     1       1.473  15.442  18.742  0.00  0.00    +0.000 A 
BRANCH  25  27
ATOM     27  C   UNL     1       3.677  16.590  18.533  0.00  0.00    +0.000 C 
ATOM     28  C   UNL     1       4.363  15.562  17.665  0.00  0.00    +0.000 C 
ATOM     29  O   UNL     1       4.350  17.384  19.191  0.00  0.00    +0.000 OA
ENDBRANCH  25  27
ENDBRANCH  19  21
ENDBRANCH  11  17
BRANCH   1  30
ATOM     30  C   UNL     1       3.686   3.347  20.097  0.00  0.00    +0.000 C 
BRANCH  30  32
ATOM     31  C   UNL     1       1.373   2.517  20.675  0.00  0.00    +0.000 C 
ATOM     32  C   UNL     1       2.753   2.864  21.212  0.00  0.00    +0.000 C 
ENDBRANCH  30  32
ENDBRANCH   1  30
TORSDOF 5
ENDMDL
MODEL 5
REMARK VINA RESULT:      -7.1      1.803      2.727
REMARK  Name = 
REMARK  7 active torsions:
REMARK  status: ('A' for Active; 'I' for Inactive)
REMARK    1  A    between atoms: C_1  and  C_2
REMARK    2  A    between atoms: C_2  and  C_3
REMARK    3  A    between atoms: C_3  and  C_4
REMARK    4  A    between atoms: C_14  and  C_15
REMARK    5  A    between atoms: N_17  and  C_18
REMARK    6  A    between atoms: C_22  and  C_23
REMARK    7  A    between atoms: C_23  and  C_24
REMARK                            x       y       z     vdW  Elec       q    Type
REMARK                         _______ _______ _______ _____ _____    ______ ____
ROOT
ATOM      1  C   UNL     1       4.074   4.549  18.303  0.00  0.00    +0.000 A 
ATOM      2  C   UNL     1       3.431   4.177  19.423  0.00  0.00    +0.000 A 
ATOM      3  C   UNL     1       2.526   5.135  20.103  0.00  0.00    +0.000 A 
ATOM      4  O   UNL     1       1.930   4.787  21.118  0.00  0.00    +0.000 OA
ATOM      5  N   UNL     1       2.460   6.365  19.482  0.00  0.00    +0.000 N 
ATOM      6  N   UNL     1       1.703   7.398  19.978  0.00  0.00    +0.000 NA
ATOM      7  C   UNL     1       1.788   8.430  19.191  0.00  0.00    +0.000 A 
ATOM      8  N   UNL     1       1.183   9.652  19.398  0.00  0.00    +0.000 N 
ATOM      9  C   UNL     1       0.857  10.594  18.326  0.00  0.00    +0.000 C 
ATOM     10  C   UNL     1       1.316  11.993  18.739  0.00  0.00    +0.000 C 
ATOM     11  C   UNL     1       0.709  12.422  20.087  0.00  0.00    +0.000 C 
ATOM     12  C   UNL     1       0.953  11.336  21.146  0.00  0.00    +0.000 C 
ATOM     13  C   UNL     1       0.512   9.949  20.665  0.00  0.00    +0.000 C 
ATOM     14  S   UNL     1       2.829   8.210  17.783  0.00  0.00    +0.000 S 
ATOM     15  C   UNL     1       3.146   6.605  18.329  0.00  0.00    +0.000 A 
ATOM     16  N   UNL     1       3.922   5.784  17.712  0.00  0.00    +0.000 NA
ENDROOT
BRANCH  11  17
ATOM     17  C   UNL     1      -0.778  12.745  19.920  0.00  0.00    +0.000 C 
ATOM     18  O   UNL     1      -1.193  13.257  18.883  0.00  0.00    +0.000 OA
ATOM     19  N   UNL     1      -1.558  12.452  21.026  0.00  0.00    +0.000 N 
ATOM     20  H   UNL     1      -1.087  12.299  21.908  0.00  0.00    +0.000 HD
BRANCH  19  21
ATOM     21  C   UNL     1      -2.969  12.548  21.065  0.00  0.00    +0.000 A 
ATOM     22  C   UNL     1      -3.756  12.526  19.911  0.00  0.00    +0.000 A 
ATOM     23  C   UNL     1      -5.141  12.651  19.987  0.00  0.00    +0.000 A 
ATOM     24  C   UNL     1      -5.765  12.794  21.224  0.00  0.00    +0.000 A 
ATOM     25  C   UNL     1      -5.004  12.797  22.398  0.00  0.00    +0.000 A 
ATOM     26  C   UNL     1      -3.603  12.655  22.309  0.00  0.00    +0.000 A 
BRANCH  25  27
ATOM     27  C   UNL     1      -5.610  12.966  23.755  0.00  0.00    +0.000 C 
ATOM     28  C   UNL     1      -6.574  14.091  24.049  0.00  0.00    +0.000 C 
ATOM     29  O   UNL     1      -5.300  12.176  24.648  0.00  0.00    +0.000 OA
ENDBRANCH  25  27
ENDBRANCH  19  21
ENDBRANCH  11  17
BRANCH   1  30
ATOM     30  C   UNL     1       5.024   3.614  17.591  0.00  0.00    +0.000 C 
BRANCH  30  32
ATOM     31  C   UNL     1       5.973   4.042  15.292  0.00  0.00    +0.000 C 
ATOM     32  C   UNL     1       6.071   4.377  16.772  0.00  0.00    +0.000 C 
ENDBRANCH  30  32
ENDBRANCH   1  30
TORSDOF 5
ENDMDL
MODEL 6
REMARK VINA RESULT:      -7.0      1.688      1.997
REMARK  Name = 
REMARK  7 active torsions:
REMARK  status: ('A' for Active; 'I' for Inactive)
REMARK    1  A    between atoms: C_1  and  C_2
REMARK    2  A    between atoms: C_2  and  C_3
REMARK    3  A    between atoms: C_3  and  C_4
REMARK    4  A    between atoms: C_14  and  C_15
REMARK    5  A    between atoms: N_17  and  C_18
REMARK    6  A    between atoms: C_22  and  C_23
REMARK    7  A    between atoms: C_23  and  C_24
REMARK                            x       y       z     vdW  Elec       q    Type
REMARK                         _______ _______ _______ _____ _____    ______ ____
ROOT
ATOM      1  C   UNL     1       4.113   4.547  17.959  0.00  0.00    +0.000 A 
ATOM      2  C   UNL     1       3.738   4.091  19.166  0.00  0.00    +0.000 A 
ATOM      3  C   UNL     1       2.892   4.939  20.041  0.00  0.00    +0.000 A 
ATOM      4  O   UNL     1       2.540   4.514  21.137  0.00  0.00    +0.000 OA
ATOM      5  N   UNL     1       2.589   6.167  19.490  0.00  0.00    +0.000 N 
ATOM      6  N   UNL     1       1.845   7.108  20.160  0.00  0.00    +0.000 NA
ATOM      7  C   UNL     1       1.677   8.158  19.409  0.00  0.00    +0.000 A 
ATOM      8  N   UNL     1       1.007   9.307  19.773  0.00  0.00    +0.000 N 
ATOM      9  C   UNL     1       0.391  10.230  18.818  0.00  0.00    +0.000 C 
ATOM     10  C   UNL     1       0.783  11.661  19.188  0.00  0.00    +0.000 C 
ATOM     11  C   UNL     1       0.409  12.001  20.643  0.00  0.00    +0.000 C 
ATOM     12  C   UNL     1       0.956  10.927  21.595  0.00  0.00    +0.000 C 
ATOM     13  C   UNL     1       0.567   9.511  21.155  0.00  0.00    +0.000 C 
ATOM     14  S   UNL     1       2.442   8.070  17.822  0.00  0.00    +0.000 S 
ATOM     15  C   UNL     1       3.013   6.497  18.237  0.00  0.00    +0.000 A 
ATOM     16  N   UNL     1       3.731   5.770  17.455  0.00  0.00    +0.000 NA
ENDROOT
BRANCH  11  17
ATOM     17  C   UNL     1      -1.106  12.173  20.773  0.00  0.00    +0.000 C 
ATOM     18  O   UNL     1      -1.844  11.956  19.815  0.00  0.00    +0.000 OA
ATOM     19  N   UNL     1      -1.531  12.620  22.014  0.00  0.00    +0.000 N 
ATOM     20  H   UNL     1      -0.839  13.028  22.629  0.00  0.00    +0.000 HD
BRANCH  19  21
ATOM     21  C   UNL     1      -2.884  12.735  22.409  0.00  0.00    +0.000 A 
ATOM     22  C   UNL     1      -3.299  12.562  23.732  0.00  0.00    +0.000 A 
ATOM     23  C   UNL     1      -4.644  12.656  24.077  0.00  0.00    +0.000 A 
ATOM     24  C   UNL     1      -5.600  12.932  23.104  0.00  0.00    +0.000 A 
ATOM     25  C   UNL     1      -5.212  13.133  21.775  0.00  0.00    +0.000 A 
ATOM     26  C   UNL     1      -3.844  13.050  21.439  0.00  0.00    +0.000 A 
BRANCH  25  27
ATOM     27  C   UNL     1      -6.191  13.415  20.679  0.00  0.00    +0.000 C 
ATOM     28  C   UNL     1      -7.618  12.925  20.757  0.00  0.00    +0.000 C 
ATOM     29  O   UNL     1      -5.813  14.045  19.690  0.00  0.00    +0.000 OA
ENDBRANCH  25  27
ENDBRANCH  19  21
ENDBRANCH  11  17
BRANCH   1  30
ATOM     30  C   UNL     1       4.995   3.726  17.045  0.00  0.00    +0.000 C 
BRANCH  30  32
ATOM     31  C   UNL     1       6.714   4.645  15.441  0.00  0.00    +0.000 C 
ATOM     32  C   UNL     1       5.231   4.425  15.702  0.00  0.00    +0.000 C 
ENDBRANCH  30  32
ENDBRANCH   1  30
TORSDOF 5
ENDMDL
MODEL 7
REMARK VINA RESULT:      -7.0      1.161      1.884
REMARK  Name = 
REMARK  7 active torsions:
REMARK  status: ('A' for Active; 'I' for Inactive)
REMARK    1  A    between atoms: C_1  and  C_2
REMARK    2  A    between atoms: C_2  and  C_3
REMARK    3  A    between atoms: C_3  and  C_4
REMARK    4  A    between atoms: C_14  and  C_15
REMARK    5  A    between atoms: N_17  and  C_18
REMARK    6  A    between atoms: C_22  and  C_23
REMARK    7  A    between atoms: C_23  and  C_24
REMARK                            x       y       z     vdW  Elec       q    Type
REMARK                         _______ _______ _______ _____ _____    ______ ____
ROOT
ATOM      1  C   UNL     1       5.280   4.916  17.456  0.00  0.00    +0.000 A 
ATOM      2  C   UNL     1       4.777   4.234  18.499  0.00  0.00    +0.000 A 
ATOM      3  C   UNL     1       3.709   4.843  19.328  0.00  0.00    +0.000 A 
ATOM      4  O   UNL     1       3.244   4.211  20.272  0.00  0.00    +0.000 OA
ATOM      5  N   UNL     1       3.351   6.110  18.920  0.00  0.00    +0.000 N 
ATOM      6  N   UNL     1       2.403   6.854  19.581  0.00  0.00    +0.000 NA
ATOM      7  C   UNL     1       2.229   7.992  18.976  0.00  0.00    +0.000 A 
ATOM      8  N   UNL     1       1.378   8.998  19.382  0.00  0.00    +0.000 N 
ATOM      9  C   UNL     1       0.812  10.003  18.481  0.00  0.00    +0.000 C 
ATOM     10  C   UNL     1       0.967  11.384  19.120  0.00  0.00    +0.000 C 
ATOM     11  C   UNL     1       0.331  11.443  20.522  0.00  0.00    +0.000 C 
ATOM     12  C   UNL     1       0.848  10.282  21.385  0.00  0.00    +0.000 C 
ATOM     13  C   UNL     1       0.706   8.928  20.681  0.00  0.00    +0.000 C 
ATOM     14  S   UNL     1       3.240   8.240  17.550  0.00  0.00    +0.000 S 
ATOM     15  C   UNL     1       3.923   6.681  17.822  0.00  0.00    +0.000 A 
ATOM     16  N   UNL     1       4.838   6.165  17.078  0.00  0.00    +0.000 NA
ENDROOT
BRANCH  11  17
ATOM     17  C   UNL     1      -1.196  11.447  20.411  0.00  0.00    +0.000 C 
ATOM     18  O   UNL     1      -1.894  11.196  21.391  0.00  0.00    +0.000 OA
ATOM     19  N   UNL     1      -1.680  11.708  19.140  0.00  0.00    +0.000 N 
ATOM     20  H   UNL     1      -1.036  11.625  18.364  0.00  0.00    +0.000 HD
BRANCH  19  21
ATOM     21  C   UNL     1      -3.047  11.884  18.819  0.00  0.00    +0.000 A 
ATOM     22  C   UNL     1      -3.599  11.441  17.615  0.00  0.00    +0.000 A 
ATOM     23  C   UNL     1      -4.944  11.657  17.323  0.00  0.00    +0.000 A 
ATOM     24  C   UNL     1      -5.762  12.317  18.235  0.00  0.00    +0.000 A 
ATOM     25  C   UNL     1      -5.241  12.753  19.459  0.00  0.00    +0.000 A 
ATOM     26  C   UNL     1      -3.881  12.515  19.750  0.00  0.00    +0.000 A 
BRANCH  25  27
ATOM     27  C   UNL     1      -6.062  13.484  20.473  0.00  0.00    +0.000 C 
ATOM     28  C   UNL     1      -7.272  14.292  20.068  0.00  0.00    +0.000 C 
ATOM     29  O   UNL     1      -5.727  13.434  21.658  0.00  0.00    +0.000 OA
ENDBRANCH  25  27
ENDBRANCH  19  21
ENDBRANCH  11  17
BRANCH   1  30
ATOM     30  C   UNL     1       6.386   4.344  16.598  0.00  0.00    +0.000 C 
BRANCH  30  32
ATOM     31  C   UNL     1       5.772   4.002  14.174  0.00  0.00    +0.000 C 
ATOM     32  C   UNL     1       6.388   4.950  15.190  0.00  0.00    +0.000 C 
ENDBRANCH  30  32
ENDBRANCH   1  30
TORSDOF 5
ENDMDL
MODEL 8
REMARK VINA RESULT:      -7.0      0.867      1.043
REMARK  Name = 
REMARK  7 active torsions:
REMARK  status: ('A' for Active; 'I' for Inactive)
REMARK    1  A    between atoms: C_1  and  C_2
REMARK    2  A    between atoms: C_2  and  C_3
REMARK    3  A    between atoms: C_3  and  C_4
REMARK    4  A    between atoms: C_14  and  C_15
REMARK    5  A    between atoms: N_17  and  C_18
REMARK    6  A    between atoms: C_22  and  C_23
REMARK    7  A    between atoms: C_23  and  C_24
REMARK                            x       y       z     vdW  Elec       q    Type
REMARK                         _______ _______ _______ _____ _____    ______ ____
ROOT
ATOM      1  C   UNL     1       4.418   4.965  17.208  0.00  0.00    +0.000 A 
ATOM      2  C   UNL     1       4.083   4.206  18.265  0.00  0.00    +0.000 A 
ATOM      3  C   UNL     1       3.222   4.771  19.332  0.00  0.00    +0.000 A 
ATOM      4  O   UNL     1       2.908   4.070  20.289  0.00  0.00    +0.000 OA
ATOM      5  N   UNL     1       2.860   6.083  19.110  0.00  0.00    +0.000 N 
ATOM      6  N   UNL     1       2.093   6.793  20.001  0.00  0.00    +0.000 NA
ATOM      7  C   UNL     1       1.869   7.989  19.540  0.00  0.00    +0.000 A 
ATOM      8  N   UNL     1       1.162   8.981  20.186  0.00  0.00    +0.000 N 
ATOM      9  C   UNL     1       0.492  10.086  19.499  0.00  0.00    +0.000 C 
ATOM     10  C   UNL     1       0.835  11.395  20.214  0.00  0.00    +0.000 C 
ATOM     11  C   UNL     1       0.475  11.343  21.710  0.00  0.00    +0.000 C 
ATOM     12  C   UNL     1       1.082  10.089  22.357  0.00  0.00    +0.000 C 
ATOM     13  C   UNL     1       0.741   8.813  21.579  0.00  0.00    +0.000 C 
ATOM     14  S   UNL     1       2.607   8.335  17.975  0.00  0.00    +0.000 S 
ATOM     15  C   UNL     1       3.247   6.734  17.977  0.00  0.00    +0.000 A 
ATOM     16  N   UNL     1       3.979   6.259  17.031  0.00  0.00    +0.000 NA
ENDROOT
BRANCH  11  17
ATOM     17  C   UNL     1      -1.043  11.412  21.893  0.00  0.00    +0.000 C 
ATOM     18  O   UNL     1      -1.580  10.885  22.865  0.00  0.00    +0.000 OA
ATOM     19  N   UNL     1      -1.717  12.060  20.872  0.00  0.00    +0.000 N 
ATOM     20  H   UNL     1      -1.224  12.207  20.001  0.00  0.00    +0.000 HD
BRANCH  19  21
ATOM     21  C   UNL     1      -3.101  12.353  20.879  0.00  0.00    +0.000 A 
ATOM     22  C   UNL     1      -3.786  12.721  22.039  0.00  0.00    +0.000 A 
ATOM     23  C   UNL     1      -5.155  12.975  22.012  0.00  0.00    +0.000 A 
ATOM     24  C   UNL     1      -5.863  12.871  20.818  0.00  0.00    +0.000 A 
ATOM     25  C   UNL     1      -5.199  12.526  19.636  0.00  0.00    +0.000 A 
ATOM     26  C   UNL     1      -3.810  12.285  19.673  0.00  0.00    +0.000 A 
BRANCH  25  27
ATOM     27  C   UNL     1      -5.905  12.379  18.324  0.00  0.00    +0.000 C 
ATOM     28  C   UNL     1      -5.175  11.907  17.089  0.00  0.00    +0.000 C 
ATOM     29  O   UNL     1      -7.102  12.665  18.257  0.00  0.00    +0.000 OA
ENDBRANCH  25  27
ENDBRANCH  19  21
ENDBRANCH  11  17
BRANCH   1  30
ATOM     30  C   UNL     1       5.313   4.439  16.110  0.00  0.00    +0.000 C 
BRANCH  30  32
ATOM     31  C   UNL     1       7.267   5.793  16.959  0.00  0.00    +0.000 C 
ATOM     32  C   UNL     1       6.785   4.414  16.536  0.00  0.00    +0.000 C 
ENDBRANCH  30  32
ENDBRANCH   1  30
TORSDOF 5
ENDMDL
MODEL 9
REMARK VINA RESULT:      -7.0      2.390      2.908
REMARK  Name = 
REMARK  7 active torsions:
REMARK  status: ('A' for Active; 'I' for Inactive)
REMARK    1  A    between atoms: C_1  and  C_2
REMARK    2  A    between atoms: C_2  and  C_3
REMARK    3  A    between atoms: C_3  and  C_4
REMARK    4  A    between atoms: C_14  and  C_15
REMARK    5  A    between atoms: N_17  and  C_18
REMARK    6  A    between atoms: C_22  and  C_23
REMARK    7  A    between atoms: C_23  and  C_24
REMARK                            x       y       z     vdW  Elec       q    Type
REMARK                         _______ _______ _______ _____ _____    ______ ____
ROOT
ATOM      1  C   UNL     1       3.740   4.800  18.160  0.00  0.00    +0.000 A 
ATOM      2  C   UNL     1       3.286   4.461  19.378  0.00  0.00    +0.000 A 
ATOM      3  C   UNL     1       2.498   5.439  20.167  0.00  0.00    +0.000 A 
ATOM      4  O   UNL     1       2.074   5.120  21.273  0.00  0.00    +0.000 OA
ATOM      5  N   UNL     1       2.329   6.651  19.531  0.00  0.00    +0.000 N 
ATOM      6  N   UNL     1       1.658   7.698  20.114  0.00  0.00    +0.000 NA
ATOM      7  C   UNL     1       1.613   8.708  19.294  0.00  0.00    +0.000 A 
ATOM      8  N   UNL     1       1.044   9.935  19.561  0.00  0.00    +0.000 N 
ATOM      9  C   UNL     1       0.548  10.847  18.530  0.00  0.00    +0.000 C 
ATOM     10  C   UNL     1       1.062  12.257  18.825  0.00  0.00    +0.000 C 
ATOM     11  C   UNL     1       0.677  12.724  20.241  0.00  0.00    +0.000 C 
ATOM     12  C   UNL     1       1.091  11.668  21.276  0.00  0.00    +0.000 C 
ATOM     13  C   UNL     1       0.583  10.268  20.911  0.00  0.00    +0.000 C 
ATOM     14  S   UNL     1       2.415   8.447  17.744  0.00  0.00    +0.000 S 
ATOM     15  C   UNL     1       2.821   6.858  18.276  0.00  0.00    +0.000 A 
ATOM     16  N   UNL     1       3.491   6.019  17.567  0.00  0.00    +0.000 NA
ENDROOT
BRANCH  11  17
ATOM     17  C   UNL     1      -0.818  13.043  20.305  0.00  0.00    +0.000 C 
ATOM     18  O   UNL     1      -1.587  12.611  19.449  0.00  0.00    +0.000 OA
ATOM     19  N   UNL     1      -1.187  13.867  21.355  0.00  0.00    +0.000 N 
ATOM     20  H   UNL     1      -0.456  14.384  21.827  0.00  0.00    +0.000 HD
BRANCH  19  21
ATOM     21  C   UNL     1      -2.521  14.199  21.690  0.00  0.00    +0.000 A 
ATOM     22  C   UNL     1      -3.170  15.321  21.170  0.00  0.00    +0.000 A 
ATOM     23  C   UNL     1      -4.475  15.630  21.545  0.00  0.00    +0.000 A 
ATOM     24  C   UNL     1      -5.157  14.815  22.444  0.00  0.00    +0.000 A 
ATOM     25  C   UNL     1      -4.540  13.672  22.964  0.00  0.00    +0.000 A 
ATOM     26  C   UNL     1      -3.223  13.361  22.566  0.00  0.00    +0.000 A 
BRANCH  25  27
ATOM     27  C   UNL     1      -5.211  12.767  23.948  0.00  0.00    +0.000 C 
ATOM     28  C   UNL     1      -6.714  12.749  24.099  0.00  0.00    +0.000 C 
ATOM     29  O   UNL     1      -4.516  12.036  24.655  0.00  0.00    +0.000 OA
ENDBRANCH  25  27
ENDBRANCH  19  21
ENDBRANCH  11  17
BRANCH   1  30
ATOM     30  C   UNL     1       4.568   3.845  17.331  0.00  0.00    +0.000 C 
BRANCH  30  32
ATOM     31  C   UNL     1       6.135   4.325  15.411  0.00  0.00    +0.000 C 
ATOM     32  C   UNL     1       5.904   4.465  16.908  0.00  0.00    +0.000 C 
ENDBRANCH  30  32
ENDBRANCH   1  30
TORSDOF 5
ENDMDL
