MODEL 1
REMARK VINA RESULT:      -7.1      0.000      0.000
REMARK  Name = 
REMARK  11 active torsions:
REMARK  status: ('A' for Active; 'I' for Inactive)
REMARK    1  A    between atoms: C_1  and  C_2
REMARK    2  A    between atoms: C_2  and  O_3
REMARK    3  A    between atoms: O_3  and  C_4
REMARK    4  A    between atoms: C_4  and  C_5
REMARK    5  A    between atoms: C_5  and  C_6
REMARK    6  A    between atoms: C_6  and  N_7
REMARK    7  A    between atoms: C_8  and  S_9
REMARK    8  A    between atoms: N_10  and  C_11
REMARK    9  A    between atoms: N_20  and  C_21
REMARK   10  A    between atoms: C_21  and  C_22
REMARK   11  A    between atoms: C_26  and  C_27
REMARK                            x       y       z     vdW  Elec       q    Type
REMARK                         _______ _______ _______ _____ _____    ______ ____
ROOT
ATOM      1  C   UNL     1       2.166   7.213  19.233  0.00  0.00    +0.000 A 
ATOM      2  C   UNL     1       2.372   7.992  18.094  0.00  0.00    +0.000 A 
ATOM      3  C   UNL     1       1.993   9.343  18.076  0.00  0.00    +0.000 A 
ATOM      4  C   UNL     1       1.391   9.957  19.169  0.00  0.00    +0.000 A 
ATOM      5  N   UNL     1       0.998  11.242  19.078  0.00  0.00    +0.000 NA
ATOM      6  C   UNL     1       0.389  11.836  20.129  0.00  0.00    +0.000 A 
ATOM      7  N   UNL     1      -0.052  13.141  20.013  0.00  0.00    +0.000 N 
ATOM      8  C   UNL     1       0.009  14.061  21.155  0.00  0.00    +0.000 C 
ATOM      9  C   UNL     1       0.892  15.296  20.852  0.00  0.00    +0.000 C 
ATOM     10  N   UNL     1       0.596  15.986  19.573  0.00  0.00    +0.000 NA
ATOM     11  C   UNL     1       0.700  14.966  18.499  0.00  0.00    +0.000 C 
ATOM     12  C   UNL     1      -0.211  13.735  18.681  0.00  0.00    +0.000 C 
ATOM     13  C   UNL     1       0.162  11.124  21.304  0.00  0.00    +0.000 A 
ATOM     14  C   UNL     1       0.571   9.798  21.430  0.00  0.00    +0.000 A 
ATOM     15  C   UNL     1       0.278   9.060  22.708  0.00  0.00    +0.000 C 
ATOM     16  C   UNL     1       1.203   9.191  20.332  0.00  0.00    +0.000 A 
ATOM     17  C   UNL     1       1.612   7.844  20.349  0.00  0.00    +0.000 A 
ENDROOT
BRANCH   1  20
ATOM     18  N   UNL     1       4.759   5.777  19.211  0.00  0.00    +0.000 NA
ATOM     19  C   UNL     1       3.616   5.192  19.152  0.00  0.00    +0.000 C 
ATOM     20  N   UNL     1       2.400   5.830  19.197  0.00  0.00    +0.000 N 
ATOM     21  H   UNL     1       1.591   5.232  19.278  0.00  0.00    +0.000 HD
BRANCH  19  22
ATOM     22  S   UNL     1       3.400   3.448  19.045  0.00  0.00    +0.000 S 
ATOM     23  H   UNL     1       2.064   3.423  19.072  0.00  0.00    +0.000 HD
ENDBRANCH  19  22
BRANCH  18  24
ATOM     24  C   UNL     1       6.033   5.087  19.133  0.00  0.00    +0.000 C 
BRANCH  24  25
ATOM     25  C   UNL     1       6.947   5.847  18.168  0.00  0.00    +0.000 C 
BRANCH  25  26
ATOM     26  C   UNL     1       7.442   4.927  17.057  0.00  0.00    +0.000 C 
BRANCH  26  27
ATOM     27  O   UNL     1       7.415   5.642  15.823  0.00  0.00    +0.000 OA
BRANCH  27  29
ATOM     28  C   UNL     1       5.575   4.382  14.993  0.00  0.00    +0.000 C 
ATOM     29  C   UNL     1       7.002   4.823  14.735  0.00  0.00    +0.000 C 
ENDBRANCH  27  29
ENDBRANCH  26  27
ENDBRANCH  25  26
ENDBRANCH  24  25
ENDBRANCH  18  24
ENDBRANCH   1  20
BRANCH  10  30
ATOM     30  C   UNL     1      -0.718  16.645  19.642  0.00  0.00    +0.000 C 
ATOM     31  C   UNL     1      -1.060  17.470  18.407  0.00  0.00    +0.000 C 
ENDBRANCH  10  30
TORSDOF 8
ENDMDL
MODEL 2
REMARK VINA RESULT:      -6.9      3.533      4.762
REMARK  Name = 
REMARK  11 active torsions:
REMARK  status: ('A' for Active; 'I' for Inactive)
REMARK    1  A    between atoms: C_1  and  C_2
REMARK    2  A    between atoms: C_2  and  O_3
REMARK    3  A    between atoms: O_3  and  C_4
REMARK    4  A    between atoms: C_4  and  C_5
REMARK    5  A    between atoms: C_5  and  C_6
REMARK    6  A    between atoms: C_6  and  N_7
REMARK    7  A    between atoms: C_8  and  S_9
REMARK    8  A    between atoms: N_10  and  C_11
REMARK    9  A    between atoms: N_20  and  C_21
REMARK   10  A    between atoms: C_21  and  C_22
REMARK   11  A    between atoms: C_26  and  C_27
REMARK                            x       y       z     vdW  Elec       q    Type
REMARK                         _______ _______ _______ _____ _____    ______ ____
ROOT
ATOM      1  C   UNL     1       1.431   8.360  20.512  0.00  0.00    +0.000 A 
ATOM      2  C   UNL     1       1.378   8.628  21.880  0.00  0.00    +0.000 A 
ATOM      3  C   UNL     1       0.498   9.599  22.383  0.00  0.00    +0.000 A 
ATOM      4  C   UNL     1      -0.338  10.339  21.554  0.00  0.00    +0.000 A 
ATOM      5  N   UNL     1      -1.123  11.297  22.084  0.00  0.00    +0.000 NA
ATOM      6  C   UNL     1      -1.920  12.036  21.279  0.00  0.00    +0.000 A 
ATOM      7  N   UNL     1      -2.688  13.048  21.824  0.00  0.00    +0.000 N 
ATOM      8  C   UNL     1      -4.025  13.345  21.296  0.00  0.00    +0.000 C 
ATOM      9  C   UNL     1      -5.121  13.174  22.376  0.00  0.00    +0.000 C 
ATOM     10  N   UNL     1      -4.849  13.851  23.667  0.00  0.00    +0.000 NA
ATOM     11  C   UNL     1      -3.533  13.357  24.144  0.00  0.00    +0.000 C 
ATOM     12  C   UNL     1      -2.364  13.564  23.159  0.00  0.00    +0.000 C 
ATOM     13  C   UNL     1      -1.930  11.815  19.905  0.00  0.00    +0.000 A 
ATOM     14  C   UNL     1      -1.138  10.821  19.332  0.00  0.00    +0.000 A 
ATOM     15  C   UNL     1      -1.159  10.639  17.839  0.00  0.00    +0.000 C 
ATOM     16  C   UNL     1      -0.314  10.059  20.177  0.00  0.00    +0.000 A 
ATOM     17  C   UNL     1       0.552   9.063  19.687  0.00  0.00    +0.000 A 
ENDROOT
BRANCH   1  20
ATOM     18  N   UNL     1       1.584   5.404  20.677  0.00  0.00    +0.000 NA
ATOM     19  C   UNL     1       2.480   6.138  20.118  0.00  0.00    +0.000 C 
ATOM     20  N   UNL     1       2.416   7.504  19.996  0.00  0.00    +0.000 N 
ATOM     21  H   UNL     1       3.124   7.929  19.415  0.00  0.00    +0.000 HD
BRANCH  19  22
ATOM     22  S   UNL     1       3.943   5.513  19.364  0.00  0.00    +0.000 S 
ATOM     23  H   UNL     1       4.029   4.366  20.045  0.00  0.00    +0.000 HD
ENDBRANCH  19  22
BRANCH  18  24
ATOM     24  C   UNL     1       1.683   3.964  20.820  0.00  0.00    +0.000 C 
BRANCH  24  25
ATOM     25  C   UNL     1       0.504   3.314  20.090  0.00  0.00    +0.000 C 
BRANCH  25  26
ATOM     26  C   UNL     1       0.999   2.417  18.961  0.00  0.00    +0.000 C 
BRANCH  26  27
ATOM     27  O   UNL     1       1.537   3.237  17.926  0.00  0.00    +0.000 OA
BRANCH  27  29
ATOM     28  C   UNL     1       3.411   1.821  18.309  0.00  0.00    +0.000 C 
ATOM     29  C   UNL     1       2.646   2.626  17.276  0.00  0.00    +0.000 C 
ENDBRANCH  27  29
ENDBRANCH  26  27
ENDBRANCH  25  26
ENDBRANCH  24  25
ENDBRANCH  18  24
ENDBRANCH   1  20
BRANCH  10  30
ATOM     30  C   UNL     1      -4.909  15.312  23.498  0.00  0.00    +0.000 C 
ATOM     31  C   UNL     1      -6.229  15.931  23.941  0.00  0.00    +0.000 C 
ENDBRANCH  10  30
TORSDOF 8
ENDMDL
MODEL 3
REMARK VINA RESULT:      -6.8      4.199      9.476
REMARK  Name = 
REMARK  11 active torsions:
REMARK  status: ('A' for Active; 'I' for Inactive)
REMARK    1  A    between atoms: C_1  and  C_2
REMARK    2  A    between atoms: C_2  and  O_3
REMARK    3  A    between atoms: O_3  and  C_4
REMARK    4  A    between atoms: C_4  and  C_5
REMARK    5  A    between atoms: C_5  and  C_6
REMARK    6  A    between atoms: C_6  and  N_7
REMARK    7  A    between atoms: C_8  and  S_9
REMARK    8  A    between atoms: N_10  and  C_11
REMARK    9  A    between atoms: N_20  and  C_21
REMARK   10  A    between atoms: C_21  and  C_22
REMARK   11  A    between atoms: C_26  and  C_27
REMARK                            x       y       z     vdW  Elec       q    Type
REMARK                         _______ _______ _______ _____ _____    ______ ____
ROOT
ATOM      1  C   UNL     1      -0.052  11.149  21.842  0.00  0.00    +0.000 A 
ATOM      2  C   UNL     1      -0.125   9.989  22.612  0.00  0.00    +0.000 A 
ATOM      3  C   UNL     1       0.429   8.787  22.146  0.00  0.00    +0.000 A 
ATOM      4  C   UNL     1       1.054   8.693  20.907  0.00  0.00    +0.000 A 
ATOM      5  N   UNL     1       1.519   7.501  20.485  0.00  0.00    +0.000 NA
ATOM      6  C   UNL     1       2.105   7.399  19.271  0.00  0.00    +0.000 A 
ATOM      7  N   UNL     1       2.539   6.165  18.825  0.00  0.00    +0.000 N 
ATOM      8  C   UNL     1       3.758   6.042  18.015  0.00  0.00    +0.000 C 
ATOM      9  C   UNL     1       4.818   5.149  18.703  0.00  0.00    +0.000 C 
ATOM     10  N   UNL     1       4.322   3.841  19.194  0.00  0.00    +0.000 NA
ATOM     11  C   UNL     1       3.180   4.127  20.101  0.00  0.00    +0.000 C 
ATOM     12  C   UNL     1       2.036   4.945  19.467  0.00  0.00    +0.000 C 
ATOM     13  C   UNL     1       2.226   8.519  18.452  0.00  0.00    +0.000 A 
ATOM     14  C   UNL     1       1.765   9.766  18.870  0.00  0.00    +0.000 A 
ATOM     15  C   UNL     1       1.890  10.941  17.939  0.00  0.00    +0.000 C 
ATOM     16  C   UNL     1       1.158   9.861  20.133  0.00  0.00    +0.000 A 
ATOM     17  C   UNL     1       0.624  11.068  20.623  0.00  0.00    +0.000 A 
ENDROOT
BRANCH   1  20
ATOM     18  N   UNL     1      -2.592  12.247  20.778  0.00  0.00    +0.000 NA
ATOM     19  C   UNL     1      -1.898  12.812  21.702  0.00  0.00    +0.000 C 
ATOM     20  N   UNL     1      -0.739  12.307  22.238  0.00  0.00    +0.000 N 
ATOM     21  H   UNL     1      -0.379  12.791  23.048  0.00  0.00    +0.000 HD
BRANCH  19  22
ATOM     22  S   UNL     1      -2.337  14.328  22.483  0.00  0.00    +0.000 S 
ATOM     23  H   UNL     1      -3.662  14.157  22.491  0.00  0.00    +0.000 HD
ENDBRANCH  19  22
BRANCH  18  24
ATOM     24  C   UNL     1      -3.799  12.811  20.206  0.00  0.00    +0.000 C 
BRANCH  24  25
ATOM     25  C   UNL     1      -4.177  12.004  18.960  0.00  0.00    +0.000 C 
BRANCH  25  26
ATOM     26  C   UNL     1      -2.928  11.511  18.238  0.00  0.00    +0.000 C 
BRANCH  26  27
ATOM     27  O   UNL     1      -3.275  10.377  17.444  0.00  0.00    +0.000 OA
BRANCH  27  29
ATOM     28  C   UNL     1      -2.931  10.463  15.090  0.00  0.00    +0.000 C 
ATOM     29  C   UNL     1      -3.901  10.748  16.221  0.00  0.00    +0.000 C 
ENDBRANCH  27  29
ENDBRANCH  26  27
ENDBRANCH  25  26
ENDBRANCH  24  25
ENDBRANCH  18  24
ENDBRANCH   1  20
BRANCH  10  30
ATOM     30  C   UNL     1       3.975   2.969  18.060  0.00  0.00    +0.000 C 
ATOM     31  C   UNL     1       3.347   1.643  18.472  0.00  0.00    +0.000 C 
ENDBRANCH  10  30
TORSDOF 8
ENDMDL
MODEL 4
REMARK VINA RESULT:      -6.8      0.932      1.433
REMARK  Name = 
REMARK  11 active torsions:
REMARK  status: ('A' for Active; 'I' for Inactive)
REMARK    1  A    between atoms: C_1  and  C_2
REMARK    2  A    between atoms: C_2  and  O_3
REMARK    3  A    between atoms: O_3  and  C_4
REMARK    4  A    between atoms: C_4  and  C_5
REMARK    5  A    between atoms: C_5  and  C_6
REMARK    6  A    between atoms: C_6  and  N_7
REMARK    7  A    between atoms: C_8  and  S_9
REMARK    8  A    between atoms: N_10  and  C_11
REMARK    9  A    between atoms: N_20  and  C_21
REMARK   10  A    between atoms: C_21  and  C_22
REMARK   11  A    between atoms: C_26  and  C_27
REMARK                            x       y       z     vdW  Elec       q    Type
REMARK                         _______ _______ _______ _____ _____    ______ ____
ROOT
ATOM      1  C   UNL     1       1.984   7.060  19.798  0.00  0.00    +0.000 A 
ATOM      2  C   UNL     1       2.228   7.739  18.605  0.00  0.00    +0.000 A 
ATOM      3  C   UNL     1       1.880   9.092  18.470  0.00  0.00    +0.000 A 
ATOM      4  C   UNL     1       1.270   9.804  19.496  0.00  0.00    +0.000 A 
ATOM      5  N   UNL     1       0.906  11.085  19.293  0.00  0.00    +0.000 NA
ATOM      6  C   UNL     1       0.290  11.775  20.280  0.00  0.00    +0.000 A 
ATOM      7  N   UNL     1      -0.121  13.074  20.049  0.00  0.00    +0.000 N 
ATOM      8  C   UNL     1      -0.062  14.083  21.114  0.00  0.00    +0.000 C 
ATOM      9  C   UNL     1       0.853  15.272  20.730  0.00  0.00    +0.000 C 
ATOM     10  N   UNL     1       0.597  15.862  19.394  0.00  0.00    +0.000 NA
ATOM     11  C   UNL     1       0.700  14.755  18.408  0.00  0.00    +0.000 C 
ATOM     12  C   UNL     1      -0.241  13.561  18.670  0.00  0.00    +0.000 C 
ATOM     13  C   UNL     1       0.025  11.166  21.504  0.00  0.00    +0.000 A 
ATOM     14  C   UNL     1       0.403   9.846  21.745  0.00  0.00    +0.000 A 
ATOM     15  C   UNL     1       0.069   9.221  23.072  0.00  0.00    +0.000 C 
ATOM     16  C   UNL     1       1.043   9.139  20.713  0.00  0.00    +0.000 A 
ATOM     17  C   UNL     1       1.423   7.790  20.847  0.00  0.00    +0.000 A 
ENDROOT
BRANCH   1  20
ATOM     18  N   UNL     1       4.420   5.509  19.128  0.00  0.00    +0.000 NA
ATOM     19  C   UNL     1       3.319   4.978  19.528  0.00  0.00    +0.000 C 
ATOM     20  N   UNL     1       2.189   5.674  19.880  0.00  0.00    +0.000 N 
ATOM     21  H   UNL     1       1.450   5.132  20.303  0.00  0.00    +0.000 HD
BRANCH  19  22
ATOM     22  S   UNL     1       3.075   3.247  19.740  0.00  0.00    +0.000 S 
ATOM     23  H   UNL     1       4.152   2.823  19.073  0.00  0.00    +0.000 HD
ENDBRANCH  19  22
BRANCH  18  24
ATOM     24  C   UNL     1       5.594   4.754  18.735  0.00  0.00    +0.000 C 
BRANCH  24  25
ATOM     25  C   UNL     1       5.711   4.784  17.209  0.00  0.00    +0.000 C 
BRANCH  25  26
ATOM     26  C   UNL     1       5.719   6.220  16.697  0.00  0.00    +0.000 C 
BRANCH  26  27
ATOM     27  O   UNL     1       7.071   6.665  16.601  0.00  0.00    +0.000 OA
BRANCH  27  29
ATOM     28  C   UNL     1       8.246   7.393  18.539  0.00  0.00    +0.000 C 
ATOM     29  C   UNL     1       7.321   7.808  17.410  0.00  0.00    +0.000 C 
ENDBRANCH  27  29
ENDBRANCH  26  27
ENDBRANCH  25  26
ENDBRANCH  24  25
ENDBRANCH  18  24
ENDBRANCH   1  20
BRANCH  10  30
ATOM     30  C   UNL     1      -0.704  16.549  19.381  0.00  0.00    +0.000 C 
ATOM     31  C   UNL     1      -0.918  17.441  18.164  0.00  0.00    +0.000 C 
ENDBRANCH  10  30
TORSDOF 8
ENDMDL
MODEL 5
REMARK VINA RESULT:      -6.7      3.491      4.260
REMARK  Name = 
REMARK  11 active torsions:
REMARK  status: ('A' for Active; 'I' for Inactive)
REMARK    1  A    between atoms: C_1  and  C_2
REMARK    2  A    between atoms: C_2  and  O_3
REMARK    3  A    between atoms: O_3  and  C_4
REMARK    4  A    between atoms: C_4  and  C_5
REMARK    5  A    between atoms: C_5  and  C_6
REMARK    6  A    between atoms: C_6  and  N_7
REMARK    7  A    between atoms: C_8  and  S_9
REMARK    8  A    between atoms: N_10  and  C_11
REMARK    9  A    between atoms: N_20  and  C_21
REMARK   10  A    between atoms: C_21  and  C_22
REMARK   11  A    between atoms: C_26  and  C_27
REMARK                            x       y       z     vdW  Elec       q    Type
REMARK                         _______ _______ _______ _____ _____    ______ ____
ROOT
ATOM      1  C   UNL     1       1.388   9.077  19.130  0.00  0.00    +0.000 A 
ATOM      2  C   UNL     1       0.686   9.902  18.251  0.00  0.00    +0.000 A 
ATOM      3  C   UNL     1      -0.274  10.804  18.733  0.00  0.00    +0.000 A 
ATOM      4  C   UNL     1      -0.579  10.906  20.086  0.00  0.00    +0.000 A 
ATOM      5  N   UNL     1      -1.550  11.750  20.488  0.00  0.00    +0.000 NA
ATOM      6  C   UNL     1      -1.866  11.835  21.800  0.00  0.00    +0.000 A 
ATOM      7  N   UNL     1      -2.894  12.669  22.200  0.00  0.00    +0.000 N 
ATOM      8  C   UNL     1      -2.822  13.395  23.474  0.00  0.00    +0.000 C 
ATOM      9  C   UNL     1      -2.882  14.928  23.266  0.00  0.00    +0.000 C 
ATOM     10  N   UNL     1      -3.982  15.406  22.394  0.00  0.00    +0.000 NA
ATOM     11  C   UNL     1      -3.850  14.686  21.101  0.00  0.00    +0.000 C 
ATOM     12  C   UNL     1      -3.865  13.148  21.209  0.00  0.00    +0.000 C 
ATOM     13  C   UNL     1      -1.198  11.051  22.737  0.00  0.00    +0.000 A 
ATOM     14  C   UNL     1      -0.181  10.181  22.350  0.00  0.00    +0.000 A 
ATOM     15  C   UNL     1       0.492   9.332  23.394  0.00  0.00    +0.000 C 
ATOM     16  C   UNL     1       0.141  10.100  20.985  0.00  0.00    +0.000 A 
ATOM     17  C   UNL     1       1.122   9.219  20.493  0.00  0.00    +0.000 A 
ENDROOT
BRANCH   1  20
ATOM     18  N   UNL     1       1.841   6.351  20.204  0.00  0.00    +0.000 NA
ATOM     19  C   UNL     1       2.449   6.826  19.176  0.00  0.00    +0.000 C 
ATOM     20  N   UNL     1       2.232   8.070  18.636  0.00  0.00    +0.000 N 
ATOM     21  H   UNL     1       2.684   8.253  17.752  0.00  0.00    +0.000 HD
BRANCH  19  22
ATOM     22  S   UNL     1       3.651   5.943  18.240  0.00  0.00    +0.000 S 
ATOM     23  H   UNL     1       3.695   4.837  18.990  0.00  0.00    +0.000 HD
ENDBRANCH  19  22
BRANCH  18  24
ATOM     24  C   UNL     1       2.104   5.044  20.776  0.00  0.00    +0.000 C 
BRANCH  24  25
ATOM     25  C   UNL     1       0.986   4.087  20.354  0.00  0.00    +0.000 C 
BRANCH  25  26
ATOM     26  C   UNL     1       1.516   2.664  20.221  0.00  0.00    +0.000 C 
BRANCH  26  27
ATOM     27  O   UNL     1       1.180   2.168  18.927  0.00  0.00    +0.000 OA
BRANCH  27  29
ATOM     28  C   UNL     1       3.441   1.604  18.442  0.00  0.00    +0.000 C 
ATOM     29  C   UNL     1       2.222   2.379  17.981  0.00  0.00    +0.000 C 
ENDBRANCH  27  29
ENDBRANCH  26  27
ENDBRANCH  25  26
ENDBRANCH  24  25
ENDBRANCH  18  24
ENDBRANCH   1  20
BRANCH  10  30
ATOM     30  C   UNL     1      -5.280  15.205  23.056  0.00  0.00    +0.000 C 
ATOM     31  C   UNL     1      -5.618  16.272  24.090  0.00  0.00    +0.000 C 
ENDBRANCH  10  30
TORSDOF 8
ENDMDL
MODEL 6
REMARK VINA RESULT:      -6.7      1.166      1.774
REMARK  Name = 
REMARK  11 active torsions:
REMARK  status: ('A' for Active; 'I' for Inactive)
REMARK    1  A    between atoms: C_1  and  C_2
REMARK    2  A    between atoms: C_2  and  O_3
REMARK    3  A    between atoms: O_3  and  C_4
REMARK    4  A    between atoms: C_4  and  C_5
REMARK    5  A    between atoms: C_5  and  C_6
REMARK    6  A    between atoms: C_6  and  N_7
REMARK    7  A    between atoms: C_8  and  S_9
REMARK    8  A    between atoms: N_10  and  C_11
REMARK    9  A    between atoms: N_20  and  C_21
REMARK   10  A    between atoms: C_21  and  C_22
REMARK   11  A    between atoms: C_26  and  C_27
REMARK                            x       y       z     vdW  Elec       q    Type
REMARK                         _______ _______ _______ _____ _____    ______ ____
ROOT
ATOM      1  C   UNL     1       2.372   7.166  19.010  0.00  0.00    +0.000 A 
ATOM      2  C   UNL     1       2.582   7.994  17.907  0.00  0.00    +0.000 A 
ATOM      3  C   UNL     1       2.156   9.331  17.929  0.00  0.00    +0.000 A 
ATOM      4  C   UNL     1       1.502   9.881  19.026  0.00  0.00    +0.000 A 
ATOM      5  N   UNL     1       1.065  11.155  18.970  0.00  0.00    +0.000 NA
ATOM      6  C   UNL     1       0.406  11.686  20.025  0.00  0.00    +0.000 A 
ATOM      7  N   UNL     1      -0.079  12.978  19.944  0.00  0.00    +0.000 N 
ATOM      8  C   UNL     1      -0.083  13.856  21.122  0.00  0.00    +0.000 C 
ATOM      9  C   UNL     1       0.763  15.132  20.891  0.00  0.00    +0.000 C 
ATOM     10  N   UNL     1       0.479  15.860  19.631  0.00  0.00    +0.000 NA
ATOM     11  C   UNL     1       0.650  14.885  18.522  0.00  0.00    +0.000 C 
ATOM     12  C   UNL     1      -0.221  13.617  18.631  0.00  0.00    +0.000 C 
ATOM     13  C   UNL     1       0.171  10.923  21.166  0.00  0.00    +0.000 A 
ATOM     14  C   UNL     1       0.624   9.608  21.254  0.00  0.00    +0.000 A 
ATOM     15  C   UNL     1       0.321   8.812  22.494  0.00  0.00    +0.000 C 
ATOM     16  C   UNL     1       1.308   9.065  20.153  0.00  0.00    +0.000 A 
ATOM     17  C   UNL     1       1.765   7.733  20.132  0.00  0.00    +0.000 A 
ENDROOT
BRANCH   1  20
ATOM     18  N   UNL     1       5.002   5.810  19.192  0.00  0.00    +0.000 NA
ATOM     19  C   UNL     1       3.892   5.196  18.982  0.00  0.00    +0.000 C 
ATOM     20  N   UNL     1       2.656   5.794  18.930  0.00  0.00    +0.000 N 
ATOM     21  H   UNL     1       1.864   5.170  18.894  0.00  0.00    +0.000 HD
BRANCH  19  22
ATOM     22  S   UNL     1       3.749   3.454  18.765  0.00  0.00    +0.000 S 
ATOM     23  H   UNL     1       4.206   3.384  17.511  0.00  0.00    +0.000 HD
ENDBRANCH  19  22
BRANCH  18  24
ATOM     24  C   UNL     1       6.299   5.162  19.215  0.00  0.00    +0.000 C 
BRANCH  24  25
ATOM     25  C   UNL     1       7.303   6.042  18.464  0.00  0.00    +0.000 C 
BRANCH  25  26
ATOM     26  C   UNL     1       6.633   6.737  17.284  0.00  0.00    +0.000 C 
BRANCH  26  27
ATOM     27  O   UNL     1       7.072   8.093  17.240  0.00  0.00    +0.000 OA
BRANCH  27  29
ATOM     28  C   UNL     1       8.473   9.812  18.106  0.00  0.00    +0.000 C 
ATOM     29  C   UNL     1       8.208   8.319  18.067  0.00  0.00    +0.000 C 
ENDBRANCH  27  29
ENDBRANCH  26  27
ENDBRANCH  25  26
ENDBRANCH  24  25
ENDBRANCH  18  24
ENDBRANCH   1  20
BRANCH  10  30
ATOM     30  C   UNL     1      -0.859  16.469  19.684  0.00  0.00    +0.000 C 
ATOM     31  C   UNL     1      -0.957  17.662  20.628  0.00  0.00    +0.000 C 
ENDBRANCH  10  30
TORSDOF 8
ENDMDL
MODEL 7
REMARK VINA RESULT:      -6.6      3.970      5.072
REMARK  Name = 
REMARK  11 active torsions:
REMARK  status: ('A' for Active; 'I' for Inactive)
REMARK    1  A    between atoms: C_1  and  C_2
REMARK    2  A    between atoms: C_2  and  O_3
REMARK    3  A    between atoms: O_3  and  C_4
REMARK    4  A    between atoms: C_4  and  C_5
REMARK    5  A    between atoms: C_5  and  C_6
REMARK    6  A    between atoms: C_6  and  N_7
REMARK    7  A    between atoms: C_8  and  S_9
REMARK    8  A    between atoms: N_10  and  C_11
REMARK    9  A    between atoms: N_20  and  C_21
REMARK   10  A    between atoms: C_21  and  C_22
REMARK   11  A    between atoms: C_26  and  C_27
REMARK                            x       y       z     vdW  Elec       q    Type
REMARK                         _______ _______ _______ _____ _____    ______ ____
ROOT
ATOM      1  C   UNL     1       1.058   9.415  18.494  0.00  0.00    +0.000 A 
ATOM      2  C   UNL     1       1.208  10.055  19.724  0.00  0.00    +0.000 A 
ATOM      3  C   UNL     1       0.173  10.845  20.247  0.00  0.00    +0.000 A 
ATOM      4  C   UNL     1      -1.026  11.038  19.569  0.00  0.00    +0.000 A 
ATOM      5  N   UNL     1      -1.963  11.852  20.091  0.00  0.00    +0.000 NA
ATOM      6  C   UNL     1      -3.120  12.062  19.423  0.00  0.00    +0.000 A 
ATOM      7  N   UNL     1      -4.059  12.934  19.944  0.00  0.00    +0.000 N 
ATOM      8  C   UNL     1      -5.495  12.673  19.789  0.00  0.00    +0.000 C 
ATOM      9  C   UNL     1      -6.205  12.534  21.158  0.00  0.00    +0.000 C 
ATOM     10  N   UNL     1      -5.919  13.615  22.132  0.00  0.00    +0.000 NA
ATOM     11  C   UNL     1      -4.442  13.675  22.288  0.00  0.00    +0.000 C 
ATOM     12  C   UNL     1      -3.659  13.895  20.977  0.00  0.00    +0.000 C 
ATOM     13  C   UNL     1      -3.345  11.445  18.195  0.00  0.00    +0.000 A 
ATOM     14  C   UNL     1      -2.398  10.588  17.639  0.00  0.00    +0.000 A 
ATOM     15  C   UNL     1      -2.672   9.968  16.296  0.00  0.00    +0.000 C 
ATOM     16  C   UNL     1      -1.199  10.376  18.341  0.00  0.00    +0.000 A 
ATOM     17  C   UNL     1      -0.166   9.563  17.839  0.00  0.00    +0.000 A 
ENDROOT
BRANCH   1  20
ATOM     18  N   UNL     1       2.334   6.864  19.301  0.00  0.00    +0.000 NA
ATOM     19  C   UNL     1       2.740   7.589  18.319  0.00  0.00    +0.000 C 
ATOM     20  N   UNL     1       2.146   8.755  17.902  0.00  0.00    +0.000 N 
ATOM     21  H   UNL     1       2.492   9.142  17.036  0.00  0.00    +0.000 HD
BRANCH  19  22
ATOM     22  S   UNL     1       4.118   7.192  17.297  0.00  0.00    +0.000 S 
ATOM     23  H   UNL     1       3.710   5.984  16.895  0.00  0.00    +0.000 HD
ENDBRANCH  19  22
BRANCH  18  24
ATOM     24  C   UNL     1       2.993   5.649  19.743  0.00  0.00    +0.000 C 
BRANCH  24  25
ATOM     25  C   UNL     1       1.997   4.816  20.554  0.00  0.00    +0.000 C 
BRANCH  25  26
ATOM     26  C   UNL     1       1.152   3.941  19.635  0.00  0.00    +0.000 C 
BRANCH  26  27
ATOM     27  O   UNL     1       1.469   2.573  19.886  0.00  0.00    +0.000 OA
BRANCH  27  29
ATOM     28  C   UNL     1       2.456   2.261  17.743  0.00  0.00    +0.000 C 
ATOM     29  C   UNL     1       2.672   2.172  19.241  0.00  0.00    +0.000 C 
ENDBRANCH  27  29
ENDBRANCH  26  27
ENDBRANCH  25  26
ENDBRANCH  24  25
ENDBRANCH  18  24
ENDBRANCH   1  20
BRANCH  10  30
ATOM     30  C   UNL     1      -6.519  14.880  21.680  0.00  0.00    +0.000 C 
ATOM     31  C   UNL     1      -6.293  16.046  22.635  0.00  0.00    +0.000 C 
ENDBRANCH  10  30
TORSDOF 8
ENDMDL
MODEL 8
REMARK VINA RESULT:      -6.6      5.046     10.403
REMARK  Name = 
REMARK  11 active torsions:
REMARK  status: ('A' for Active; 'I' for Inactive)
REMARK    1  A    between atoms: C_1  and  C_2
REMARK    2  A    between atoms: C_2  and  O_3
REMARK    3  A    between atoms: O_3  and  C_4
REMARK    4  A    between atoms: C_4  and  C_5
REMARK    5  A    between atoms: C_5  and  C_6
REMARK    6  A    between atoms: C_6  and  N_7
REMARK    7  A    between atoms: C_8  and  S_9
REMARK    8  A    between atoms: N_10  and  C_11
REMARK    9  A    between atoms: N_20  and  C_21
REMARK   10  A    between atoms: C_21  and  C_22
REMARK   11  A    between atoms: C_26  and  C_27
REMARK                            x       y       z     vdW  Elec       q    Type
REMARK                         _______ _______ _______ _____ _____    ______ ____
ROOT
ATOM      1  C   UNL     1      -0.582  12.272  20.120  0.00  0.00    +0.000 A 
ATOM      2  C   UNL     1      -0.087  11.984  18.848  0.00  0.00    +0.000 A 
ATOM      3  C   UNL     1       0.564  10.767  18.594  0.00  0.00    +0.000 A 
ATOM      4  C   UNL     1       0.757   9.811  19.586  0.00  0.00    +0.000 A 
ATOM      5  N   UNL     1       1.438   8.684  19.300  0.00  0.00    +0.000 NA
ATOM      6  C   UNL     1       1.650   7.763  20.267  0.00  0.00    +0.000 A 
ATOM      7  N   UNL     1       2.388   6.630  19.979  0.00  0.00    +0.000 N 
ATOM      8  C   UNL     1       2.054   5.338  20.591  0.00  0.00    +0.000 C 
ATOM      9  C   UNL     1       1.703   4.271  19.525  0.00  0.00    +0.000 C 
ATOM     10  N   UNL     1       2.675   4.145  18.412  0.00  0.00    +0.000 NA
ATOM     11  C   UNL     1       2.813   5.495  17.806  0.00  0.00    +0.000 C 
ATOM     12  C   UNL     1       3.242   6.606  18.786  0.00  0.00    +0.000 C 
ATOM     13  C   UNL     1       1.174   7.976  21.558  0.00  0.00    +0.000 A 
ATOM     14  C   UNL     1       0.455   9.127  21.877  0.00  0.00    +0.000 A 
ATOM     15  C   UNL     1      -0.014   9.328  23.292  0.00  0.00    +0.000 C 
ATOM     16  C   UNL     1       0.239  10.077  20.864  0.00  0.00    +0.000 A 
ATOM     17  C   UNL     1      -0.437  11.289  21.101  0.00  0.00    +0.000 A 
ENDROOT
BRANCH   1  20
ATOM     18  N   UNL     1      -3.392  13.067  20.629  0.00  0.00    +0.000 NA
ATOM     19  C   UNL     1      -2.406  13.892  20.607  0.00  0.00    +0.000 C 
ATOM     20  N   UNL     1      -1.092  13.546  20.410  0.00  0.00    +0.000 N 
ATOM     21  H   UNL     1      -0.415  14.281  20.554  0.00  0.00    +0.000 HD
BRANCH  19  22
ATOM     22  S   UNL     1      -2.561  15.627  20.871  0.00  0.00    +0.000 S 
ATOM     23  H   UNL     1      -3.345  15.582  21.952  0.00  0.00    +0.000 HD
ENDBRANCH  19  22
BRANCH  18  24
ATOM     24  C   UNL     1      -4.777  13.456  20.811  0.00  0.00    +0.000 C 
BRANCH  24  25
ATOM     25  C   UNL     1      -5.581  13.003  19.589  0.00  0.00    +0.000 C 
BRANCH  25  26
ATOM     26  C   UNL     1      -6.305  11.692  19.876  0.00  0.00    +0.000 C 
BRANCH  26  27
ATOM     27  O   UNL     1      -6.440  11.543  21.288  0.00  0.00    +0.000 OA
BRANCH  27  29
ATOM     28  C   UNL     1      -7.917  12.172  23.046  0.00  0.00    +0.000 C 
ATOM     29  C   UNL     1      -7.802  11.489  21.697  0.00  0.00    +0.000 C 
ENDBRANCH  27  29
ENDBRANCH  26  27
ENDBRANCH  25  26
ENDBRANCH  24  25
ENDBRANCH  18  24
ENDBRANCH   1  20
BRANCH  10  30
ATOM     30  C   UNL     1       3.942   3.583  18.903  0.00  0.00    +0.000 C 
ATOM     31  C   UNL     1       3.796   2.218  19.566  0.00  0.00    +0.000 C 
ENDBRANCH  10  30
TORSDOF 8
ENDMDL
MODEL 9
REMARK VINA RESULT:      -6.6      4.044      9.386
REMARK  Name = 
REMARK  11 active torsions:
REMARK  status: ('A' for Active; 'I' for Inactive)
REMARK    1  A    between atoms: C_1  and  C_2
REMARK    2  A    between atoms: C_2  and  O_3
REMARK    3  A    between atoms: O_3  and  C_4
REMARK    4  A    between atoms: C_4  and  C_5
REMARK    5  A    between atoms: C_5  and  C_6
REMARK    6  A    between atoms: C_6  and  N_7
REMARK    7  A    between atoms: C_8  and  S_9
REMARK    8  A    between atoms: N_10  and  C_11
REMARK    9  A    between atoms: N_20  and  C_21
REMARK   10  A    between atoms: C_21  and  C_22
REMARK   11  A    between atoms: C_26  and  C_27
REMARK                            x       y       z     vdW  Elec       q    Type
REMARK                         _______ _______ _______ _____ _____    ______ ____
ROOT
ATOM      1  C   UNL     1      -0.083  10.494  21.954  0.00  0.00    +0.000 A 
ATOM      2  C   UNL     1       0.084   9.231  22.523  0.00  0.00    +0.000 A 
ATOM      3  C   UNL     1       0.785   8.227  21.838  0.00  0.00    +0.000 A 
ATOM      4  C   UNL     1       1.325   8.434  20.574  0.00  0.00    +0.000 A 
ATOM      5  N   UNL     1       1.940   7.417  19.939  0.00  0.00    +0.000 NA
ATOM      6  C   UNL     1       2.446   7.606  18.699  0.00  0.00    +0.000 A 
ATOM      7  N   UNL     1       3.035   6.546  18.035  0.00  0.00    +0.000 N 
ATOM      8  C   UNL     1       4.196   6.758  17.161  0.00  0.00    +0.000 C 
ATOM      9  C   UNL     1       5.431   5.958  17.641  0.00  0.00    +0.000 C 
ATOM     10  N   UNL     1       5.184   4.525  17.931  0.00  0.00    +0.000 NA
ATOM     11  C   UNL     1       4.080   4.470  18.923  0.00  0.00    +0.000 C 
ATOM     12  C   UNL     1       2.779   5.175  18.488  0.00  0.00    +0.000 C 
ATOM     13  C   UNL     1       2.329   8.844  18.072  0.00  0.00    +0.000 A 
ATOM     14  C   UNL     1       1.709   9.916  18.713  0.00  0.00    +0.000 A 
ATOM     15  C   UNL     1       1.580  11.226  17.985  0.00  0.00    +0.000 C 
ATOM     16  C   UNL     1       1.188   9.709  20.001  0.00  0.00    +0.000 A 
ATOM     17  C   UNL     1       0.508  10.718  20.709  0.00  0.00    +0.000 A 
ENDROOT
BRANCH   1  20
ATOM     18  N   UNL     1      -2.145  12.224  20.712  0.00  0.00    +0.000 NA
ATOM     19  C   UNL     1      -1.837  12.259  21.960  0.00  0.00    +0.000 C 
ATOM     20  N   UNL     1      -0.913  11.444  22.568  0.00  0.00    +0.000 N 
ATOM     21  H   UNL     1      -0.875  11.493  23.575  0.00  0.00    +0.000 HD
BRANCH  19  22
ATOM     22  S   UNL     1      -2.583  13.338  23.135  0.00  0.00    +0.000 S 
ATOM     23  H   UNL     1      -3.627  12.570  23.458  0.00  0.00    +0.000 HD
ENDBRANCH  19  22
BRANCH  18  24
ATOM     24  C   UNL     1      -3.105  13.112  20.084  0.00  0.00    +0.000 C 
BRANCH  24  25
ATOM     25  C   UNL     1      -4.450  12.389  19.979  0.00  0.00    +0.000 C 
BRANCH  25  26
ATOM     26  C   UNL     1      -4.741  11.999  18.534  0.00  0.00    +0.000 C 
BRANCH  26  27
ATOM     27  O   UNL     1      -3.509  11.680  17.889  0.00  0.00    +0.000 OA
BRANCH  27  29
ATOM     28  C   UNL     1      -1.840   9.999  17.656  0.00  0.00    +0.000 C 
ATOM     29  C   UNL     1      -3.329  10.277  17.735  0.00  0.00    +0.000 C 
ENDBRANCH  27  29
ENDBRANCH  26  27
ENDBRANCH  25  26
ENDBRANCH  24  25
ENDBRANCH  18  24
ENDBRANCH   1  20
BRANCH  10  30
ATOM     30  C   UNL     1       4.898   3.795  16.685  0.00  0.00    +0.000 C 
ATOM     31  C   UNL     1       6.005   3.897  15.642  0.00  0.00    +0.000 C 
ENDBRANCH  10  30
TORSDOF 8
ENDMDL
