MODEL 1
REMARK VINA RESULT:      -6.4      0.000      0.000
REMARK  Name = 
REMARK  11 active torsions:
REMARK  status: ('A' for Active; 'I' for Inactive)
REMARK    1  A    between atoms: C_1  and  C_2
REMARK    2  A    between atoms: C_2  and  C_3
REMARK    3  A    between atoms: C_3  and  C_4
REMARK    4  A    between atoms: C_3  and  N_5
REMARK    5  A    between atoms: N_5  and  C_6
REMARK    6  A    between atoms: C_6  and  C_7
REMARK    7  A    between atoms: C_7  and  O_8
REMARK    8  A    between atoms: O_8  and  C_9
REMARK    9  A    between atoms: C_9  and  C_10
REMARK   10  A    between atoms: C_10  and  O_11
REMARK   11  A    between atoms: O_11  and  C_12
REMARK                            x       y       z     vdW  Elec       q    Type
REMARK                         _______ _______ _______ _____ _____    ______ ____
ROOT
ATOM      1  C   UNL     1       6.783   6.130  17.266  0.00  0.00    +0.000 C 
ENDROOT
BRANCH   1   2
ATOM      2  O   UNL     1       6.847   6.090  15.830  0.00  0.00    +0.000 OA
BRANCH   2   3
ATOM      3  C   UNL     1       6.898   4.741  15.381  0.00  0.00    +0.000 C 
BRANCH   3   4
ATOM      4  C   UNL     1       6.967   4.635  13.867  0.00  0.00    +0.000 C 
BRANCH   4   5
ATOM      5  N   UNL     1       6.252   3.441  13.411  0.00  0.00    +0.000 NA
ATOM      6  H   UNL     1       6.723   2.613  13.748  0.00  0.00    +0.000 HD
BRANCH   5   7
ATOM      7  C   UNL     1       6.060   3.351  11.949  0.00  0.00    +0.000 C 
ATOM      8  C   UNL     1       4.551   3.232  11.734  0.00  0.00    +0.000 C 
BRANCH   7  10
ATOM      9  C   UNL     1       6.453   0.918  11.052  0.00  0.00    +0.000 C 
ATOM     10  C   UNL     1       7.019   2.281  11.399  0.00  0.00    +0.000 C 
ENDBRANCH   7  10
ENDBRANCH   5   7
ENDBRANCH   4   5
ENDBRANCH   3   4
ENDBRANCH   2   3
ENDBRANCH   1   2
BRANCH   1  11
ATOM     11  C   UNL     1       7.093   4.758  17.858  0.00  0.00    +0.000 C 
BRANCH  11  12
ATOM     12  O   UNL     1       6.187   4.433  18.906  0.00  0.00    +0.000 OA
BRANCH  12  13
ATOM     13  C   UNL     1       4.881   4.401  18.484  0.00  0.00    +0.000 A 
ATOM     14  C   UNL     1       4.354   3.438  17.615  0.00  0.00    +0.000 A 
ATOM     15  C   UNL     1       3.006   3.479  17.260  0.00  0.00    +0.000 A 
ATOM     16  C   UNL     1       2.193   4.476  17.782  0.00  0.00    +0.000 A 
ATOM     17  F   UNL     1       0.898   4.514  17.442  0.00  0.00    +0.000 F 
ATOM     18  C   UNL     1       2.705   5.438  18.649  0.00  0.00    +0.000 A 
ATOM     19  C   UNL     1       4.053   5.397  19.004  0.00  0.00    +0.000 A 
ENDBRANCH  12  13
ENDBRANCH  11  12
ENDBRANCH   1  11
TORSDOF 9
ENDMDL
MODEL 2
REMARK VINA RESULT:      -6.2      1.840      2.170
REMARK  Name = 
REMARK  11 active torsions:
REMARK  status: ('A' for Active; 'I' for Inactive)
REMARK    1  A    between atoms: C_1  and  C_2
REMARK    2  A    between atoms: C_2  and  C_3
REMARK    3  A    between atoms: C_3  and  C_4
REMARK    4  A    between atoms: C_3  and  N_5
REMARK    5  A    between atoms: N_5  and  C_6
REMARK    6  A    between atoms: C_6  and  C_7
REMARK    7  A    between atoms: C_7  and  O_8
REMARK    8  A    between atoms: O_8  and  C_9
REMARK    9  A    between atoms: C_9  and  C_10
REMARK   10  A    between atoms: C_10  and  O_11
REMARK   11  A    between atoms: O_11  and  C_12
REMARK                            x       y       z     vdW  Elec       q    Type
REMARK                         _______ _______ _______ _____ _____    ______ ____
ROOT
ATOM      1  C   UNL     1       5.413   4.786  17.610  0.00  0.00    +0.000 C 
ENDROOT
BRANCH   1   2
ATOM      2  O   UNL     1       5.255   4.421  16.229  0.00  0.00    +0.000 OA
BRANCH   2   3
ATOM      3  C   UNL     1       6.527   4.169  15.643  0.00  0.00    +0.000 C 
BRANCH   3   4
ATOM      4  C   UNL     1       6.524   4.378  14.138  0.00  0.00    +0.000 C 
BRANCH   4   5
ATOM      5  N   UNL     1       5.991   3.192  13.464  0.00  0.00    +0.000 NA
ATOM      6  H   UNL     1       6.502   2.373  13.759  0.00  0.00    +0.000 HD
BRANCH   5   7
ATOM      7  C   UNL     1       5.973   3.270  11.989  0.00  0.00    +0.000 C 
ATOM      8  C   UNL     1       4.497   3.313  11.592  0.00  0.00    +0.000 C 
BRANCH   7  10
ATOM      9  C   UNL     1       6.297   0.844  11.046  0.00  0.00    +0.000 C 
ATOM     10  C   UNL     1       6.904   2.178  11.434  0.00  0.00    +0.000 C 
ENDBRANCH   7  10
ENDBRANCH   5   7
ENDBRANCH   4   5
ENDBRANCH   3   4
ENDBRANCH   2   3
ENDBRANCH   1   2
BRANCH   1  11
ATOM     11  C   UNL     1       4.626   6.054  17.927  0.00  0.00    +0.000 C 
BRANCH  11  12
ATOM     12  O   UNL     1       3.250   5.902  17.598  0.00  0.00    +0.000 OA
BRANCH  12  13
ATOM     13  C   UNL     1       2.586   5.077  18.471  0.00  0.00    +0.000 A 
ATOM     14  C   UNL     1       1.812   3.976  18.086  0.00  0.00    +0.000 A 
ATOM     15  C   UNL     1       1.193   3.184  19.053  0.00  0.00    +0.000 A 
ATOM     16  C   UNL     1       1.358   3.493  20.396  0.00  0.00    +0.000 A 
ATOM     17  F   UNL     1       0.764   2.730  21.324  0.00  0.00    +0.000 F 
ATOM     18  C   UNL     1       2.128   4.583  20.792  0.00  0.00    +0.000 A 
ATOM     19  C   UNL     1       2.747   5.374  19.825  0.00  0.00    +0.000 A 
ENDBRANCH  12  13
ENDBRANCH  11  12
ENDBRANCH   1  11
TORSDOF 9
ENDMDL
MODEL 3
REMARK VINA RESULT:      -6.1      1.784      2.554
REMARK  Name = 
REMARK  11 active torsions:
REMARK  status: ('A' for Active; 'I' for Inactive)
REMARK    1  A    between atoms: C_1  and  C_2
REMARK    2  A    between atoms: C_2  and  C_3
REMARK    3  A    between atoms: C_3  and  C_4
REMARK    4  A    between atoms: C_3  and  N_5
REMARK    5  A    between atoms: N_5  and  C_6
REMARK    6  A    between atoms: C_6  and  C_7
REMARK    7  A    between atoms: C_7  and  O_8
REMARK    8  A    between atoms: O_8  and  C_9
REMARK    9  A    between atoms: C_9  and  C_10
REMARK   10  A    between atoms: C_10  and  O_11
REMARK   11  A    between atoms: O_11  and  C_12
REMARK                            x       y       z     vdW  Elec       q    Type
REMARK                         _______ _______ _______ _____ _____    ______ ____
ROOT
ATOM      1  C   UNL     1       7.121   5.492  18.630  0.00  0.00    +0.000 C 
ENDROOT
BRANCH   1   2
ATOM      2  O   UNL     1       7.140   6.249  17.408  0.00  0.00    +0.000 OA
BRANCH   2   3
ATOM      3  C   UNL     1       5.868   6.848  17.186  0.00  0.00    +0.000 C 
BRANCH   3   4
ATOM      4  C   UNL     1       5.219   6.370  15.898  0.00  0.00    +0.000 C 
BRANCH   4   5
ATOM      5  N   UNL     1       6.227   5.782  15.012  0.00  0.00    +0.000 NA
ATOM      6  H   UNL     1       6.437   6.424  14.261  0.00  0.00    +0.000 HD
BRANCH   5   7
ATOM      7  C   UNL     1       5.873   4.459  14.459  0.00  0.00    +0.000 C 
ATOM      8  C   UNL     1       5.993   3.476  15.623  0.00  0.00    +0.000 C 
BRANCH   7  10
ATOM      9  C   UNL     1       6.118   3.290  12.124  0.00  0.00    +0.000 C 
ATOM     10  C   UNL     1       6.673   4.244  13.163  0.00  0.00    +0.000 C 
ENDBRANCH   7  10
ENDBRANCH   5   7
ENDBRANCH   4   5
ENDBRANCH   3   4
ENDBRANCH   2   3
ENDBRANCH   1   2
BRANCH   1  11
ATOM     11  C   UNL     1       5.687   5.184  19.053  0.00  0.00    +0.000 C 
BRANCH  11  12
ATOM     12  O   UNL     1       5.518   3.799  19.332  0.00  0.00    +0.000 OA
BRANCH  12  13
ATOM     13  C   UNL     1       4.207   3.401  19.247  0.00  0.00    +0.000 A 
ATOM     14  C   UNL     1       3.473   2.864  20.312  0.00  0.00    +0.000 A 
ATOM     15  C   UNL     1       2.137   2.508  20.131  0.00  0.00    +0.000 A 
ATOM     16  C   UNL     1       1.542   2.699  18.891  0.00  0.00    +0.000 A 
ATOM     17  F   UNL     1       0.258   2.358  18.719  0.00  0.00    +0.000 F 
ATOM     18  C   UNL     1       2.260   3.236  17.826  0.00  0.00    +0.000 A 
ATOM     19  C   UNL     1       3.596   3.591  18.007  0.00  0.00    +0.000 A 
ENDBRANCH  12  13
ENDBRANCH  11  12
ENDBRANCH   1  11
TORSDOF 9
ENDMDL
MODEL 4
REMARK VINA RESULT:      -6.1      0.933      1.740
REMARK  Name = 
REMARK  11 active torsions:
REMARK  status: ('A' for Active; 'I' for Inactive)
REMARK    1  A    between atoms: C_1  and  C_2
REMARK    2  A    between atoms: C_2  and  C_3
REMARK    3  A    between atoms: C_3  and  C_4
REMARK    4  A    between atoms: C_3  and  N_5
REMARK    5  A    between atoms: N_5  and  C_6
REMARK    6  A    between atoms: C_6  and  C_7
REMARK    7  A    between atoms: C_7  and  O_8
REMARK    8  A    between atoms: O_8  and  C_9
REMARK    9  A    between atoms: C_9  and  C_10
REMARK   10  A    between atoms: C_10  and  O_11
REMARK   11  A    between atoms: O_11  and  C_12
REMARK                            x       y       z     vdW  Elec       q    Type
REMARK                         _______ _______ _______ _____ _____    ______ ____
ROOT
ATOM      1  C   UNL     1       6.702   5.599  17.296  0.00  0.00    +0.000 C 
ENDROOT
BRANCH   1   2
ATOM      2  O   UNL     1       7.646   4.764  16.605  0.00  0.00    +0.000 OA
BRANCH   2   3
ATOM      3  C   UNL     1       6.991   4.040  15.570  0.00  0.00    +0.000 C 
BRANCH   3   4
ATOM      4  C   UNL     1       6.347   4.953  14.541  0.00  0.00    +0.000 C 
BRANCH   4   5
ATOM      5  N   UNL     1       5.559   4.165  13.589  0.00  0.00    +0.000 NA
ATOM      6  H   UNL     1       4.966   3.519  14.090  0.00  0.00    +0.000 HD
BRANCH   5   7
ATOM      7  C   UNL     1       6.352   3.438  12.577  0.00  0.00    +0.000 C 
ATOM      8  C   UNL     1       7.269   4.482  11.939  0.00  0.00    +0.000 C 
BRANCH   7  10
ATOM      9  C   UNL     1       4.067   3.223  11.309  0.00  0.00    +0.000 C 
ATOM     10  C   UNL     1       5.391   2.604  11.713  0.00  0.00    +0.000 C 
ENDBRANCH   7  10
ENDBRANCH   5   7
ENDBRANCH   4   5
ENDBRANCH   3   4
ENDBRANCH   2   3
ENDBRANCH   1   2
BRANCH   1  11
ATOM     11  C   UNL     1       6.793   5.384  18.804  0.00  0.00    +0.000 C 
BRANCH  11  12
ATOM     12  O   UNL     1       5.995   4.281  19.216  0.00  0.00    +0.000 OA
BRANCH  12  13
ATOM     13  C   UNL     1       4.694   4.383  18.791  0.00  0.00    +0.000 A 
ATOM     14  C   UNL     1       3.802   5.380  19.204  0.00  0.00    +0.000 A 
ATOM     15  C   UNL     1       2.504   5.411  18.697  0.00  0.00    +0.000 A 
ATOM     16  C   UNL     1       2.108   4.451  17.775  0.00  0.00    +0.000 A 
ATOM     17  F   UNL     1       0.861   4.482  17.287  0.00  0.00    +0.000 F 
ATOM     18  C   UNL     1       2.987   3.456  17.353  0.00  0.00    +0.000 A 
ATOM     19  C   UNL     1       4.285   3.426  17.861  0.00  0.00    +0.000 A 
ENDBRANCH  12  13
ENDBRANCH  11  12
ENDBRANCH   1  11
TORSDOF 9
ENDMDL
MODEL 5
REMARK VINA RESULT:      -6.0      1.921      2.446
REMARK  Name = 
REMARK  11 active torsions:
REMARK  status: ('A' for Active; 'I' for Inactive)
REMARK    1  A    between atoms: C_1  and  C_2
REMARK    2  A    between atoms: C_2  and  C_3
REMARK    3  A    between atoms: C_3  and  C_4
REMARK    4  A    between atoms: C_3  and  N_5
REMARK    5  A    between atoms: N_5  and  C_6
REMARK    6  A    between atoms: C_6  and  C_7
REMARK    7  A    between atoms: C_7  and  O_8
REMARK    8  A    between atoms: O_8  and  C_9
REMARK    9  A    between atoms: C_9  and  C_10
REMARK   10  A    between atoms: C_10  and  O_11
REMARK   11  A    between atoms: O_11  and  C_12
REMARK                            x       y       z     vdW  Elec       q    Type
REMARK                         _______ _______ _______ _____ _____    ______ ____
ROOT
ATOM      1  C   UNL     1       5.590   6.127  16.893  0.00  0.00    +0.000 C 
ENDROOT
BRANCH   1   2
ATOM      2  O   UNL     1       6.651   5.162  16.987  0.00  0.00    +0.000 OA
BRANCH   2   3
ATOM      3  C   UNL     1       6.934   4.622  15.701  0.00  0.00    +0.000 C 
BRANCH   3   4
ATOM      4  C   UNL     1       5.760   3.848  15.125  0.00  0.00    +0.000 C 
BRANCH   4   5
ATOM      5  N   UNL     1       5.533   4.237  13.731  0.00  0.00    +0.000 NA
ATOM      6  H   UNL     1       4.564   4.089  13.490  0.00  0.00    +0.000 HD
BRANCH   5   7
ATOM      7  C   UNL     1       6.406   3.563  12.748  0.00  0.00    +0.000 C 
ATOM      8  C   UNL     1       7.271   4.665  12.136  0.00  0.00    +0.000 C 
BRANCH   7  10
ATOM      9  C   UNL     1       4.230   3.234  11.320  0.00  0.00    +0.000 C 
ATOM     10  C   UNL     1       5.530   2.666  11.856  0.00  0.00    +0.000 C 
ENDBRANCH   7  10
ENDBRANCH   5   7
ENDBRANCH   4   5
ENDBRANCH   3   4
ENDBRANCH   2   3
ENDBRANCH   1   2
BRANCH   1  11
ATOM     11  C   UNL     1       4.674   6.043  18.111  0.00  0.00    +0.000 C 
BRANCH  11  12
ATOM     12  O   UNL     1       3.315   5.874  17.723  0.00  0.00    +0.000 OA
BRANCH  12  13
ATOM     13  C   UNL     1       2.618   5.064  18.584  0.00  0.00    +0.000 A 
ATOM     14  C   UNL     1       1.806   3.996  18.183  0.00  0.00    +0.000 A 
ATOM     15  C   UNL     1       1.154   3.216  19.137  0.00  0.00    +0.000 A 
ATOM     16  C   UNL     1       1.323   3.504  20.485  0.00  0.00    +0.000 A 
ATOM     17  F   UNL     1       0.697   2.753  21.402  0.00  0.00    +0.000 F 
ATOM     18  C   UNL     1       2.131   4.561  20.897  0.00  0.00    +0.000 A 
ATOM     19  C   UNL     1       2.783   5.340  19.942  0.00  0.00    +0.000 A 
ENDBRANCH  12  13
ENDBRANCH  11  12
ENDBRANCH   1  11
TORSDOF 9
ENDMDL
MODEL 6
REMARK VINA RESULT:      -6.0      1.350      1.642
REMARK  Name = 
REMARK  11 active torsions:
REMARK  status: ('A' for Active; 'I' for Inactive)
REMARK    1  A    between atoms: C_1  and  C_2
REMARK    2  A    between atoms: C_2  and  C_3
REMARK    3  A    between atoms: C_3  and  C_4
REMARK    4  A    between atoms: C_3  and  N_5
REMARK    5  A    between atoms: N_5  and  C_6
REMARK    6  A    between atoms: C_6  and  C_7
REMARK    7  A    between atoms: C_7  and  O_8
REMARK    8  A    between atoms: O_8  and  C_9
REMARK    9  A    between atoms: C_9  and  C_10
REMARK   10  A    between atoms: C_10  and  O_11
REMARK   11  A    between atoms: O_11  and  C_12
REMARK                            x       y       z     vdW  Elec       q    Type
REMARK                         _______ _______ _______ _____ _____    ______ ____
ROOT
ATOM      1  C   UNL     1       6.695   5.113  17.451  0.00  0.00    +0.000 C 
ENDROOT
BRANCH   1   2
ATOM      2  O   UNL     1       6.463   4.331  16.268  0.00  0.00    +0.000 OA
BRANCH   2   3
ATOM      3  C   UNL     1       6.279   5.186  15.146  0.00  0.00    +0.000 C 
BRANCH   3   4
ATOM      4  C   UNL     1       6.915   4.632  13.882  0.00  0.00    +0.000 C 
BRANCH   4   5
ATOM      5  N   UNL     1       6.226   3.407  13.466  0.00  0.00    +0.000 NA
ATOM      6  H   UNL     1       6.729   2.601  13.807  0.00  0.00    +0.000 HD
BRANCH   5   7
ATOM      7  C   UNL     1       6.005   3.283  12.011  0.00  0.00    +0.000 C 
ATOM      8  C   UNL     1       4.488   3.240  11.823  0.00  0.00    +0.000 C 
BRANCH   7  10
ATOM      9  C   UNL     1       6.223   0.936  10.861  0.00  0.00    +0.000 C 
ATOM     10  C   UNL     1       6.894   2.146  11.479  0.00  0.00    +0.000 C 
ENDBRANCH   7  10
ENDBRANCH   5   7
ENDBRANCH   4   5
ENDBRANCH   3   4
ENDBRANCH   2   3
ENDBRANCH   1   2
BRANCH   1  11
ATOM     11  C   UNL     1       5.805   4.638  18.596  0.00  0.00    +0.000 C 
BRANCH  11  12
ATOM     12  O   UNL     1       4.588   5.373  18.642  0.00  0.00    +0.000 OA
BRANCH  12  13
ATOM     13  C   UNL     1       3.481   4.566  18.573  0.00  0.00    +0.000 A 
ATOM     14  C   UNL     1       2.342   4.847  17.808  0.00  0.00    +0.000 A 
ATOM     15  C   UNL     1       1.275   3.950  17.787  0.00  0.00    +0.000 A 
ATOM     16  C   UNL     1       1.354   2.776  18.524  0.00  0.00    +0.000 A 
ATOM     17  F   UNL     1       0.329   1.915  18.503  0.00  0.00    +0.000 F 
ATOM     18  C   UNL     1       2.483   2.484  19.286  0.00  0.00    +0.000 A 
ATOM     19  C   UNL     1       3.550   3.380  19.307  0.00  0.00    +0.000 A 
ENDBRANCH  12  13
ENDBRANCH  11  12
ENDBRANCH   1  11
TORSDOF 9
ENDMDL
MODEL 7
REMARK VINA RESULT:      -5.9      1.886      2.261
REMARK  Name = 
REMARK  11 active torsions:
REMARK  status: ('A' for Active; 'I' for Inactive)
REMARK    1  A    between atoms: C_1  and  C_2
REMARK    2  A    between atoms: C_2  and  C_3
REMARK    3  A    between atoms: C_3  and  C_4
REMARK    4  A    between atoms: C_3  and  N_5
REMARK    5  A    between atoms: N_5  and  C_6
REMARK    6  A    between atoms: C_6  and  C_7
REMARK    7  A    between atoms: C_7  and  O_8
REMARK    8  A    between atoms: O_8  and  C_9
REMARK    9  A    between atoms: C_9  and  C_10
REMARK   10  A    between atoms: C_10  and  O_11
REMARK   11  A    between atoms: O_11  and  C_12
REMARK                            x       y       z     vdW  Elec       q    Type
REMARK                         _______ _______ _______ _____ _____    ______ ____
ROOT
ATOM      1  C   UNL     1       4.856   5.472  16.444  0.00  0.00    +0.000 C 
ENDROOT
BRANCH   1   2
ATOM      2  O   UNL     1       5.993   6.070  15.800  0.00  0.00    +0.000 OA
BRANCH   2   3
ATOM      3  C   UNL     1       6.617   5.127  14.936  0.00  0.00    +0.000 C 
BRANCH   3   4
ATOM      4  C   UNL     1       5.624   4.152  14.328  0.00  0.00    +0.000 C 
BRANCH   4   5
ATOM      5  N   UNL     1       6.325   3.166  13.502  0.00  0.00    +0.000 NA
ATOM      6  H   UNL     1       7.308   3.167  13.731  0.00  0.00    +0.000 HD
BRANCH   5   7
ATOM      7  C   UNL     1       6.148   3.338  12.045  0.00  0.00    +0.000 C 
ATOM      8  C   UNL     1       4.638   3.320  11.805  0.00  0.00    +0.000 C 
BRANCH   7  10
ATOM      9  C   UNL     1       6.502   0.991  10.928  0.00  0.00    +0.000 C 
ATOM     10  C   UNL     1       7.070   2.340  11.323  0.00  0.00    +0.000 C 
ENDBRANCH   7  10
ENDBRANCH   5   7
ENDBRANCH   4   5
ENDBRANCH   3   4
ENDBRANCH   2   3
ENDBRANCH   1   2
BRANCH   1  11
ATOM     11  C   UNL     1       5.236   4.930  17.819  0.00  0.00    +0.000 C 
BRANCH  11  12
ATOM     12  O   UNL     1       4.630   5.689  18.858  0.00  0.00    +0.000 OA
BRANCH  12  13
ATOM     13  C   UNL     1       3.666   4.983  19.533  0.00  0.00    +0.000 A 
ATOM     14  C   UNL     1       2.502   5.549  20.070  0.00  0.00    +0.000 A 
ATOM     15  C   UNL     1       1.570   4.742  20.722  0.00  0.00    +0.000 A 
ATOM     16  C   UNL     1       1.802   3.377  20.826  0.00  0.00    +0.000 A 
ATOM     17  F   UNL     1       0.905   2.603  21.451  0.00  0.00    +0.000 F 
ATOM     18  C   UNL     1       2.953   2.803  20.293  0.00  0.00    +0.000 A 
ATOM     19  C   UNL     1       3.886   3.610  19.641  0.00  0.00    +0.000 A 
ENDBRANCH  12  13
ENDBRANCH  11  12
ENDBRANCH   1  11
TORSDOF 9
ENDMDL
MODEL 8
REMARK VINA RESULT:      -5.9      1.872      2.643
REMARK  Name = 
REMARK  11 active torsions:
REMARK  status: ('A' for Active; 'I' for Inactive)
REMARK    1  A    between atoms: C_1  and  C_2
REMARK    2  A    between atoms: C_2  and  C_3
REMARK    3  A    between atoms: C_3  and  C_4
REMARK    4  A    between atoms: C_3  and  N_5
REMARK    5  A    between atoms: N_5  and  C_6
REMARK    6  A    between atoms: C_6  and  C_7
REMARK    7  A    between atoms: C_7  and  O_8
REMARK    8  A    between atoms: O_8  and  C_9
REMARK    9  A    between atoms: C_9  and  C_10
REMARK   10  A    between atoms: C_10  and  O_11
REMARK   11  A    between atoms: O_11  and  C_12
REMARK                            x       y       z     vdW  Elec       q    Type
REMARK                         _______ _______ _______ _____ _____    ______ ____
ROOT
ATOM      1  C   UNL     1       5.246   4.211  17.247  0.00  0.00    +0.000 C 
ENDROOT
BRANCH   1   2
ATOM      2  O   UNL     1       6.580   4.158  16.713  0.00  0.00    +0.000 OA
BRANCH   2   3
ATOM      3  C   UNL     1       6.812   5.276  15.865  0.00  0.00    +0.000 C 
BRANCH   3   4
ATOM      4  C   UNL     1       7.104   4.867  14.432  0.00  0.00    +0.000 C 
BRANCH   4   5
ATOM      5  N   UNL     1       6.350   3.659  14.087  0.00  0.00    +0.000 NA
ATOM      6  H   UNL     1       6.791   2.852  14.504  0.00  0.00    +0.000 HD
BRANCH   5   7
ATOM      7  C   UNL     1       6.160   3.437  12.639  0.00  0.00    +0.000 C 
ATOM      8  C   UNL     1       7.183   4.336  11.943  0.00  0.00    +0.000 C 
BRANCH   7  10
ATOM      9  C   UNL     1       4.137   2.911  11.055  0.00  0.00    +0.000 C 
ATOM     10  C   UNL     1       4.660   3.561  12.321  0.00  0.00    +0.000 C 
ENDBRANCH   7  10
ENDBRANCH   5   7
ENDBRANCH   4   5
ENDBRANCH   3   4
ENDBRANCH   2   3
ENDBRANCH   1   2
BRANCH   1  11
ATOM     11  C   UNL     1       4.835   5.653  17.529  0.00  0.00    +0.000 C 
BRANCH  11  12
ATOM     12  O   UNL     1       3.420   5.799  17.510  0.00  0.00    +0.000 OA
BRANCH  12  13
ATOM     13  C   UNL     1       2.806   5.117  18.531  0.00  0.00    +0.000 A 
ATOM     14  C   UNL     1       3.030   5.359  19.892  0.00  0.00    +0.000 A 
ATOM     15  C   UNL     1       2.340   4.625  20.856  0.00  0.00    +0.000 A 
ATOM     16  C   UNL     1       1.425   3.661  20.454  0.00  0.00    +0.000 A 
ATOM     17  F   UNL     1       0.761   2.957  21.381  0.00  0.00    +0.000 F 
ATOM     18  C   UNL     1       1.191   3.413  19.104  0.00  0.00    +0.000 A 
ATOM     19  C   UNL     1       1.881   4.147  18.140  0.00  0.00    +0.000 A 
ENDBRANCH  12  13
ENDBRANCH  11  12
ENDBRANCH   1  11
TORSDOF 9
ENDMDL
MODEL 9
REMARK VINA RESULT:      -5.9      2.092      2.574
REMARK  Name = 
REMARK  11 active torsions:
REMARK  status: ('A' for Active; 'I' for Inactive)
REMARK    1  A    between atoms: C_1  and  C_2
REMARK    2  A    between atoms: C_2  and  C_3
REMARK    3  A    between atoms: C_3  and  C_4
REMARK    4  A    between atoms: C_3  and  N_5
REMARK    5  A    between atoms: N_5  and  C_6
REMARK    6  A    between atoms: C_6  and  C_7
REMARK    7  A    between atoms: C_7  and  O_8
REMARK    8  A    between atoms: O_8  and  C_9
REMARK    9  A    between atoms: C_9  and  C_10
REMARK   10  A    between atoms: C_10  and  O_11
REMARK   11  A    between atoms: O_11  and  C_12
REMARK                            x       y       z     vdW  Elec       q    Type
REMARK                         _______ _______ _______ _____ _____    ______ ____
ROOT
ATOM      1  C   UNL     1       5.500   5.358  16.293  0.00  0.00    +0.000 C 
ENDROOT
BRANCH   1   2
ATOM      2  O   UNL     1       5.099   4.624  15.124  0.00  0.00    +0.000 OA
BRANCH   2   3
ATOM      3  C   UNL     1       6.184   3.840  14.643  0.00  0.00    +0.000 C 
BRANCH   3   4
ATOM      4  C   UNL     1       6.753   4.375  13.339  0.00  0.00    +0.000 C 
BRANCH   4   5
ATOM      5  N   UNL     1       6.836   3.302  12.346  0.00  0.00    +0.000 NA
ATOM      6  H   UNL     1       7.216   3.664  11.484  0.00  0.00    +0.000 HD
BRANCH   5   7
ATOM      7  C   UNL     1       5.563   2.601  12.079  0.00  0.00    +0.000 C 
ATOM      8  C   UNL     1       5.929   1.380  11.236  0.00  0.00    +0.000 C 
BRANCH   7  10
ATOM      9  C   UNL     1       3.417   3.145  10.673  0.00  0.00    +0.000 C 
ATOM     10  C   UNL     1       4.540   3.630  11.569  0.00  0.00    +0.000 C 
ENDBRANCH   7  10
ENDBRANCH   5   7
ENDBRANCH   4   5
ENDBRANCH   3   4
ENDBRANCH   2   3
ENDBRANCH   1   2
BRANCH   1  11
ATOM     11  C   UNL     1       4.750   4.863  17.526  0.00  0.00    +0.000 C 
BRANCH  11  12
ATOM     12  O   UNL     1       3.436   4.433  17.192  0.00  0.00    +0.000 OA
BRANCH  12  13
ATOM     13  C   UNL     1       2.738   3.977  18.282  0.00  0.00    +0.000 A 
ATOM     14  C   UNL     1       1.661   3.083  18.214  0.00  0.00    +0.000 A 
ATOM     15  C   UNL     1       1.029   2.661  19.383  0.00  0.00    +0.000 A 
ATOM     16  C   UNL     1       1.480   3.128  20.611  0.00  0.00    +0.000 A 
ATOM     17  F   UNL     1       0.873   2.720  21.733  0.00  0.00    +0.000 F 
ATOM     18  C   UNL     1       2.552   4.013  20.691  0.00  0.00    +0.000 A 
ATOM     19  C   UNL     1       3.184   4.435  19.522  0.00  0.00    +0.000 A 
ENDBRANCH  12  13
ENDBRANCH  11  12
ENDBRANCH   1  11
TORSDOF 9
ENDMDL
