MODEL 1
REMARK VINA RESULT:      -7.8      0.000      0.000
REMARK  Name = 
REMARK  2 active torsions:
REMARK  status: ('A' for Active; 'I' for Inactive)
REMARK    1  A    between atoms: N_5  and  C_6
REMARK    2  A    between atoms: C_6  and  C_7
REMARK                            x       y       z     vdW  Elec       q    Type
REMARK                         _______ _______ _______ _____ _____    ______ ____
ROOT
ATOM      1  N   UNL     1       0.793   3.408  20.944  0.00  0.00    +0.000 NA
ATOM      2  C   UNL     1       1.616   3.934  20.095  0.00  0.00    +0.000 A 
ATOM      3  C   UNL     1       1.847   5.409  19.907  0.00  0.00    +0.000 A 
ATOM      4  C   UNL     1       2.671   5.831  18.910  0.00  0.00    +0.000 A 
ATOM      5  N   UNL     1       3.372   4.928  18.054  0.00  0.00    +0.000 N 
ATOM      6  C   UNL     1       3.209   3.564  18.295  0.00  0.00    +0.000 A 
ATOM      7  C   UNL     1       2.400   3.051  19.227  0.00  0.00    +0.000 A 
ATOM      8  C   UNL     1       2.387   1.570  19.275  0.00  0.00    +0.000 C 
ATOM      9  C   UNL     1       3.638   1.236  18.466  0.00  0.00    +0.000 C 
ATOM     10  C   UNL     1       3.894   2.447  17.559  0.00  0.00    +0.000 C 
ATOM     11  C   UNL     1       2.863   7.328  18.692  0.00  0.00    +0.000 C 
ATOM     12  C   UNL     1       1.839   8.217  19.400  0.00  0.00    +0.000 C 
ATOM     13  C   UNL     1       1.649   7.767  20.836  0.00  0.00    +0.000 C 
ATOM     14  C   UNL     1       1.149   6.328  20.874  0.00  0.00    +0.000 C 
ATOM     15  H   UNL     1       0.293   4.117  21.481  0.00  0.00    +0.000 HD
ENDROOT
BRANCH   5  16
ATOM     16  C   UNL     1       4.265   5.402  16.967  0.00  0.00    +0.000 C 
BRANCH  16  17
ATOM     17  C   UNL     1       5.577   6.013  17.440  0.00  0.00    +0.000 A 
ATOM     18  C   UNL     1       6.081   7.230  16.950  0.00  0.00    +0.000 A 
ATOM     19  C   UNL     1       7.254   7.778  17.472  0.00  0.00    +0.000 A 
ATOM     20  C   UNL     1       7.942   7.105  18.474  0.00  0.00    +0.000 A 
ATOM     21  F   UNL     1       9.051   7.648  18.995  0.00  0.00    +0.000 F 
ATOM     22  C   UNL     1       7.493   5.880  18.947  0.00  0.00    +0.000 A 
ATOM     23  C   UNL     1       6.317   5.333  18.427  0.00  0.00    +0.000 A 
ENDBRANCH  16  17
ENDBRANCH   5  16
TORSDOF 2
ENDMDL
MODEL 2
REMARK VINA RESULT:      -7.5      0.178      1.044
REMARK  Name = 
REMARK  2 active torsions:
REMARK  status: ('A' for Active; 'I' for Inactive)
REMARK    1  A    between atoms: N_5  and  C_6
REMARK    2  A    between atoms: C_6  and  C_7
REMARK                            x       y       z     vdW  Elec       q    Type
REMARK                         _______ _______ _______ _____ _____    ______ ____
ROOT
ATOM      1  N   UNL     1       0.652   3.492  20.733  0.00  0.00    +0.000 NA
ATOM      2  C   UNL     1       1.537   4.009  19.942  0.00  0.00    +0.000 A 
ATOM      3  C   UNL     1       1.804   5.481  19.779  0.00  0.00    +0.000 A 
ATOM      4  C   UNL     1       2.697   5.894  18.840  0.00  0.00    +0.000 A 
ATOM      5  N   UNL     1       3.437   4.984  18.025  0.00  0.00    +0.000 N 
ATOM      6  C   UNL     1       3.237   3.623  18.247  0.00  0.00    +0.000 A 
ATOM      7  C   UNL     1       2.361   3.118  19.121  0.00  0.00    +0.000 A 
ATOM      8  C   UNL     1       2.320   1.637  19.157  0.00  0.00    +0.000 C 
ATOM      9  C   UNL     1       3.615   1.286  18.429  0.00  0.00    +0.000 C 
ATOM     10  C   UNL     1       3.949   2.498  17.548  0.00  0.00    +0.000 C 
ATOM     11  C   UNL     1       2.928   7.389  18.645  0.00  0.00    +0.000 C 
ATOM     12  C   UNL     1       1.874   8.291  19.292  0.00  0.00    +0.000 C 
ATOM     13  C   UNL     1       1.585   7.837  20.709  0.00  0.00    +0.000 C 
ATOM     14  C   UNL     1       1.060   6.406  20.705  0.00  0.00    +0.000 C 
ATOM     15  H   UNL     1       0.130   4.207  21.241  0.00  0.00    +0.000 HD
ENDROOT
BRANCH   5  16
ATOM     16  C   UNL     1       4.405   5.450  17.002  0.00  0.00    +0.000 C 
BRANCH  16  17
ATOM     17  C   UNL     1       5.666   6.095  17.562  0.00  0.00    +0.000 A 
ATOM     18  C   UNL     1       6.451   5.505  18.567  0.00  0.00    +0.000 A 
ATOM     19  C   UNL     1       7.637   6.108  18.991  0.00  0.00    +0.000 A 
ATOM     20  C   UNL     1       8.037   7.313  18.427  0.00  0.00    +0.000 A 
ATOM     21  F   UNL     1       9.191   7.874  18.814  0.00  0.00    +0.000 F 
ATOM     22  C   UNL     1       7.261   7.941  17.464  0.00  0.00    +0.000 A 
ATOM     23  C   UNL     1       6.075   7.337  17.037  0.00  0.00    +0.000 A 
ENDBRANCH  16  17
ENDBRANCH   5  16
TORSDOF 2
ENDMDL
MODEL 3
REMARK VINA RESULT:      -7.5      2.476      4.787
REMARK  Name = 
REMARK  2 active torsions:
REMARK  status: ('A' for Active; 'I' for Inactive)
REMARK    1  A    between atoms: N_5  and  C_6
REMARK    2  A    between atoms: C_6  and  C_7
REMARK                            x       y       z     vdW  Elec       q    Type
REMARK                         _______ _______ _______ _____ _____    ______ ____
ROOT
ATOM      1  N   UNL     1       5.200   2.324  19.783  0.00  0.00    +0.000 NA
ATOM      2  C   UNL     1       4.638   3.322  19.179  0.00  0.00    +0.000 A 
ATOM      3  C   UNL     1       5.362   4.498  18.583  0.00  0.00    +0.000 A 
ATOM      4  C   UNL     1       4.641   5.527  18.060  0.00  0.00    +0.000 A 
ATOM      5  N   UNL     1       3.214   5.521  18.008  0.00  0.00    +0.000 N 
ATOM      6  C   UNL     1       2.563   4.387  18.491  0.00  0.00    +0.000 A 
ATOM      7  C   UNL     1       3.178   3.341  19.051  0.00  0.00    +0.000 A 
ATOM      8  C   UNL     1       2.264   2.266  19.503  0.00  0.00    +0.000 C 
ATOM      9  C   UNL     1       0.978   2.642  18.770  0.00  0.00    +0.000 C 
ATOM     10  C   UNL     1       1.080   4.145  18.478  0.00  0.00    +0.000 C 
ATOM     11  C   UNL     1       5.379   6.739  17.502  0.00  0.00    +0.000 C 
ATOM     12  C   UNL     1       6.855   6.831  17.897  0.00  0.00    +0.000 C 
ATOM     13  C   UNL     1       7.537   5.489  17.715  0.00  0.00    +0.000 C 
ATOM     14  C   UNL     1       6.866   4.436  18.590  0.00  0.00    +0.000 C 
ATOM     15  H   UNL     1       6.215   2.427  19.826  0.00  0.00    +0.000 HD
ENDROOT
BRANCH   5  16
ATOM     16  C   UNL     1       2.441   6.653  17.439  0.00  0.00    +0.000 C 
BRANCH  16  17
ATOM     17  C   UNL     1       2.003   7.701  18.452  0.00  0.00    +0.000 A 
ATOM     18  C   UNL     1       1.591   8.996  18.092  0.00  0.00    +0.000 A 
ATOM     19  C   UNL     1       1.131   9.892  19.058  0.00  0.00    +0.000 A 
ATOM     20  C   UNL     1       1.095   9.508  20.393  0.00  0.00    +0.000 A 
ATOM     21  F   UNL     1       0.624  10.360  21.314  0.00  0.00    +0.000 F 
ATOM     22  C   UNL     1       1.536   8.252  20.784  0.00  0.00    +0.000 A 
ATOM     23  C   UNL     1       1.994   7.353  19.818  0.00  0.00    +0.000 A 
ENDBRANCH  16  17
ENDBRANCH   5  16
TORSDOF 2
ENDMDL
MODEL 4
REMARK VINA RESULT:      -7.4      2.475      4.943
REMARK  Name = 
REMARK  2 active torsions:
REMARK  status: ('A' for Active; 'I' for Inactive)
REMARK    1  A    between atoms: N_5  and  C_6
REMARK    2  A    between atoms: C_6  and  C_7
REMARK                            x       y       z     vdW  Elec       q    Type
REMARK                         _______ _______ _______ _____ _____    ______ ____
ROOT
ATOM      1  N   UNL     1       5.269   2.464  19.687  0.00  0.00    +0.000 NA
ATOM      2  C   UNL     1       4.689   3.467  19.110  0.00  0.00    +0.000 A 
ATOM      3  C   UNL     1       5.395   4.642  18.491  0.00  0.00    +0.000 A 
ATOM      4  C   UNL     1       4.659   5.677  18.002  0.00  0.00    +0.000 A 
ATOM      5  N   UNL     1       3.231   5.678  18.004  0.00  0.00    +0.000 N 
ATOM      6  C   UNL     1       2.594   4.545  18.507  0.00  0.00    +0.000 A 
ATOM      7  C   UNL     1       3.225   3.493  19.038  0.00  0.00    +0.000 A 
ATOM      8  C   UNL     1       2.324   2.421  19.521  0.00  0.00    +0.000 C 
ATOM      9  C   UNL     1       1.013   2.806  18.840  0.00  0.00    +0.000 C 
ATOM     10  C   UNL     1       1.110   4.310  18.551  0.00  0.00    +0.000 C 
ATOM     11  C   UNL     1       5.381   6.888  17.420  0.00  0.00    +0.000 C 
ATOM     12  C   UNL     1       6.871   6.971  17.758  0.00  0.00    +0.000 C 
ATOM     13  C   UNL     1       7.539   5.627  17.544  0.00  0.00    +0.000 C 
ATOM     14  C   UNL     1       6.898   4.573  18.440  0.00  0.00    +0.000 C 
ATOM     15  H   UNL     1       6.285   2.561  19.691  0.00  0.00    +0.000 HD
ENDROOT
BRANCH   5  16
ATOM     16  C   UNL     1       2.442   6.816  17.470  0.00  0.00    +0.000 C 
BRANCH  16  17
ATOM     17  C   UNL     1       1.945   7.798  18.522  0.00  0.00    +0.000 A 
ATOM     18  C   UNL     1       1.954   7.521  19.900  0.00  0.00    +0.000 A 
ATOM     19  C   UNL     1       1.553   8.487  20.824  0.00  0.00    +0.000 A 
ATOM     20  C   UNL     1       1.122   9.731  20.378  0.00  0.00    +0.000 A 
ATOM     21  F   UNL     1       0.767  10.667  21.268  0.00  0.00    +0.000 F 
ATOM     22  C   UNL     1       1.061  10.018  19.022  0.00  0.00    +0.000 A 
ATOM     23  C   UNL     1       1.465   9.052  18.097  0.00  0.00    +0.000 A 
ENDBRANCH  16  17
ENDBRANCH   5  16
TORSDOF 2
ENDMDL
MODEL 5
REMARK VINA RESULT:      -7.4      2.740      5.182
REMARK  Name = 
REMARK  2 active torsions:
REMARK  status: ('A' for Active; 'I' for Inactive)
REMARK    1  A    between atoms: N_5  and  C_6
REMARK    2  A    between atoms: C_6  and  C_7
REMARK                            x       y       z     vdW  Elec       q    Type
REMARK                         _______ _______ _______ _____ _____    ______ ____
ROOT
ATOM      1  N   UNL     1       3.140   1.779  17.343  0.00  0.00    +0.000 NA
ATOM      2  C   UNL     1       3.207   2.988  17.801  0.00  0.00    +0.000 A 
ATOM      3  C   UNL     1       4.083   4.080  17.250  0.00  0.00    +0.000 A 
ATOM      4  C   UNL     1       4.128   5.281  17.887  0.00  0.00    +0.000 A 
ATOM      5  N   UNL     1       3.337   5.574  19.040  0.00  0.00    +0.000 N 
ATOM      6  C   UNL     1       2.470   4.577  19.488  0.00  0.00    +0.000 A 
ATOM      7  C   UNL     1       2.376   3.357  18.951  0.00  0.00    +0.000 A 
ATOM      8  C   UNL     1       1.394   2.471  19.618  0.00  0.00    +0.000 C 
ATOM      9  C   UNL     1       0.590   3.481  20.434  0.00  0.00    +0.000 C 
ATOM     10  C   UNL     1       1.511   4.691  20.639  0.00  0.00    +0.000 C 
ATOM     11  C   UNL     1       5.055   6.368  17.353  0.00  0.00    +0.000 C 
ATOM     12  C   UNL     1       6.104   5.882  16.351  0.00  0.00    +0.000 C 
ATOM     13  C   UNL     1       5.468   4.976  15.315  0.00  0.00    +0.000 C 
ATOM     14  C   UNL     1       4.846   3.760  15.992  0.00  0.00    +0.000 C 
ATOM     15  H   UNL     1       3.771   1.635  16.554  0.00  0.00    +0.000 HD
ENDROOT
BRANCH   5  16
ATOM     16  C   UNL     1       3.400   6.887  19.728  0.00  0.00    +0.000 C 
BRANCH  16  17
ATOM     17  C   UNL     1       2.290   7.859  19.350  0.00  0.00    +0.000 A 
ATOM     18  C   UNL     1       1.412   8.428  20.289  0.00  0.00    +0.000 A 
ATOM     19  C   UNL     1       0.460   9.369  19.895  0.00  0.00    +0.000 A 
ATOM     20  C   UNL     1       0.365   9.736  18.558  0.00  0.00    +0.000 A 
ATOM     21  F   UNL     1      -0.530  10.662  18.187  0.00  0.00    +0.000 F 
ATOM     22  C   UNL     1       1.188   9.159  17.602  0.00  0.00    +0.000 A 
ATOM     23  C   UNL     1       2.144   8.219  17.996  0.00  0.00    +0.000 A 
ENDBRANCH  16  17
ENDBRANCH   5  16
TORSDOF 2
ENDMDL
MODEL 6
REMARK VINA RESULT:      -7.3      2.782      5.202
REMARK  Name = 
REMARK  2 active torsions:
REMARK  status: ('A' for Active; 'I' for Inactive)
REMARK    1  A    between atoms: N_5  and  C_6
REMARK    2  A    between atoms: C_6  and  C_7
REMARK                            x       y       z     vdW  Elec       q    Type
REMARK                         _______ _______ _______ _____ _____    ______ ____
ROOT
ATOM      1  N   UNL     1       3.210   2.013  17.239  0.00  0.00    +0.000 NA
ATOM      2  C   UNL     1       3.204   3.204  17.745  0.00  0.00    +0.000 A 
ATOM      3  C   UNL     1       4.054   4.353  17.277  0.00  0.00    +0.000 A 
ATOM      4  C   UNL     1       4.020   5.528  17.961  0.00  0.00    +0.000 A 
ATOM      5  N   UNL     1       3.169   5.740  19.089  0.00  0.00    +0.000 N 
ATOM      6  C   UNL     1       2.328   4.692  19.458  0.00  0.00    +0.000 A 
ATOM      7  C   UNL     1       2.310   3.491  18.871  0.00  0.00    +0.000 A 
ATOM      8  C   UNL     1       1.339   2.539  19.459  0.00  0.00    +0.000 C 
ATOM      9  C   UNL     1       0.458   3.480  20.276  0.00  0.00    +0.000 C 
ATOM     10  C   UNL     1       1.315   4.718  20.569  0.00  0.00    +0.000 C 
ATOM     11  C   UNL     1       4.921   6.673  17.512  0.00  0.00    +0.000 C 
ATOM     12  C   UNL     1       6.032   6.273  16.539  0.00  0.00    +0.000 C 
ATOM     13  C   UNL     1       5.481   5.384  15.442  0.00  0.00    +0.000 C 
ATOM     14  C   UNL     1       4.884   4.117  16.043  0.00  0.00    +0.000 C 
ATOM     15  H   UNL     1       3.880   1.927  16.473  0.00  0.00    +0.000 HD
ENDROOT
BRANCH   5  16
ATOM     16  C   UNL     1       3.145   7.026  19.828  0.00  0.00    +0.000 C 
BRANCH  16  17
ATOM     17  C   UNL     1       2.122   8.035  19.323  0.00  0.00    +0.000 A 
ATOM     18  C   UNL     1       1.948   8.340  17.962  0.00  0.00    +0.000 A 
ATOM     19  C   UNL     1       0.945   9.219  17.551  0.00  0.00    +0.000 A 
ATOM     20  C   UNL     1       0.120   9.814  18.498  0.00  0.00    +0.000 A 
ATOM     21  F   UNL     1      -0.862  10.634  18.098  0.00  0.00    +0.000 F 
ATOM     22  C   UNL     1       0.296   9.567  19.851  0.00  0.00    +0.000 A 
ATOM     23  C   UNL     1       1.298   8.684  20.264  0.00  0.00    +0.000 A 
ENDBRANCH  16  17
ENDBRANCH   5  16
TORSDOF 2
ENDMDL
MODEL 7
REMARK VINA RESULT:      -6.7      2.551      4.991
REMARK  Name = 
REMARK  2 active torsions:
REMARK  status: ('A' for Active; 'I' for Inactive)
REMARK    1  A    between atoms: N_5  and  C_6
REMARK    2  A    between atoms: C_6  and  C_7
REMARK                            x       y       z     vdW  Elec       q    Type
REMARK                         _______ _______ _______ _____ _____    ______ ____
ROOT
ATOM      1  N   UNL     1       5.633   2.763  19.699  0.00  0.00    +0.000 NA
ATOM      2  C   UNL     1       4.793   3.680  19.340  0.00  0.00    +0.000 A 
ATOM      3  C   UNL     1       3.330   3.704  19.687  0.00  0.00    +0.000 A 
ATOM      4  C   UNL     1       2.538   4.678  19.162  0.00  0.00    +0.000 A 
ATOM      5  N   UNL     1       3.046   5.718  18.325  0.00  0.00    +0.000 N 
ATOM      6  C   UNL     1       4.419   5.727  18.081  0.00  0.00    +0.000 A 
ATOM      7  C   UNL     1       5.273   4.799  18.523  0.00  0.00    +0.000 A 
ATOM      8  C   UNL     1       6.679   5.019  18.113  0.00  0.00    +0.000 C 
ATOM      9  C   UNL     1       6.631   6.476  17.658  0.00  0.00    +0.000 C 
ATOM     10  C   UNL     1       5.169   6.755  17.283  0.00  0.00    +0.000 C 
ATOM     11  C   UNL     1       1.047   4.670  19.478  0.00  0.00    +0.000 C 
ATOM     12  C   UNL     1       0.524   3.363  20.079  0.00  0.00    +0.000 C 
ATOM     13  C   UNL     1       1.446   2.882  21.183  0.00  0.00    +0.000 C 
ATOM     14  C   UNL     1       2.844   2.635  20.630  0.00  0.00    +0.000 C 
ATOM     15  H   UNL     1       5.185   2.029  20.249  0.00  0.00    +0.000 HD
ENDROOT
BRANCH   5  16
ATOM     16  C   UNL     1       2.170   6.772  17.757  0.00  0.00    +0.000 C 
BRANCH  16  17
ATOM     17  C   UNL     1       1.828   7.905  18.716  0.00  0.00    +0.000 A 
ATOM     18  C   UNL     1       1.431   9.183  18.287  0.00  0.00    +0.000 A 
ATOM     19  C   UNL     1       1.059  10.161  19.211  0.00  0.00    +0.000 A 
ATOM     20  C   UNL     1       1.099   9.875  20.570  0.00  0.00    +0.000 A 
ATOM     21  F   UNL     1       0.712  10.806  21.454  0.00  0.00    +0.000 F 
ATOM     22  C   UNL     1       1.528   8.637  21.025  0.00  0.00    +0.000 A 
ATOM     23  C   UNL     1       1.897   7.656  20.101  0.00  0.00    +0.000 A 
ENDBRANCH  16  17
ENDBRANCH   5  16
TORSDOF 2
ENDMDL
MODEL 8
REMARK VINA RESULT:      -6.7      7.556     10.222
REMARK  Name = 
REMARK  2 active torsions:
REMARK  status: ('A' for Active; 'I' for Inactive)
REMARK    1  A    between atoms: N_5  and  C_6
REMARK    2  A    between atoms: C_6  and  C_7
REMARK                            x       y       z     vdW  Elec       q    Type
REMARK                         _______ _______ _______ _____ _____    ______ ____
ROOT
ATOM      1  N   UNL     1      -6.750  11.291  17.631  0.00  0.00    +0.000 NA
ATOM      2  C   UNL     1      -5.700  11.613  18.317  0.00  0.00    +0.000 A 
ATOM      3  C   UNL     1      -5.709  12.155  19.720  0.00  0.00    +0.000 A 
ATOM      4  C   UNL     1      -4.537  12.545  20.290  0.00  0.00    +0.000 A 
ATOM      5  N   UNL     1      -3.277  12.417  19.629  0.00  0.00    +0.000 N 
ATOM      6  C   UNL     1      -3.279  11.837  18.362  0.00  0.00    +0.000 A 
ATOM      7  C   UNL     1      -4.378  11.452  17.705  0.00  0.00    +0.000 A 
ATOM      8  C   UNL     1      -4.118  10.881  16.363  0.00  0.00    +0.000 C 
ATOM      9  C   UNL     1      -2.618  10.604  16.443  0.00  0.00    +0.000 C 
ATOM     10  C   UNL     1      -2.068  11.553  17.517  0.00  0.00    +0.000 C 
ATOM     11  C   UNL     1      -4.559  13.139  21.694  0.00  0.00    +0.000 C 
ATOM     12  C   UNL     1      -5.943  13.559  22.193  0.00  0.00    +0.000 C 
ATOM     13  C   UNL     1      -6.960  12.471  21.911  0.00  0.00    +0.000 C 
ATOM     14  C   UNL     1      -7.046  12.207  20.412  0.00  0.00    +0.000 C 
ATOM     15  H   UNL     1      -7.611  11.459  18.151  0.00  0.00    +0.000 HD
ENDROOT
BRANCH   5  16
ATOM     16  C   UNL     1      -2.007  12.850  20.262  0.00  0.00    +0.000 C 
BRANCH  16  17
ATOM     17  C   UNL     1      -1.282  11.764  21.047  0.00  0.00    +0.000 A 
ATOM     18  C   UNL     1      -0.304  10.928  20.482  0.00  0.00    +0.000 A 
ATOM     19  C   UNL     1       0.379   9.999  21.267  0.00  0.00    +0.000 A 
ATOM     20  C   UNL     1       0.078   9.885  22.619  0.00  0.00    +0.000 A 
ATOM     21  F   UNL     1       0.757   9.013  23.377  0.00  0.00    +0.000 F 
ATOM     22  C   UNL     1      -0.913  10.666  23.196  0.00  0.00    +0.000 A 
ATOM     23  C   UNL     1      -1.596  11.599  22.411  0.00  0.00    +0.000 A 
ENDBRANCH  16  17
ENDBRANCH   5  16
TORSDOF 2
ENDMDL
MODEL 9
REMARK VINA RESULT:      -6.6      2.533      5.069
REMARK  Name = 
REMARK  2 active torsions:
REMARK  status: ('A' for Active; 'I' for Inactive)
REMARK    1  A    between atoms: N_5  and  C_6
REMARK    2  A    between atoms: C_6  and  C_7
REMARK                            x       y       z     vdW  Elec       q    Type
REMARK                         _______ _______ _______ _____ _____    ______ ____
ROOT
ATOM      1  N   UNL     1       5.562   2.647  19.755  0.00  0.00    +0.000 NA
ATOM      2  C   UNL     1       4.763   3.599  19.394  0.00  0.00    +0.000 A 
ATOM      3  C   UNL     1       3.295   3.674  19.717  0.00  0.00    +0.000 A 
ATOM      4  C   UNL     1       2.550   4.684  19.193  0.00  0.00    +0.000 A 
ATOM      5  N   UNL     1       3.111   5.717  18.382  0.00  0.00    +0.000 N 
ATOM      6  C   UNL     1       4.487   5.677  18.161  0.00  0.00    +0.000 A 
ATOM      7  C   UNL     1       5.299   4.712  18.604  0.00  0.00    +0.000 A 
ATOM      8  C   UNL     1       6.719   4.886  18.222  0.00  0.00    +0.000 C 
ATOM      9  C   UNL     1       6.733   6.350  17.788  0.00  0.00    +0.000 C 
ATOM     10  C   UNL     1       5.290   6.689  17.392  0.00  0.00    +0.000 C 
ATOM     11  C   UNL     1       1.054   4.727  19.483  0.00  0.00    +0.000 C 
ATOM     12  C   UNL     1       0.472   3.431  20.054  0.00  0.00    +0.000 C 
ATOM     13  C   UNL     1       1.356   2.900  21.166  0.00  0.00    +0.000 C 
ATOM     14  C   UNL     1       2.754   2.610  20.634  0.00  0.00    +0.000 C 
ATOM     15  H   UNL     1       5.076   1.922  20.285  0.00  0.00    +0.000 HD
ENDROOT
BRANCH   5  16
ATOM     16  C   UNL     1       2.285   6.811  17.814  0.00  0.00    +0.000 C 
BRANCH  16  17
ATOM     17  C   UNL     1       1.848   7.869  18.819  0.00  0.00    +0.000 A 
ATOM     18  C   UNL     1       1.871   7.666  20.209  0.00  0.00    +0.000 A 
ATOM     19  C   UNL     1       1.528   8.697  21.085  0.00  0.00    +0.000 A 
ATOM     20  C   UNL     1       1.141   9.932  20.579  0.00  0.00    +0.000 A 
ATOM     21  F   UNL     1       0.841  10.929  21.423  0.00  0.00    +0.000 F 
ATOM     22  C   UNL     1       1.066  10.148  19.211  0.00  0.00    +0.000 A 
ATOM     23  C   UNL     1       1.413   9.117  18.333  0.00  0.00    +0.000 A 
ENDBRANCH  16  17
ENDBRANCH   5  16
TORSDOF 2
ENDMDL
