MODEL 1
REMARK VINA RESULT:      -8.7      0.000      0.000
REMARK  Name = 
REMARK  9 active torsions:
REMARK  status: ('A' for Active; 'I' for Inactive)
REMARK    1  A    between atoms: C_1  and  C_2
REMARK    2  A    between atoms: C_2  and  N_3
REMARK    3  A    between atoms: C_2  and  C_11
REMARK    4  A    between atoms: C_4  and  C_6
REMARK    5  A    between atoms: C_14  and  C_15
REMARK    6  A    between atoms: C_15  and  N_16
REMARK    7  A    between atoms: C_21  and  O_22
REMARK    8  A    between atoms: O_22  and  C_23
REMARK    9  A    between atoms: C_23  and  C_24
REMARK                            x       y       z     vdW  Elec       q    Type
REMARK                         _______ _______ _______ _____ _____    ______ ____
ROOT
ATOM      1  C   UNL     1       0.581  12.667  20.382  0.00  0.00    +0.000 C 
ENDROOT
BRANCH   1   2
ATOM      2  N   UNL     1       1.220  11.346  20.324  0.00  0.00    +0.000 NA
ATOM      3  C   UNL     1       0.798  10.582  19.144  0.00  0.00    +0.000 C 
ATOM      4  C   UNL     1       1.426   9.209  19.143  0.00  0.00    +0.000 A 
ATOM      5  C   UNL     1       2.099   8.703  18.032  0.00  0.00    +0.000 A 
ATOM      6  C   UNL     1       2.658   7.435  18.092  0.00  0.00    +0.000 A 
ATOM      7  C   UNL     1       2.523   6.645  19.238  0.00  0.00    +0.000 A 
ATOM      8  C   UNL     1       1.844   7.140  20.352  0.00  0.00    +0.000 A 
ATOM      9  C   UNL     1       1.315   8.435  20.311  0.00  0.00    +0.000 A 
ATOM     10  C   UNL     1       0.611   9.083  21.475  0.00  0.00    +0.000 C 
ATOM     11  F   UNL     1      -0.747   9.016  21.327  0.00  0.00    +0.000 F 
ATOM     12  C   UNL     1       1.002  10.587  21.589  0.00  0.00    +0.000 C 
BRANCH   7  13
ATOM     13  O   UNL     1       3.160   5.445  19.153  0.00  0.00    +0.000 OA
BRANCH  13  14
ATOM     14  C   UNL     1       3.202   4.794  17.885  0.00  0.00    +0.000 C 
BRANCH  14  15
ATOM     15  C   UNL     1       2.027   3.876  17.838  0.00  0.00    +0.000 C 
ATOM     16  C   UNL     1       2.258   2.384  17.666  0.00  0.00    +0.000 C 
ATOM     17  C   UNL     1       1.764   2.934  18.951  0.00  0.00    +0.000 C 
ATOM     18  F   UNL     1       0.478   2.680  19.360  0.00  0.00    +0.000 F 
ATOM     19  F   UNL     1       2.566   2.914  20.068  0.00  0.00    +0.000 F 
ENDBRANCH  14  15
ENDBRANCH  13  14
ENDBRANCH   7  13
ENDBRANCH   1   2
BRANCH   1  23
ATOM     20  C   UNL     1      -3.288  12.779  22.372  0.00  0.00    +0.000 A 
ATOM     21  C   UNL     1      -2.102  12.949  23.103  0.00  0.00    +0.000 A 
ATOM     22  C   UNL     1      -0.856  12.907  22.466  0.00  0.00    +0.000 A 
ATOM     23  C   UNL     1      -0.763  12.680  21.084  0.00  0.00    +0.000 A 
ATOM     24  C   UNL     1      -1.941  12.469  20.361  0.00  0.00    +0.000 A 
ATOM     25  C   UNL     1      -3.185  12.540  20.993  0.00  0.00    +0.000 A 
BRANCH  20  27
ATOM     26  C   UNL     1      -4.640  12.399  24.493  0.00  0.00    +0.000 C 
ATOM     27  C   UNL     1      -4.637  12.952  23.062  0.00  0.00    +0.000 C 
BRANCH  27  28
ATOM     28  N   UNL     1      -5.654  12.326  22.222  0.00  0.00    +0.000 N 
ATOM     29  C   UNL     1      -6.675  13.001  21.590  0.00  0.00    +0.000 C 
ATOM     30  O   UNL     1      -6.837  14.216  21.704  0.00  0.00    +0.000 OA
ATOM     31  H   UNL     1      -5.511  11.350  21.994  0.00  0.00    +0.000 HD
BRANCH  29  32
ATOM     32  C   UNL     1      -7.593  12.074  20.736  0.00  0.00    +0.000 C 
ATOM     33  C   UNL     1      -7.312  12.017  19.220  0.00  0.00    +0.000 C 
ATOM     34  C   UNL     1      -6.808  10.573  19.364  0.00  0.00    +0.000 C 
ATOM     35  F   UNL     1      -7.375   9.673  18.525  0.00  0.00    +0.000 F 
ATOM     36  C   UNL     1      -7.338  10.553  20.807  0.00  0.00    +0.000 C 
ENDBRANCH  29  32
ENDBRANCH  27  28
ENDBRANCH  20  27
ENDBRANCH   1  23
TORSDOF 8
ENDMDL
MODEL 2
REMARK VINA RESULT:      -8.6      3.214     10.653
REMARK  Name = 
REMARK  9 active torsions:
REMARK  status: ('A' for Active; 'I' for Inactive)
REMARK    1  A    between atoms: C_1  and  C_2
REMARK    2  A    between atoms: C_2  and  N_3
REMARK    3  A    between atoms: C_2  and  C_11
REMARK    4  A    between atoms: C_4  and  C_6
REMARK    5  A    between atoms: C_14  and  C_15
REMARK    6  A    between atoms: C_15  and  N_16
REMARK    7  A    between atoms: C_21  and  O_22
REMARK    8  A    between atoms: O_22  and  C_23
REMARK    9  A    between atoms: C_23  and  C_24
REMARK                            x       y       z     vdW  Elec       q    Type
REMARK                         _______ _______ _______ _____ _____    ______ ____
ROOT
ATOM      1  C   UNL     1       1.033   9.184  20.991  0.00  0.00    +0.000 C 
ENDROOT
BRANCH   1   2
ATOM      2  N   UNL     1      -0.256   9.655  20.471  0.00  0.00    +0.000 NA
ATOM      3  C   UNL     1      -0.199   9.934  19.031  0.00  0.00    +0.000 C 
ATOM      4  C   UNL     1      -1.521  10.471  18.538  0.00  0.00    +0.000 A 
ATOM      5  C   UNL     1      -2.171   9.935  17.426  0.00  0.00    +0.000 A 
ATOM      6  C   UNL     1      -3.385  10.470  17.023  0.00  0.00    +0.000 A 
ATOM      7  C   UNL     1      -3.947  11.561  17.692  0.00  0.00    +0.000 A 
ATOM      8  C   UNL     1      -3.301  12.109  18.800  0.00  0.00    +0.000 A 
ATOM      9  C   UNL     1      -2.095  11.546  19.237  0.00  0.00    +0.000 A 
ATOM     10  C   UNL     1      -1.345  12.028  20.452  0.00  0.00    +0.000 C 
ATOM     11  F   UNL     1      -0.305  12.843  20.095  0.00  0.00    +0.000 F 
ATOM     12  C   UNL     1      -0.754  10.827  21.248  0.00  0.00    +0.000 C 
BRANCH   7  13
ATOM     13  O   UNL     1      -5.157  11.942  17.199  0.00  0.00    +0.000 OA
BRANCH  13  14
ATOM     14  C   UNL     1      -6.328  11.530  17.901  0.00  0.00    +0.000 C 
BRANCH  14  15
ATOM     15  C   UNL     1      -6.386  12.346  19.149  0.00  0.00    +0.000 C 
ATOM     16  C   UNL     1      -7.730  12.595  19.812  0.00  0.00    +0.000 C 
ATOM     17  C   UNL     1      -6.721  11.714  20.447  0.00  0.00    +0.000 C 
ATOM     18  F   UNL     1      -6.087  12.112  21.599  0.00  0.00    +0.000 F 
ATOM     19  F   UNL     1      -6.940  10.361  20.540  0.00  0.00    +0.000 F 
ENDBRANCH  14  15
ENDBRANCH  13  14
ENDBRANCH   7  13
ENDBRANCH   1   2
BRANCH   1  23
ATOM     20  C   UNL     1       2.602   5.587  19.110  0.00  0.00    +0.000 A 
ATOM     21  C   UNL     1       2.722   6.834  18.479  0.00  0.00    +0.000 A 
ATOM     22  C   UNL     1       2.212   7.992  19.080  0.00  0.00    +0.000 A 
ATOM     23  C   UNL     1       1.558   7.930  20.320  0.00  0.00    +0.000 A 
ATOM     24  C   UNL     1       1.401   6.682  20.930  0.00  0.00    +0.000 A 
ATOM     25  C   UNL     1       1.935   5.531  20.344  0.00  0.00    +0.000 A 
BRANCH  20  27
ATOM     26  C   UNL     1       3.007   3.083  19.306  0.00  0.00    +0.000 C 
ATOM     27  C   UNL     1       3.271   4.359  18.499  0.00  0.00    +0.000 C 
BRANCH  27  28
ATOM     28  N   UNL     1       4.697   4.648  18.364  0.00  0.00    +0.000 N 
ATOM     29  C   UNL     1       5.432   4.454  17.215  0.00  0.00    +0.000 C 
ATOM     30  O   UNL     1       4.944   3.986  16.187  0.00  0.00    +0.000 OA
ATOM     31  H   UNL     1       5.130   5.141  19.134  0.00  0.00    +0.000 HD
BRANCH  29  32
ATOM     32  C   UNL     1       6.925   4.878  17.360  0.00  0.00    +0.000 C 
ATOM     33  C   UNL     1       7.298   6.299  16.887  0.00  0.00    +0.000 C 
ATOM     34  C   UNL     1       7.541   6.724  18.343  0.00  0.00    +0.000 C 
ATOM     35  F   UNL     1       8.737   7.310  18.585  0.00  0.00    +0.000 F 
ATOM     36  C   UNL     1       7.430   5.251  18.770  0.00  0.00    +0.000 C 
ENDBRANCH  29  32
ENDBRANCH  27  28
ENDBRANCH  20  27
ENDBRANCH   1  23
TORSDOF 8
ENDMDL
MODEL 3
REMARK VINA RESULT:      -8.4      3.037     10.634
REMARK  Name = 
REMARK  9 active torsions:
REMARK  status: ('A' for Active; 'I' for Inactive)
REMARK    1  A    between atoms: C_1  and  C_2
REMARK    2  A    between atoms: C_2  and  N_3
REMARK    3  A    between atoms: C_2  and  C_11
REMARK    4  A    between atoms: C_4  and  C_6
REMARK    5  A    between atoms: C_14  and  C_15
REMARK    6  A    between atoms: C_15  and  N_16
REMARK    7  A    between atoms: C_21  and  O_22
REMARK    8  A    between atoms: O_22  and  C_23
REMARK    9  A    between atoms: C_23  and  C_24
REMARK                            x       y       z     vdW  Elec       q    Type
REMARK                         _______ _______ _______ _____ _____    ______ ____
ROOT
ATOM      1  C   UNL     1       1.148   8.469  21.566  0.00  0.00    +0.000 C 
ENDROOT
BRANCH   1   2
ATOM      2  N   UNL     1      -0.074   9.188  21.187  0.00  0.00    +0.000 NA
ATOM      3  C   UNL     1       0.021   9.765  19.841  0.00  0.00    +0.000 C 
ATOM      4  C   UNL     1      -1.226  10.545  19.503  0.00  0.00    +0.000 A 
ATOM      5  C   UNL     1      -1.929  10.342  18.315  0.00  0.00    +0.000 A 
ATOM      6  C   UNL     1      -3.070  11.089  18.063  0.00  0.00    +0.000 A 
ATOM      7  C   UNL     1      -3.503  12.066  18.963  0.00  0.00    +0.000 A 
ATOM      8  C   UNL     1      -2.802  12.282  20.150  0.00  0.00    +0.000 A 
ATOM      9  C   UNL     1      -1.673  11.502  20.430  0.00  0.00    +0.000 A 
ATOM     10  C   UNL     1      -0.876  11.618  21.704  0.00  0.00    +0.000 C 
ATOM     11  F   UNL     1       0.253  12.365  21.510  0.00  0.00    +0.000 F 
ATOM     12  C   UNL     1      -0.434  10.213  22.209  0.00  0.00    +0.000 C 
BRANCH   7  13
ATOM     13  O   UNL     1      -4.658  12.682  18.590  0.00  0.00    +0.000 OA
BRANCH  13  14
ATOM     14  C   UNL     1      -5.637  12.940  19.594  0.00  0.00    +0.000 C 
BRANCH  14  15
ATOM     15  C   UNL     1      -6.118  11.611  20.071  0.00  0.00    +0.000 C 
ATOM     16  C   UNL     1      -7.601  11.409  20.334  0.00  0.00    +0.000 C 
ATOM     17  C   UNL     1      -6.934  10.745  19.188  0.00  0.00    +0.000 C 
ATOM     18  F   UNL     1      -6.756   9.382  19.190  0.00  0.00    +0.000 F 
ATOM     19  F   UNL     1      -7.228  11.123  17.900  0.00  0.00    +0.000 F 
ENDBRANCH  14  15
ENDBRANCH  13  14
ENDBRANCH   7  13
ENDBRANCH   1   2
BRANCH   1  23
ATOM     20  C   UNL     1       2.630   5.629  18.620  0.00  0.00    +0.000 A 
ATOM     21  C   UNL     1       2.726   7.010  18.392  0.00  0.00    +0.000 A 
ATOM     22  C   UNL     1       2.243   7.925  19.336  0.00  0.00    +0.000 A 
ATOM     23  C   UNL     1       1.642   7.484  20.525  0.00  0.00    +0.000 A 
ATOM     24  C   UNL     1       1.509   6.108  20.734  0.00  0.00    +0.000 A 
ATOM     25  C   UNL     1       2.015   5.195  19.805  0.00  0.00    +0.000 A 
BRANCH  20  27
ATOM     26  C   UNL     1       2.955   3.190  17.975  0.00  0.00    +0.000 C 
ATOM     27  C   UNL     1       3.271   4.652  17.639  0.00  0.00    +0.000 C 
BRANCH  27  28
ATOM     28  N   UNL     1       4.707   4.920  17.614  0.00  0.00    +0.000 N 
ATOM     29  C   UNL     1       5.507   4.813  16.498  0.00  0.00    +0.000 C 
ATOM     30  O   UNL     1       5.073   4.448  15.404  0.00  0.00    +0.000 OA
ATOM     31  H   UNL     1       5.101   5.334  18.449  0.00  0.00    +0.000 HD
BRANCH  29  32
ATOM     32  C   UNL     1       6.995   5.190  16.767  0.00  0.00    +0.000 C 
ATOM     33  C   UNL     1       7.316   6.689  16.941  0.00  0.00    +0.000 C 
ATOM     34  C   UNL     1       7.612   6.457  18.430  0.00  0.00    +0.000 C 
ATOM     35  F   UNL     1       8.805   6.927  18.866  0.00  0.00    +0.000 F 
ATOM     36  C   UNL     1       7.552   4.940  18.184  0.00  0.00    +0.000 C 
ENDBRANCH  29  32
ENDBRANCH  27  28
ENDBRANCH  20  27
ENDBRANCH   1  23
TORSDOF 8
ENDMDL
MODEL 4
REMARK VINA RESULT:      -8.3      4.458      7.398
REMARK  Name = 
REMARK  9 active torsions:
REMARK  status: ('A' for Active; 'I' for Inactive)
REMARK    1  A    between atoms: C_1  and  C_2
REMARK    2  A    between atoms: C_2  and  N_3
REMARK    3  A    between atoms: C_2  and  C_11
REMARK    4  A    between atoms: C_4  and  C_6
REMARK    5  A    between atoms: C_14  and  C_15
REMARK    6  A    between atoms: C_15  and  N_16
REMARK    7  A    between atoms: C_21  and  O_22
REMARK    8  A    between atoms: O_22  and  C_23
REMARK    9  A    between atoms: C_23  and  C_24
REMARK                            x       y       z     vdW  Elec       q    Type
REMARK                         _______ _______ _______ _____ _____    ______ ____
ROOT
ATOM      1  C   UNL     1       1.555   6.405  20.730  0.00  0.00    +0.000 C 
ENDROOT
BRANCH   1   2
ATOM      2  N   UNL     1       2.757   6.080  19.953  0.00  0.00    +0.000 NA
ATOM      3  C   UNL     1       2.597   6.407  18.531  0.00  0.00    +0.000 C 
ATOM      4  C   UNL     1       3.826   6.009  17.749  0.00  0.00    +0.000 A 
ATOM      5  C   UNL     1       4.473   6.891  16.885  0.00  0.00    +0.000 A 
ATOM      6  C   UNL     1       5.599   6.467  16.195  0.00  0.00    +0.000 A 
ATOM      7  C   UNL     1       6.071   5.158  16.327  0.00  0.00    +0.000 A 
ATOM      8  C   UNL     1       5.425   4.265  17.183  0.00  0.00    +0.000 A 
ATOM      9  C   UNL     1       4.313   4.701  17.914  0.00  0.00    +0.000 A 
ATOM     10  C   UNL     1       3.576   3.835  18.902  0.00  0.00    +0.000 C 
ATOM     11  F   UNL     1       2.437   3.317  18.349  0.00  0.00    +0.000 F 
ATOM     12  C   UNL     1       3.161   4.659  20.157  0.00  0.00    +0.000 C 
BRANCH   7  13
ATOM     13  O   UNL     1       7.206   4.911  15.617  0.00  0.00    +0.000 OA
BRANCH  13  14
ATOM     14  C   UNL     1       7.155   5.051  14.199  0.00  0.00    +0.000 C 
BRANCH  14  15
ATOM     15  C   UNL     1       6.511   3.813  13.672  0.00  0.00    +0.000 C 
ATOM     16  C   UNL     1       5.245   3.932  12.839  0.00  0.00    +0.000 C 
ATOM     17  C   UNL     1       6.527   3.516  12.220  0.00  0.00    +0.000 C 
ATOM     18  F   UNL     1       6.690   2.227  11.774  0.00  0.00    +0.000 F 
ATOM     19  F   UNL     1       7.172   4.346  11.334  0.00  0.00    +0.000 F 
ENDBRANCH  14  15
ENDBRANCH  13  14
ENDBRANCH   7  13
ENDBRANCH   1   2
BRANCH   1  23
ATOM     20  C   UNL     1       0.716  10.671  20.930  0.00  0.00    +0.000 A 
ATOM     21  C   UNL     1       0.539   9.854  22.058  0.00  0.00    +0.000 A 
ATOM     22  C   UNL     1       0.803   8.480  21.993  0.00  0.00    +0.000 A 
ATOM     23  C   UNL     1       1.236   7.886  20.798  0.00  0.00    +0.000 A 
ATOM     24  C   UNL     1       1.373   8.692  19.663  0.00  0.00    +0.000 A 
ATOM     25  C   UNL     1       1.137  10.067  19.735  0.00  0.00    +0.000 A 
BRANCH  20  27
ATOM     26  C   UNL     1      -0.835  12.657  20.582  0.00  0.00    +0.000 C 
ATOM     27  C   UNL     1       0.544  12.182  21.054  0.00  0.00    +0.000 C 
BRANCH  27  28
ATOM     28  N   UNL     1       1.634  12.819  20.318  0.00  0.00    +0.000 N 
ATOM     29  C   UNL     1       2.446  13.811  20.821  0.00  0.00    +0.000 C 
ATOM     30  O   UNL     1       2.303  14.275  21.953  0.00  0.00    +0.000 OA
ATOM     31  H   UNL     1       1.877  12.404  19.428  0.00  0.00    +0.000 HD
BRANCH  29  32
ATOM     32  C   UNL     1       3.542  14.279  19.816  0.00  0.00    +0.000 C 
ATOM     33  C   UNL     1       3.055  14.934  18.507  0.00  0.00    +0.000 C 
ATOM     34  C   UNL     1       3.597  16.292  18.979  0.00  0.00    +0.000 C 
ATOM     35  F   UNL     1       4.413  16.928  18.106  0.00  0.00    +0.000 F 
ATOM     36  C   UNL     1       4.306  15.579  20.143  0.00  0.00    +0.000 C 
ENDBRANCH  29  32
ENDBRANCH  27  28
ENDBRANCH  20  27
ENDBRANCH   1  23
TORSDOF 8
ENDMDL
MODEL 5
REMARK VINA RESULT:      -8.2      4.608      7.593
REMARK  Name = 
REMARK  9 active torsions:
REMARK  status: ('A' for Active; 'I' for Inactive)
REMARK    1  A    between atoms: C_1  and  C_2
REMARK    2  A    between atoms: C_2  and  N_3
REMARK    3  A    between atoms: C_2  and  C_11
REMARK    4  A    between atoms: C_4  and  C_6
REMARK    5  A    between atoms: C_14  and  C_15
REMARK    6  A    between atoms: C_15  and  N_16
REMARK    7  A    between atoms: C_21  and  O_22
REMARK    8  A    between atoms: O_22  and  C_23
REMARK    9  A    between atoms: C_23  and  C_24
REMARK                            x       y       z     vdW  Elec       q    Type
REMARK                         _______ _______ _______ _____ _____    ______ ____
ROOT
ATOM      1  C   UNL     1       1.535   6.983  20.572  0.00  0.00    +0.000 C 
ENDROOT
BRANCH   1   2
ATOM      2  N   UNL     1       2.642   6.389  19.812  0.00  0.00    +0.000 NA
ATOM      3  C   UNL     1       2.576   6.732  18.386  0.00  0.00    +0.000 C 
ATOM      4  C   UNL     1       3.692   6.060  17.623  0.00  0.00    +0.000 A 
ATOM      5  C   UNL     1       4.532   6.766  16.762  0.00  0.00    +0.000 A 
ATOM      6  C   UNL     1       5.541   6.093  16.090  0.00  0.00    +0.000 A 
ATOM      7  C   UNL     1       5.704   4.712  16.235  0.00  0.00    +0.000 A 
ATOM      8  C   UNL     1       4.863   3.995  17.087  0.00  0.00    +0.000 A 
ATOM      9  C   UNL     1       3.869   4.677  17.801  0.00  0.00    +0.000 A 
ATOM     10  C   UNL     1       2.945   4.008  18.784  0.00  0.00    +0.000 C 
ATOM     11  F   UNL     1       1.725   3.756  18.219  0.00  0.00    +0.000 F 
ATOM     12  C   UNL     1       2.712   4.915  20.029  0.00  0.00    +0.000 C 
BRANCH   7  13
ATOM     13  O   UNL     1       6.761   4.209  15.541  0.00  0.00    +0.000 OA
BRANCH  13  14
ATOM     14  C   UNL     1       6.895   4.567  14.167  0.00  0.00    +0.000 C 
BRANCH  14  15
ATOM     15  C   UNL     1       6.320   3.440  13.377  0.00  0.00    +0.000 C 
ATOM     16  C   UNL     1       5.216   3.725  12.372  0.00  0.00    +0.000 C 
ATOM     17  C   UNL     1       6.573   3.337  11.920  0.00  0.00    +0.000 C 
ATOM     18  F   UNL     1       6.779   2.112  11.333  0.00  0.00    +0.000 F 
ATOM     19  F   UNL     1       7.377   4.246  11.274  0.00  0.00    +0.000 F 
ENDBRANCH  14  15
ENDBRANCH  13  14
ENDBRANCH   7  13
ENDBRANCH   1   2
BRANCH   1  23
ATOM     20  C   UNL     1       0.843  11.214  19.823  0.00  0.00    +0.000 A 
ATOM     21  C   UNL     1       1.219  10.355  18.779  0.00  0.00    +0.000 A 
ATOM     22  C   UNL     1       1.449   8.995  19.020  0.00  0.00    +0.000 A 
ATOM     23  C   UNL     1       1.322   8.461  20.311  0.00  0.00    +0.000 A 
ATOM     24  C   UNL     1       0.987   9.324  21.360  0.00  0.00    +0.000 A 
ATOM     25  C   UNL     1       0.731  10.675  21.115  0.00  0.00    +0.000 A 
BRANCH  20  27
ATOM     26  C   UNL     1      -0.763  12.782  18.626  0.00  0.00    +0.000 C 
ATOM     27  C   UNL     1       0.478  12.664  19.519  0.00  0.00    +0.000 C 
BRANCH  27  28
ATOM     28  N   UNL     1       1.650  13.308  18.932  0.00  0.00    +0.000 N 
ATOM     29  C   UNL     1       1.851  14.669  18.873  0.00  0.00    +0.000 C 
ATOM     30  O   UNL     1       1.027  15.480  19.296  0.00  0.00    +0.000 OA
ATOM     31  H   UNL     1       2.415  12.698  18.672  0.00  0.00    +0.000 HD
BRANCH  29  32
ATOM     32  C   UNL     1       3.208  15.064  18.214  0.00  0.00    +0.000 C 
ATOM     33  C   UNL     1       3.449  16.567  17.958  0.00  0.00    +0.000 C 
ATOM     34  C   UNL     1       4.530  16.584  19.050  0.00  0.00    +0.000 C 
ATOM     35  F   UNL     1       5.723  17.103  18.678  0.00  0.00    +0.000 F 
ATOM     36  C   UNL     1       4.467  15.048  19.105  0.00  0.00    +0.000 C 
ENDBRANCH  29  32
ENDBRANCH  27  28
ENDBRANCH  20  27
ENDBRANCH   1  23
TORSDOF 8
ENDMDL
MODEL 6
REMARK VINA RESULT:      -8.2      4.210      6.805
REMARK  Name = 
REMARK  9 active torsions:
REMARK  status: ('A' for Active; 'I' for Inactive)
REMARK    1  A    between atoms: C_1  and  C_2
REMARK    2  A    between atoms: C_2  and  N_3
REMARK    3  A    between atoms: C_2  and  C_11
REMARK    4  A    between atoms: C_4  and  C_6
REMARK    5  A    between atoms: C_14  and  C_15
REMARK    6  A    between atoms: C_15  and  N_16
REMARK    7  A    between atoms: C_21  and  O_22
REMARK    8  A    between atoms: O_22  and  C_23
REMARK    9  A    between atoms: C_23  and  C_24
REMARK                            x       y       z     vdW  Elec       q    Type
REMARK                         _______ _______ _______ _____ _____    ______ ____
ROOT
ATOM      1  C   UNL     1       2.593   5.607  20.294  0.00  0.00    +0.000 C 
ENDROOT
BRANCH   1   2
ATOM      2  N   UNL     1       3.618   5.281  19.295  0.00  0.00    +0.000 NA
ATOM      3  C   UNL     1       3.232   5.716  17.948  0.00  0.00    +0.000 C 
ATOM      4  C   UNL     1       4.278   5.316  16.936  0.00  0.00    +0.000 A 
ATOM      5  C   UNL     1       4.817   6.225  16.025  0.00  0.00    +0.000 A 
ATOM      6  C   UNL     1       5.777   5.797  15.121  0.00  0.00    +0.000 A 
ATOM      7  C   UNL     1       6.184   4.460  15.085  0.00  0.00    +0.000 A 
ATOM      8  C   UNL     1       5.645   3.541  15.986  0.00  0.00    +0.000 A 
ATOM      9  C   UNL     1       4.706   3.977  16.929  0.00  0.00    +0.000 A 
ATOM     10  C   UNL     1       4.103   3.079  17.978  0.00  0.00    +0.000 C 
ATOM     11  F   UNL     1       2.855   2.659  17.606  0.00  0.00    +0.000 F 
ATOM     12  C   UNL     1       3.965   3.831  19.335  0.00  0.00    +0.000 C 
BRANCH   7  13
ATOM     13  O   UNL     1       7.160   4.210  14.170  0.00  0.00    +0.000 OA
BRANCH  13  14
ATOM     14  C   UNL     1       6.804   4.218  12.789  0.00  0.00    +0.000 C 
BRANCH  14  15
ATOM     15  C   UNL     1       5.841   3.096  12.591  0.00  0.00    +0.000 C 
ATOM     16  C   UNL     1       4.943   3.096  11.365  0.00  0.00    +0.000 C 
ATOM     17  C   UNL     1       6.044   2.113  11.500  0.00  0.00    +0.000 C 
ATOM     18  F   UNL     1       5.761   0.783  11.698  0.00  0.00    +0.000 F 
ATOM     19  F   UNL     1       7.144   2.184  10.678  0.00  0.00    +0.000 F 
ENDBRANCH  14  15
ENDBRANCH  13  14
ENDBRANCH   7  13
ENDBRANCH   1   2
BRANCH   1  23
ATOM     20  C   UNL     1       0.919   9.601  19.863  0.00  0.00    +0.000 A 
ATOM     21  C   UNL     1       0.666   8.841  21.015  0.00  0.00    +0.000 A 
ATOM     22  C   UNL     1       1.199   7.553  21.152  0.00  0.00    +0.000 A 
ATOM     23  C   UNL     1       1.986   6.988  20.137  0.00  0.00    +0.000 A 
ATOM     24  C   UNL     1       2.204   7.729  18.971  0.00  0.00    +0.000 A 
ATOM     25  C   UNL     1       1.696   9.024  18.847  0.00  0.00    +0.000 A 
BRANCH  20  27
ATOM     26  C   UNL     1       1.502  11.995  19.231  0.00  0.00    +0.000 C 
ATOM     27  C   UNL     1       0.434  11.046  19.787  0.00  0.00    +0.000 C 
BRANCH  27  28
ATOM     28  N   UNL     1      -0.020  11.437  21.118  0.00  0.00    +0.000 N 
ATOM     29  C   UNL     1      -1.227  12.045  21.390  0.00  0.00    +0.000 C 
ATOM     30  O   UNL     1      -2.033  12.340  20.508  0.00  0.00    +0.000 OA
ATOM     31  H   UNL     1       0.543  11.119  21.897  0.00  0.00    +0.000 HD
BRANCH  29  32
ATOM     32  C   UNL     1      -1.451  12.320  22.908  0.00  0.00    +0.000 C 
ATOM     33  C   UNL     1      -1.402  13.792  23.366  0.00  0.00    +0.000 C 
ATOM     34  C   UNL     1      -2.913  13.759  23.646  0.00  0.00    +0.000 C 
ATOM     35  F   UNL     1      -3.285  14.178  24.878  0.00  0.00    +0.000 F 
ATOM     36  C   UNL     1      -2.895  12.235  23.445  0.00  0.00    +0.000 C 
ENDBRANCH  29  32
ENDBRANCH  27  28
ENDBRANCH  20  27
ENDBRANCH   1  23
TORSDOF 8
ENDMDL
MODEL 7
REMARK VINA RESULT:      -8.2      4.523      7.729
REMARK  Name = 
REMARK  9 active torsions:
REMARK  status: ('A' for Active; 'I' for Inactive)
REMARK    1  A    between atoms: C_1  and  C_2
REMARK    2  A    between atoms: C_2  and  N_3
REMARK    3  A    between atoms: C_2  and  C_11
REMARK    4  A    between atoms: C_4  and  C_6
REMARK    5  A    between atoms: C_14  and  C_15
REMARK    6  A    between atoms: C_15  and  N_16
REMARK    7  A    between atoms: C_21  and  O_22
REMARK    8  A    between atoms: O_22  and  C_23
REMARK    9  A    between atoms: C_23  and  C_24
REMARK                            x       y       z     vdW  Elec       q    Type
REMARK                         _______ _______ _______ _____ _____    ______ ____
ROOT
ATOM      1  C   UNL     1       0.309  11.940  20.435  0.00  0.00    +0.000 C 
ENDROOT
BRANCH   1   2
ATOM      2  N   UNL     1       1.093  10.701  20.370  0.00  0.00    +0.000 NA
ATOM      3  C   UNL     1       0.782   9.916  19.169  0.00  0.00    +0.000 C 
ATOM      4  C   UNL     1       1.560   8.622  19.160  0.00  0.00    +0.000 A 
ATOM      5  C   UNL     1       2.307   8.214  18.056  0.00  0.00    +0.000 A 
ATOM      6  C   UNL     1       3.003   7.015  18.109  0.00  0.00    +0.000 A 
ATOM      7  C   UNL     1       2.935   6.194  19.238  0.00  0.00    +0.000 A 
ATOM      8  C   UNL     1       2.183   6.590  20.345  0.00  0.00    +0.000 A 
ATOM      9  C   UNL     1       1.512   7.819  20.313  0.00  0.00    +0.000 A 
ATOM     10  C   UNL     1       0.718   8.364  21.471  0.00  0.00    +0.000 C 
ATOM     11  F   UNL     1      -0.622   8.148  21.293  0.00  0.00    +0.000 F 
ATOM     12  C   UNL     1       0.935   9.899  21.618  0.00  0.00    +0.000 C 
BRANCH   7  13
ATOM     13  O   UNL     1       3.703   5.075  19.149  0.00  0.00    +0.000 OA
BRANCH  13  14
ATOM     14  C   UNL     1       3.473   4.187  18.057  0.00  0.00    +0.000 C 
BRANCH  14  15
ATOM     15  C   UNL     1       2.115   3.605  18.261  0.00  0.00    +0.000 C 
ATOM     16  C   UNL     1       1.930   2.100  18.157  0.00  0.00    +0.000 C 
ATOM     17  C   UNL     1       1.818   2.792  19.464  0.00  0.00    +0.000 C 
ATOM     18  F   UNL     1       0.598   2.892  20.088  0.00  0.00    +0.000 F 
ATOM     19  F   UNL     1       2.767   2.594  20.438  0.00  0.00    +0.000 F 
ENDBRANCH  14  15
ENDBRANCH  13  14
ENDBRANCH   7  13
ENDBRANCH   1   2
BRANCH   1  23
ATOM     20  C   UNL     1       2.525  15.477  19.202  0.00  0.00    +0.000 A 
ATOM     21  C   UNL     1       3.053  14.602  20.165  0.00  0.00    +0.000 A 
ATOM     22  C   UNL     1       2.338  13.467  20.567  0.00  0.00    +0.000 A 
ATOM     23  C   UNL     1       1.073  13.185  20.029  0.00  0.00    +0.000 A 
ATOM     24  C   UNL     1       0.529  14.078  19.100  0.00  0.00    +0.000 A 
ATOM     25  C   UNL     1       1.254  15.195  18.678  0.00  0.00    +0.000 A 
BRANCH  20  27
ATOM     26  C   UNL     1       2.972  17.073  17.273  0.00  0.00    +0.000 C 
ATOM     27  C   UNL     1       3.372  16.637  18.687  0.00  0.00    +0.000 C 
BRANCH  27  28
ATOM     28  N   UNL     1       4.775  16.241  18.773  0.00  0.00    +0.000 N 
ATOM     29  C   UNL     1       5.783  17.028  19.284  0.00  0.00    +0.000 C 
ATOM     30  O   UNL     1       5.587  18.170  19.699  0.00  0.00    +0.000 OA
ATOM     31  H   UNL     1       4.982  15.274  18.557  0.00  0.00    +0.000 HD
BRANCH  29  32
ATOM     32  C   UNL     1       7.177  16.329  19.273  0.00  0.00    +0.000 C 
ATOM     33  C   UNL     1       7.219  14.847  19.700  0.00  0.00    +0.000 C 
ATOM     34  C   UNL     1       7.542  14.436  18.255  0.00  0.00    +0.000 C 
ATOM     35  F   UNL     1       8.626  13.639  18.107  0.00  0.00    +0.000 F 
ATOM     36  C   UNL     1       7.760  15.917  17.905  0.00  0.00    +0.000 C 
ENDBRANCH  29  32
ENDBRANCH  27  28
ENDBRANCH  20  27
ENDBRANCH   1  23
TORSDOF 8
ENDMDL
MODEL 8
REMARK VINA RESULT:      -8.1      3.864      5.925
REMARK  Name = 
REMARK  9 active torsions:
REMARK  status: ('A' for Active; 'I' for Inactive)
REMARK    1  A    between atoms: C_1  and  C_2
REMARK    2  A    between atoms: C_2  and  N_3
REMARK    3  A    between atoms: C_2  and  C_11
REMARK    4  A    between atoms: C_4  and  C_6
REMARK    5  A    between atoms: C_14  and  C_15
REMARK    6  A    between atoms: C_15  and  N_16
REMARK    7  A    between atoms: C_21  and  O_22
REMARK    8  A    between atoms: O_22  and  C_23
REMARK    9  A    between atoms: C_23  and  C_24
REMARK                            x       y       z     vdW  Elec       q    Type
REMARK                         _______ _______ _______ _____ _____    ______ ____
ROOT
ATOM      1  C   UNL     1       1.430   6.381  20.987  0.00  0.00    +0.000 C 
ENDROOT
BRANCH   1   2
ATOM      2  N   UNL     1       2.534   5.911  20.141  0.00  0.00    +0.000 NA
ATOM      3  C   UNL     1       2.365   6.318  18.740  0.00  0.00    +0.000 C 
ATOM      4  C   UNL     1       3.484   5.772  17.886  0.00  0.00    +0.000 A 
ATOM      5  C   UNL     1       4.221   6.581  17.022  0.00  0.00    +0.000 A 
ATOM      6  C   UNL     1       5.239   6.021  16.265  0.00  0.00    +0.000 A 
ATOM      7  C   UNL     1       5.510   4.651  16.327  0.00  0.00    +0.000 A 
ATOM      8  C   UNL     1       4.772   3.832  17.182  0.00  0.00    +0.000 A 
ATOM      9  C   UNL     1       3.772   4.399  17.981  0.00  0.00    +0.000 A 
ATOM     10  C   UNL     1       2.954   3.614  18.973  0.00  0.00    +0.000 C 
ATOM     11  F   UNL     1       1.727   3.298  18.458  0.00  0.00    +0.000 F 
ATOM     12  C   UNL     1       2.725   4.438  20.275  0.00  0.00    +0.000 C 
BRANCH   7  13
ATOM     13  O   UNL     1       6.562   4.266  15.555  0.00  0.00    +0.000 OA
BRANCH  13  14
ATOM     14  C   UNL     1       6.594   4.700  14.197  0.00  0.00    +0.000 C 
BRANCH  14  15
ATOM     15  C   UNL     1       6.293   3.502  13.360  0.00  0.00    +0.000 C 
ATOM     16  C   UNL     1       5.281   3.620  12.233  0.00  0.00    +0.000 C 
ATOM     17  C   UNL     1       6.725   3.447  11.943  0.00  0.00    +0.000 C 
ATOM     18  F   UNL     1       7.183   2.272  11.399  0.00  0.00    +0.000 F 
ATOM     19  F   UNL     1       7.448   4.473  11.382  0.00  0.00    +0.000 F 
ENDBRANCH  14  15
ENDBRANCH  13  14
ENDBRANCH   7  13
ENDBRANCH   1   2
BRANCH   1  23
ATOM     20  C   UNL     1       0.364  10.553  20.356  0.00  0.00    +0.000 A 
ATOM     21  C   UNL     1      -0.265   9.798  21.358  0.00  0.00    +0.000 A 
ATOM     22  C   UNL     1       0.072   8.454  21.558  0.00  0.00    +0.000 A 
ATOM     23  C   UNL     1       1.036   7.826  20.753  0.00  0.00    +0.000 A 
ATOM     24  C   UNL     1       1.634   8.566  19.728  0.00  0.00    +0.000 A 
ATOM     25  C   UNL     1       1.317   9.915  19.548  0.00  0.00    +0.000 A 
BRANCH  20  27
ATOM     26  C   UNL     1       1.349  12.884  20.097  0.00  0.00    +0.000 C 
ATOM     27  C   UNL     1       0.073  12.046  20.236  0.00  0.00    +0.000 C 
BRANCH  27  28
ATOM     28  N   UNL     1      -0.729  12.440  21.391  0.00  0.00    +0.000 N 
ATOM     29  C   UNL     1      -1.682  13.436  21.383  0.00  0.00    +0.000 C 
ATOM     30  O   UNL     1      -1.926  14.111  20.383  0.00  0.00    +0.000 OA
ATOM     31  H   UNL     1      -0.660  11.849  22.209  0.00  0.00    +0.000 HD
BRANCH  29  32
ATOM     32  C   UNL     1      -2.399  13.615  22.755  0.00  0.00    +0.000 C 
ATOM     33  C   UNL     1      -3.873  14.071  22.720  0.00  0.00    +0.000 C 
ATOM     34  C   UNL     1      -4.317  12.687  23.218  0.00  0.00    +0.000 C 
ATOM     35  F   UNL     1      -5.131  12.693  24.300  0.00  0.00    +0.000 F 
ATOM     36  C   UNL     1      -2.846  12.340  23.501  0.00  0.00    +0.000 C 
ENDBRANCH  29  32
ENDBRANCH  27  28
ENDBRANCH  20  27
ENDBRANCH   1  23
TORSDOF 8
ENDMDL
MODEL 9
REMARK VINA RESULT:      -8.0      4.935      8.148
REMARK  Name = 
REMARK  9 active torsions:
REMARK  status: ('A' for Active; 'I' for Inactive)
REMARK    1  A    between atoms: C_1  and  C_2
REMARK    2  A    between atoms: C_2  and  N_3
REMARK    3  A    between atoms: C_2  and  C_11
REMARK    4  A    between atoms: C_4  and  C_6
REMARK    5  A    between atoms: C_14  and  C_15
REMARK    6  A    between atoms: C_15  and  N_16
REMARK    7  A    between atoms: C_21  and  O_22
REMARK    8  A    between atoms: O_22  and  C_23
REMARK    9  A    between atoms: C_23  and  C_24
REMARK                            x       y       z     vdW  Elec       q    Type
REMARK                         _______ _______ _______ _____ _____    ______ ____
ROOT
ATOM      1  C   UNL     1       0.553  11.780  20.647  0.00  0.00    +0.000 C 
ENDROOT
BRANCH   1   2
ATOM      2  N   UNL     1       1.340  10.552  20.480  0.00  0.00    +0.000 NA
ATOM      3  C   UNL     1       1.001   9.847  19.237  0.00  0.00    +0.000 C 
ATOM      4  C   UNL     1       1.783   8.561  19.122  0.00  0.00    +0.000 A 
ATOM      5  C   UNL     1       2.503   8.231  17.974  0.00  0.00    +0.000 A 
ATOM      6  C   UNL     1       3.204   7.035  17.928  0.00  0.00    +0.000 A 
ATOM      7  C   UNL     1       3.169   6.141  19.002  0.00  0.00    +0.000 A 
ATOM      8  C   UNL     1       2.444   6.458  20.152  0.00  0.00    +0.000 A 
ATOM      9  C   UNL     1       1.769   7.683  20.219  0.00  0.00    +0.000 A 
ATOM     10  C   UNL     1       1.003   8.144  21.432  0.00  0.00    +0.000 C 
ATOM     11  F   UNL     1      -0.340   7.933  21.274  0.00  0.00    +0.000 F 
ATOM     12  C   UNL     1       1.218   9.668  21.675  0.00  0.00    +0.000 C 
BRANCH   7  13
ATOM     13  O   UNL     1       3.939   5.034  18.818  0.00  0.00    +0.000 OA
BRANCH  13  14
ATOM     14  C   UNL     1       4.869   5.035  17.737  0.00  0.00    +0.000 C 
BRANCH  14  15
ATOM     15  C   UNL     1       6.228   4.934  18.345  0.00  0.00    +0.000 C 
ATOM     16  C   UNL     1       7.427   4.685  17.444  0.00  0.00    +0.000 C 
ATOM     17  C   UNL     1       7.237   5.994  18.114  0.00  0.00    +0.000 C 
ATOM     18  F   UNL     1       8.084   6.382  19.123  0.00  0.00    +0.000 F 
ATOM     19  F   UNL     1       6.932   7.113  17.376  0.00  0.00    +0.000 F 
ENDBRANCH  14  15
ENDBRANCH  13  14
ENDBRANCH   7  13
ENDBRANCH   1   2
BRANCH   1  23
ATOM     20  C   UNL     1       2.571  15.341  19.167  0.00  0.00    +0.000 A 
ATOM     21  C   UNL     1       2.956  14.753  20.382  0.00  0.00    +0.000 A 
ATOM     22  C   UNL     1       2.303  13.611  20.863  0.00  0.00    +0.000 A 
ATOM     23  C   UNL     1       1.241  13.035  20.149  0.00  0.00    +0.000 A 
ATOM     24  C   UNL     1       0.830  13.643  18.959  0.00  0.00    +0.000 A 
ATOM     25  C   UNL     1       1.499  14.766  18.466  0.00  0.00    +0.000 A 
BRANCH  20  27
ATOM     26  C   UNL     1       2.799  17.028  17.278  0.00  0.00    +0.000 C 
ATOM     27  C   UNL     1       3.373  16.508  18.601  0.00  0.00    +0.000 C 
BRANCH  27  28
ATOM     28  N   UNL     1       4.763  16.076  18.473  0.00  0.00    +0.000 N 
ATOM     29  C   UNL     1       5.855  16.819  18.866  0.00  0.00    +0.000 C 
ATOM     30  O   UNL     1       5.751  17.948  19.345  0.00  0.00    +0.000 OA
ATOM     31  H   UNL     1       4.911  15.115  18.195  0.00  0.00    +0.000 HD
BRANCH  29  32
ATOM     32  C   UNL     1       7.213  16.089  18.633  0.00  0.00    +0.000 C 
ATOM     33  C   UNL     1       8.096  15.843  19.874  0.00  0.00    +0.000 C 
ATOM     34  C   UNL     1       7.823  14.334  19.773  0.00  0.00    +0.000 C 
ATOM     35  F   UNL     1       8.922  13.544  19.772  0.00  0.00    +0.000 F 
ATOM     36  C   UNL     1       7.175  14.564  18.398  0.00  0.00    +0.000 C 
ENDBRANCH  29  32
ENDBRANCH  27  28
ENDBRANCH  20  27
ENDBRANCH   1  23
TORSDOF 8
ENDMDL
