MODEL 1
REMARK VINA RESULT:      -5.2      0.000      0.000
REMARK  Name = 
REMARK  5 active torsions:
REMARK  status: ('A' for Active; 'I' for Inactive)
REMARK    1  A    between atoms: C_1  and  N_2
REMARK    2  A    between atoms: N_2  and  C_3
REMARK    3  A    between atoms: N_2  and  C_4
REMARK    4  A    between atoms: N_2  and  C_5
REMARK    5  A    between atoms: C_9  and  N_10
REMARK                            x       y       z     vdW  Elec       q    Type
REMARK                         _______ _______ _______ _____ _____    ______ ____
ROOT
ATOM      1  C   UNL     1       5.193   5.658  18.296  0.00  0.00    +0.000 A 
ATOM      2  C   UNL     1       5.615   6.603  17.323  0.00  0.00    +0.000 A 
ATOM      3  C   UNL     1       6.913   7.114  17.318  0.00  0.00    +0.000 A 
ATOM      4  C   UNL     1       7.831   6.708  18.280  0.00  0.00    +0.000 A 
ATOM      5  C   UNL     1       7.462   5.774  19.252  0.00  0.00    +0.000 A 
ATOM      6  C   UNL     1       6.159   5.252  19.259  0.00  0.00    +0.000 A 
ENDROOT
BRANCH   1   8
ATOM      7  C   UNL     1       3.506   4.169  17.293  0.00  0.00    +0.000 C 
ATOM      8  N   UNL     1       3.804   5.194  18.310  0.00  0.00    +0.000 NA
ATOM      9  C   UNL     1       3.577   4.583  19.632  0.00  0.00    +0.000 C 
ATOM     10  C   UNL     1       2.862   6.335  18.142  0.00  0.00    +0.000 C 
ENDBRANCH   1   8
BRANCH   5  11
ATOM     11  N   UNL     1       8.398   5.371  20.237  0.00  0.00    +0.000 N 
ATOM     12  H   UNL     1       8.127   4.711  20.980  0.00  0.00    +0.000 HD
ATOM     13  H   UNL     1       9.369   5.717  20.215  0.00  0.00    +0.000 HD
ENDBRANCH   5  11
TORSDOF 2
ENDMDL
MODEL 2
REMARK VINA RESULT:      -5.2      0.091      1.260
REMARK  Name = 
REMARK  5 active torsions:
REMARK  status: ('A' for Active; 'I' for Inactive)
REMARK    1  A    between atoms: C_1  and  N_2
REMARK    2  A    between atoms: N_2  and  C_3
REMARK    3  A    between atoms: N_2  and  C_4
REMARK    4  A    between atoms: N_2  and  C_5
REMARK    5  A    between atoms: C_9  and  N_10
REMARK                            x       y       z     vdW  Elec       q    Type
REMARK                         _______ _______ _______ _____ _____    ______ ____
ROOT
ATOM      1  C   UNL     1       5.180   5.622  18.317  0.00  0.00    +0.000 A 
ATOM      2  C   UNL     1       5.579   6.570  17.337  0.00  0.00    +0.000 A 
ATOM      3  C   UNL     1       6.870   7.098  17.317  0.00  0.00    +0.000 A 
ATOM      4  C   UNL     1       7.804   6.706  18.269  0.00  0.00    +0.000 A 
ATOM      5  C   UNL     1       7.458   5.769  19.247  0.00  0.00    +0.000 A 
ATOM      6  C   UNL     1       6.161   5.229  19.269  0.00  0.00    +0.000 A 
ENDROOT
BRANCH   1   8
ATOM      7  C   UNL     1       2.792   6.197  18.139  0.00  0.00    +0.000 C 
ATOM      8  N   UNL     1       3.798   5.140  18.347  0.00  0.00    +0.000 NA
ATOM      9  C   UNL     1       3.663   4.178  17.239  0.00  0.00    +0.000 C 
ATOM     10  C   UNL     1       3.509   4.438  19.628  0.00  0.00    +0.000 C 
ENDBRANCH   1   8
BRANCH   5  11
ATOM     11  N   UNL     1       8.410   5.379  20.221  0.00  0.00    +0.000 N 
ATOM     12  H   UNL     1       8.849   4.448  20.184  0.00  0.00    +0.000 HD
ATOM     13  H   UNL     1       8.692   6.026  20.972  0.00  0.00    +0.000 HD
ENDBRANCH   5  11
TORSDOF 2
ENDMDL
MODEL 3
REMARK VINA RESULT:      -5.1      2.083      4.523
REMARK  Name = 
REMARK  5 active torsions:
REMARK  status: ('A' for Active; 'I' for Inactive)
REMARK    1  A    between atoms: C_1  and  N_2
REMARK    2  A    between atoms: N_2  and  C_3
REMARK    3  A    between atoms: N_2  and  C_4
REMARK    4  A    between atoms: N_2  and  C_5
REMARK    5  A    between atoms: C_9  and  N_10
REMARK                            x       y       z     vdW  Elec       q    Type
REMARK                         _______ _______ _______ _____ _____    ______ ____
ROOT
ATOM      1  C   UNL     1       3.738   4.586  17.726  0.00  0.00    +0.000 A 
ATOM      2  C   UNL     1       2.331   4.760  17.817  0.00  0.00    +0.000 A 
ATOM      3  C   UNL     1       1.477   3.683  18.063  0.00  0.00    +0.000 A 
ATOM      4  C   UNL     1       1.992   2.401  18.221  0.00  0.00    +0.000 A 
ATOM      5  C   UNL     1       3.371   2.184  18.148  0.00  0.00    +0.000 A 
ATOM      6  C   UNL     1       4.236   3.265  17.907  0.00  0.00    +0.000 A 
ENDROOT
BRANCH   1   8
ATOM      7  C   UNL     1       3.926   7.033  17.529  0.00  0.00    +0.000 C 
ATOM      8  N   UNL     1       4.596   5.727  17.402  0.00  0.00    +0.000 NA
ATOM      9  C   UNL     1       5.709   5.705  18.367  0.00  0.00    +0.000 C 
ATOM     10  C   UNL     1       5.153   5.597  16.027  0.00  0.00    +0.000 C 
ENDBRANCH   1   8
BRANCH   5  11
ATOM     11  N   UNL     1       3.890   0.875  18.300  0.00  0.00    +0.000 N 
ATOM     12  H   UNL     1       4.820   0.632  17.930  0.00  0.00    +0.000 HD
ATOM     13  H   UNL     1       3.354   0.150  18.799  0.00  0.00    +0.000 HD
ENDBRANCH   5  11
TORSDOF 2
ENDMDL
MODEL 4
REMARK VINA RESULT:      -5.1      2.037      4.502
REMARK  Name = 
REMARK  5 active torsions:
REMARK  status: ('A' for Active; 'I' for Inactive)
REMARK    1  A    between atoms: C_1  and  N_2
REMARK    2  A    between atoms: N_2  and  C_3
REMARK    3  A    between atoms: N_2  and  C_4
REMARK    4  A    between atoms: N_2  and  C_5
REMARK    5  A    between atoms: C_9  and  N_10
REMARK                            x       y       z     vdW  Elec       q    Type
REMARK                         _______ _______ _______ _____ _____    ______ ____
ROOT
ATOM      1  C   UNL     1       3.787   4.589  17.717  0.00  0.00    +0.000 A 
ATOM      2  C   UNL     1       2.382   4.784  17.799  0.00  0.00    +0.000 A 
ATOM      3  C   UNL     1       1.511   3.722  18.042  0.00  0.00    +0.000 A 
ATOM      4  C   UNL     1       2.006   2.432  18.207  0.00  0.00    +0.000 A 
ATOM      5  C   UNL     1       3.381   2.195  18.142  0.00  0.00    +0.000 A 
ATOM      6  C   UNL     1       4.264   3.262  17.903  0.00  0.00    +0.000 A 
ENDROOT
BRANCH   1   8
ATOM      7  C   UNL     1       5.133   5.729  15.998  0.00  0.00    +0.000 C 
ATOM      8  N   UNL     1       4.663   5.717  17.395  0.00  0.00    +0.000 NA
ATOM      9  C   UNL     1       3.870   6.940  17.604  0.00  0.00    +0.000 C 
ATOM     10  C   UNL     1       5.842   5.749  18.305  0.00  0.00    +0.000 C 
ENDBRANCH   1   8
BRANCH   5  11
ATOM     11  N   UNL     1       3.880   0.878  18.301  0.00  0.00    +0.000 N 
ATOM     12  H   UNL     1       3.493   0.100  17.749  0.00  0.00    +0.000 HD
ATOM     13  H   UNL     1       4.649   0.681  18.958  0.00  0.00    +0.000 HD
ENDBRANCH   5  11
TORSDOF 2
ENDMDL
MODEL 5
REMARK VINA RESULT:      -5.1      2.235      4.873
REMARK  Name = 
REMARK  5 active torsions:
REMARK  status: ('A' for Active; 'I' for Inactive)
REMARK    1  A    between atoms: C_1  and  N_2
REMARK    2  A    between atoms: N_2  and  C_3
REMARK    3  A    between atoms: N_2  and  C_4
REMARK    4  A    between atoms: N_2  and  C_5
REMARK    5  A    between atoms: C_9  and  N_10
REMARK                            x       y       z     vdW  Elec       q    Type
REMARK                         _______ _______ _______ _____ _____    ______ ____
ROOT
ATOM      1  C   UNL     1       3.147   4.285  18.745  0.00  0.00    +0.000 A 
ATOM      2  C   UNL     1       2.051   3.819  17.970  0.00  0.00    +0.000 A 
ATOM      3  C   UNL     1       0.997   3.112  18.550  0.00  0.00    +0.000 A 
ATOM      4  C   UNL     1       1.000   2.841  19.914  0.00  0.00    +0.000 A 
ATOM      5  C   UNL     1       2.054   3.287  20.716  0.00  0.00    +0.000 A 
ATOM      6  C   UNL     1       3.115   4.004  20.139  0.00  0.00    +0.000 A 
ENDROOT
BRANCH   1   8
ATOM      7  C   UNL     1       3.951   6.330  17.632  0.00  0.00    +0.000 C 
ATOM      8  N   UNL     1       4.267   4.965  18.091  0.00  0.00    +0.000 NA
ATOM      9  C   UNL     1       5.339   5.074  19.095  0.00  0.00    +0.000 C 
ATOM     10  C   UNL     1       4.771   4.169  16.938  0.00  0.00    +0.000 C 
ENDBRANCH   1   8
BRANCH   5  11
ATOM     11  N   UNL     1       2.057   3.000  22.104  0.00  0.00    +0.000 N 
ATOM     12  H   UNL     1       2.937   2.780  22.592  0.00  0.00    +0.000 HD
ATOM     13  H   UNL     1       1.184   3.024  22.649  0.00  0.00    +0.000 HD
ENDBRANCH   5  11
TORSDOF 2
ENDMDL
MODEL 6
REMARK VINA RESULT:      -5.1      2.034      4.511
REMARK  Name = 
REMARK  5 active torsions:
REMARK  status: ('A' for Active; 'I' for Inactive)
REMARK    1  A    between atoms: C_1  and  N_2
REMARK    2  A    between atoms: N_2  and  C_3
REMARK    3  A    between atoms: N_2  and  C_4
REMARK    4  A    between atoms: N_2  and  C_5
REMARK    5  A    between atoms: C_9  and  N_10
REMARK                            x       y       z     vdW  Elec       q    Type
REMARK                         _______ _______ _______ _____ _____    ______ ____
ROOT
ATOM      1  C   UNL     1       3.811   4.593  17.729  0.00  0.00    +0.000 A 
ATOM      2  C   UNL     1       2.406   4.795  17.797  0.00  0.00    +0.000 A 
ATOM      3  C   UNL     1       1.528   3.736  18.028  0.00  0.00    +0.000 A 
ATOM      4  C   UNL     1       2.014   2.444  18.194  0.00  0.00    +0.000 A 
ATOM      5  C   UNL     1       3.389   2.200  18.143  0.00  0.00    +0.000 A 
ATOM      6  C   UNL     1       4.279   3.263  17.917  0.00  0.00    +0.000 A 
ENDROOT
BRANCH   1   8
ATOM      7  C   UNL     1       5.900   5.781  18.267  0.00  0.00    +0.000 C 
ATOM      8  N   UNL     1       4.696   5.718  17.419  0.00  0.00    +0.000 NA
ATOM      9  C   UNL     1       5.145   5.530  16.029  0.00  0.00    +0.000 C 
ATOM     10  C   UNL     1       3.964   7.011  17.515  0.00  0.00    +0.000 C 
ENDBRANCH   1   8
BRANCH   5  11
ATOM     11  N   UNL     1       3.880   0.880  18.303  0.00  0.00    +0.000 N 
ATOM     12  H   UNL     1       3.578   0.127  17.669  0.00  0.00    +0.000 HD
ATOM     13  H   UNL     1       4.560   0.657  19.045  0.00  0.00    +0.000 HD
ENDBRANCH   5  11
TORSDOF 2
ENDMDL
MODEL 7
REMARK VINA RESULT:      -5.1      2.232      4.862
REMARK  Name = 
REMARK  5 active torsions:
REMARK  status: ('A' for Active; 'I' for Inactive)
REMARK    1  A    between atoms: C_1  and  N_2
REMARK    2  A    between atoms: N_2  and  C_3
REMARK    3  A    between atoms: N_2  and  C_4
REMARK    4  A    between atoms: N_2  and  C_5
REMARK    5  A    between atoms: C_9  and  N_10
REMARK                            x       y       z     vdW  Elec       q    Type
REMARK                         _______ _______ _______ _____ _____    ______ ____
ROOT
ATOM      1  C   UNL     1       3.216   4.230  18.751  0.00  0.00    +0.000 A 
ATOM      2  C   UNL     1       2.105   3.829  17.961  0.00  0.00    +0.000 A 
ATOM      3  C   UNL     1       1.010   3.172  18.523  0.00  0.00    +0.000 A 
ATOM      4  C   UNL     1       0.984   2.890  19.884  0.00  0.00    +0.000 A 
ATOM      5  C   UNL     1       2.050   3.274  20.702  0.00  0.00    +0.000 A 
ATOM      6  C   UNL     1       3.153   3.940  20.142  0.00  0.00    +0.000 A 
ENDROOT
BRANCH   1   8
ATOM      7  C   UNL     1       4.891   4.118  16.949  0.00  0.00    +0.000 C 
ATOM      8  N   UNL     1       4.376   4.857  18.115  0.00  0.00    +0.000 NA
ATOM      9  C   UNL     1       3.933   6.180  17.640  0.00  0.00    +0.000 C 
ATOM     10  C   UNL     1       5.480   5.048  19.097  0.00  0.00    +0.000 C 
ENDBRANCH   1   8
BRANCH   5  11
ATOM     11  N   UNL     1       2.023   2.976  22.086  0.00  0.00    +0.000 N 
ATOM     12  H   UNL     1       1.408   2.235  22.452  0.00  0.00    +0.000 HD
ATOM     13  H   UNL     1       2.632   3.482  22.747  0.00  0.00    +0.000 HD
ENDBRANCH   5  11
TORSDOF 2
ENDMDL
MODEL 8
REMARK VINA RESULT:      -5.0      2.229      4.874
REMARK  Name = 
REMARK  5 active torsions:
REMARK  status: ('A' for Active; 'I' for Inactive)
REMARK    1  A    between atoms: C_1  and  N_2
REMARK    2  A    between atoms: N_2  and  C_3
REMARK    3  A    between atoms: N_2  and  C_4
REMARK    4  A    between atoms: N_2  and  C_5
REMARK    5  A    between atoms: C_9  and  N_10
REMARK                            x       y       z     vdW  Elec       q    Type
REMARK                         _______ _______ _______ _____ _____    ______ ____
ROOT
ATOM      1  C   UNL     1       3.161   4.309  18.792  0.00  0.00    +0.000 A 
ATOM      2  C   UNL     1       2.095   3.853  17.970  0.00  0.00    +0.000 A 
ATOM      3  C   UNL     1       1.031   3.121  18.496  0.00  0.00    +0.000 A 
ATOM      4  C   UNL     1       0.991   2.815  19.852  0.00  0.00    +0.000 A 
ATOM      5  C   UNL     1       2.014   3.250  20.700  0.00  0.00    +0.000 A 
ATOM      6  C   UNL     1       3.085   3.993  20.177  0.00  0.00    +0.000 A 
ENDROOT
BRANCH   1   8
ATOM      7  C   UNL     1       5.443   5.181  19.100  0.00  0.00    +0.000 C 
ATOM      8  N   UNL     1       4.294   5.017  18.193  0.00  0.00    +0.000 NA
ATOM      9  C   UNL     1       4.745   4.202  17.051  0.00  0.00    +0.000 C 
ATOM     10  C   UNL     1       3.876   6.355  17.689  0.00  0.00    +0.000 C 
ENDBRANCH   1   8
BRANCH   5  11
ATOM     11  N   UNL     1       1.974   2.928  22.079  0.00  0.00    +0.000 N 
ATOM     12  H   UNL     1       1.867   1.951  22.387  0.00  0.00    +0.000 HD
ATOM     13  H   UNL     1       2.070   3.663  22.795  0.00  0.00    +0.000 HD
ENDBRANCH   5  11
TORSDOF 2
ENDMDL
MODEL 9
REMARK VINA RESULT:      -5.0      2.238      4.629
REMARK  Name = 
REMARK  5 active torsions:
REMARK  status: ('A' for Active; 'I' for Inactive)
REMARK    1  A    between atoms: C_1  and  N_2
REMARK    2  A    between atoms: N_2  and  C_3
REMARK    3  A    between atoms: N_2  and  C_4
REMARK    4  A    between atoms: N_2  and  C_5
REMARK    5  A    between atoms: C_9  and  N_10
REMARK                            x       y       z     vdW  Elec       q    Type
REMARK                         _______ _______ _______ _____ _____    ______ ____
ROOT
ATOM      1  C   UNL     1       4.363   4.485  17.268  0.00  0.00    +0.000 A 
ATOM      2  C   UNL     1       3.504   5.564  17.609  0.00  0.00    +0.000 A 
ATOM      3  C   UNL     1       2.222   5.345  18.113  0.00  0.00    +0.000 A 
ATOM      4  C   UNL     1       1.750   4.048  18.291  0.00  0.00    +0.000 A 
ATOM      5  C   UNL     1       2.563   2.956  17.976  0.00  0.00    +0.000 A 
ATOM      6  C   UNL     1       3.857   3.171  17.473  0.00  0.00    +0.000 A 
ENDROOT
BRANCH   1   8
ATOM      7  C   UNL     1       6.027   3.857  15.564  0.00  0.00    +0.000 C 
ATOM      8  N   UNL     1       5.676   4.754  16.680  0.00  0.00    +0.000 NA
ATOM      9  C   UNL     1       5.625   6.126  16.144  0.00  0.00    +0.000 C 
ATOM     10  C   UNL     1       6.745   4.685  17.715  0.00  0.00    +0.000 C 
ENDBRANCH   1   8
BRANCH   5  11
ATOM     11  N   UNL     1       2.074   1.638  18.149  0.00  0.00    +0.000 N 
ATOM     12  H   UNL     1       2.415   0.869  17.554  0.00  0.00    +0.000 HD
ATOM     13  H   UNL     1       1.384   1.423  18.883  0.00  0.00    +0.000 HD
ENDBRANCH   5  11
TORSDOF 2
ENDMDL
