MODEL 1
REMARK VINA RESULT:      -7.1      0.000      0.000
REMARK  Name = 
REMARK  5 active torsions:
REMARK  status: ('A' for Active; 'I' for Inactive)
REMARK    1  A    between atoms: C_1  and  C_2
REMARK    2  A    between atoms: C_9  and  C_10
REMARK    3  A    between atoms: C_17  and  C_18
REMARK    4  A    between atoms: C_19  and  C_20
REMARK    5  A    between atoms: C_24  and  C_25
REMARK                            x       y       z     vdW  Elec       q    Type
REMARK                         _______ _______ _______ _____ _____    ______ ____
ROOT
ATOM      1  C   UNL     1       2.202  11.278  17.869  0.00  0.00    +0.000 C 
ATOM      2  C   UNL     1       2.271   9.807  18.210  0.00  0.00    +0.000 A 
ATOM      3  C   UNL     1       3.161   9.051  17.446  0.00  0.00    +0.000 A 
ATOM      4  C   UNL     1       3.313   7.687  17.664  0.00  0.00    +0.000 A 
ATOM      5  O   UNL     1       4.212   7.060  16.779  0.00  0.00    +0.000 OA
ATOM      6  C   UNL     1       4.466   5.709  16.842  0.00  0.00    +0.000 A 
ATOM      7  O   UNL     1       5.237   5.143  16.077  0.00  0.00    +0.000 OA
ATOM      8  C   UNL     1       3.755   4.966  17.881  0.00  0.00    +0.000 A 
ATOM      9  C   UNL     1       2.897   5.532  18.748  0.00  0.00    +0.000 A 
ATOM     10  C   UNL     1       2.638   7.004  18.678  0.00  0.00    +0.000 A 
ATOM     11  C   UNL     1       1.778   7.780  19.526  0.00  0.00    +0.000 A 
ATOM     12  C   UNL     1       1.137   7.149  20.746  0.00  0.00    +0.000 C 
ATOM     13  C   UNL     1       1.522   9.181  19.247  0.00  0.00    +0.000 A 
ENDROOT
BRANCH   9  14
ATOM     14  C   UNL     1       2.293   4.548  19.668  0.00  0.00    +0.000 A 
ATOM     15  C   UNL     1       1.206   3.764  19.253  0.00  0.00    +0.000 A 
ATOM     16  C   UNL     1       0.680   2.789  20.095  0.00  0.00    +0.000 A 
ATOM     17  C   UNL     1       1.211   2.607  21.369  0.00  0.00    +0.000 A 
ATOM     18  C   UNL     1       2.260   3.417  21.812  0.00  0.00    +0.000 A 
ATOM     19  C   UNL     1       2.798   4.388  20.967  0.00  0.00    +0.000 A 
ENDBRANCH   9  14
BRANCH  13  20
ATOM     20  C   UNL     1       0.492   9.949  20.031  0.00  0.00    +0.000 A 
ATOM     21  S   UNL     1       0.734  10.203  21.729  0.00  0.00    +0.000 S 
ATOM     22  C   UNL     1      -0.665  11.155  21.892  0.00  0.00    +0.000 A 
ATOM     23  C   UNL     1      -1.414  11.139  20.744  0.00  0.00    +0.000 A 
ATOM     24  C   UNL     1      -0.751  10.477  19.656  0.00  0.00    +0.000 A 
BRANCH  24  25
ATOM     25  C   UNL     1      -1.349  10.374  18.332  0.00  0.00    +0.000 C 
ATOM     26  O   UNL     1      -2.337   9.684  18.099  0.00  0.00    +0.000 OA
ENDBRANCH  24  25
ENDBRANCH  13  20
TORSDOF 3
ENDMDL
MODEL 2
REMARK VINA RESULT:      -7.1      5.265      8.033
REMARK  Name = 
REMARK  5 active torsions:
REMARK  status: ('A' for Active; 'I' for Inactive)
REMARK    1  A    between atoms: C_1  and  C_2
REMARK    2  A    between atoms: C_9  and  C_10
REMARK    3  A    between atoms: C_17  and  C_18
REMARK    4  A    between atoms: C_19  and  C_20
REMARK    5  A    between atoms: C_24  and  C_25
REMARK                            x       y       z     vdW  Elec       q    Type
REMARK                         _______ _______ _______ _____ _____    ______ ____
ROOT
ATOM      1  C   UNL     1      -7.791  13.239  18.232  0.00  0.00    +0.000 C 
ATOM      2  C   UNL     1      -6.371  12.726  18.299  0.00  0.00    +0.000 A 
ATOM      3  C   UNL     1      -5.878  12.159  17.123  0.00  0.00    +0.000 A 
ATOM      4  C   UNL     1      -4.586  11.649  17.060  0.00  0.00    +0.000 A 
ATOM      5  O   UNL     1      -4.258  11.068  15.820  0.00  0.00    +0.000 OA
ATOM      6  C   UNL     1      -3.026  10.499  15.590  0.00  0.00    +0.000 A 
ATOM      7  O   UNL     1      -2.722   9.981  14.523  0.00  0.00    +0.000 OA
ATOM      8  C   UNL     1      -2.079  10.539  16.704  0.00  0.00    +0.000 A 
ATOM      9  C   UNL     1      -2.355  11.093  17.898  0.00  0.00    +0.000 A 
ATOM     10  C   UNL     1      -3.694  11.719  18.132  0.00  0.00    +0.000 A 
ATOM     11  C   UNL     1      -4.155  12.372  19.324  0.00  0.00    +0.000 A 
ATOM     12  C   UNL     1      -3.199  12.633  20.471  0.00  0.00    +0.000 C 
ATOM     13  C   UNL     1      -5.534  12.810  19.448  0.00  0.00    +0.000 A 
ENDROOT
BRANCH   9  14
ATOM     14  C   UNL     1      -1.235  10.964  18.852  0.00  0.00    +0.000 A 
ATOM     15  C   UNL     1      -0.239  11.951  18.914  0.00  0.00    +0.000 A 
ATOM     16  C   UNL     1       0.778  11.865  19.859  0.00  0.00    +0.000 A 
ATOM     17  C   UNL     1       0.832  10.779  20.729  0.00  0.00    +0.000 A 
ATOM     18  C   UNL     1      -0.124   9.765  20.641  0.00  0.00    +0.000 A 
ATOM     19  C   UNL     1      -1.153   9.852  19.703  0.00  0.00    +0.000 A 
ENDBRANCH   9  14
BRANCH  13  20
ATOM     20  C   UNL     1      -6.062  13.337  20.755  0.00  0.00    +0.000 A 
ATOM     21  S   UNL     1      -5.427  14.820  21.390  0.00  0.00    +0.000 S 
ATOM     22  C   UNL     1      -6.489  14.828  22.717  0.00  0.00    +0.000 A 
ATOM     23  C   UNL     1      -7.187  13.651  22.802  0.00  0.00    +0.000 A 
ATOM     24  C   UNL     1      -6.978  12.797  21.667  0.00  0.00    +0.000 A 
BRANCH  24  25
ATOM     25  C   UNL     1      -7.649  11.512  21.531  0.00  0.00    +0.000 C 
ATOM     26  O   UNL     1      -7.077  10.499  21.138  0.00  0.00    +0.000 OA
ENDBRANCH  24  25
ENDBRANCH  13  20
TORSDOF 3
ENDMDL
MODEL 3
REMARK VINA RESULT:      -6.9      5.156      7.953
REMARK  Name = 
REMARK  5 active torsions:
REMARK  status: ('A' for Active; 'I' for Inactive)
REMARK    1  A    between atoms: C_1  and  C_2
REMARK    2  A    between atoms: C_9  and  C_10
REMARK    3  A    between atoms: C_17  and  C_18
REMARK    4  A    between atoms: C_19  and  C_20
REMARK    5  A    between atoms: C_24  and  C_25
REMARK                            x       y       z     vdW  Elec       q    Type
REMARK                         _______ _______ _______ _____ _____    ______ ____
ROOT
ATOM      1  C   UNL     1      -7.661  13.114  18.339  0.00  0.00    +0.000 C 
ATOM      2  C   UNL     1      -6.237  12.609  18.379  0.00  0.00    +0.000 A 
ATOM      3  C   UNL     1      -5.770  12.028  17.199  0.00  0.00    +0.000 A 
ATOM      4  C   UNL     1      -4.477  11.526  17.111  0.00  0.00    +0.000 A 
ATOM      5  O   UNL     1      -4.176  10.928  15.872  0.00  0.00    +0.000 OA
ATOM      6  C   UNL     1      -2.946  10.363  15.620  0.00  0.00    +0.000 A 
ATOM      7  O   UNL     1      -2.666   9.831  14.553  0.00  0.00    +0.000 OA
ATOM      8  C   UNL     1      -1.972  10.425  16.709  0.00  0.00    +0.000 A 
ATOM      9  C   UNL     1      -2.222  10.995  17.901  0.00  0.00    +0.000 A 
ATOM     10  C   UNL     1      -3.559  11.616  18.159  0.00  0.00    +0.000 A 
ATOM     11  C   UNL     1      -3.995  12.283  19.353  0.00  0.00    +0.000 A 
ATOM     12  C   UNL     1      -3.012  12.566  20.472  0.00  0.00    +0.000 C 
ATOM     13  C   UNL     1      -5.372  12.716  19.506  0.00  0.00    +0.000 A 
ENDROOT
BRANCH   9  14
ATOM     14  C   UNL     1      -1.078  10.886  18.829  0.00  0.00    +0.000 A 
ATOM     15  C   UNL     1      -0.106  11.897  18.877  0.00  0.00    +0.000 A 
ATOM     16  C   UNL     1       0.934  11.828  19.799  0.00  0.00    +0.000 A 
ATOM     17  C   UNL     1       1.034  10.737  20.658  0.00  0.00    +0.000 A 
ATOM     18  C   UNL     1       0.102   9.700  20.583  0.00  0.00    +0.000 A 
ATOM     19  C   UNL     1      -0.950   9.770  19.669  0.00  0.00    +0.000 A 
ENDBRANCH   9  14
BRANCH  13  20
ATOM     20  C   UNL     1      -5.871  13.258  20.818  0.00  0.00    +0.000 A 
ATOM     21  S   UNL     1      -6.820  12.240  21.850  0.00  0.00    +0.000 S 
ATOM     22  C   UNL     1      -6.917  13.404  23.084  0.00  0.00    +0.000 A 
ATOM     23  C   UNL     1      -6.411  14.609  22.671  0.00  0.00    +0.000 A 
ATOM     24  C   UNL     1      -5.779  14.536  21.384  0.00  0.00    +0.000 A 
BRANCH  24  25
ATOM     25  C   UNL     1      -5.142  15.691  20.767  0.00  0.00    +0.000 C 
ATOM     26  O   UNL     1      -4.102  16.186  21.194  0.00  0.00    +0.000 OA
ENDBRANCH  24  25
ENDBRANCH  13  20
TORSDOF 3
ENDMDL
MODEL 4
REMARK VINA RESULT:      -6.7      1.517      2.035
REMARK  Name = 
REMARK  5 active torsions:
REMARK  status: ('A' for Active; 'I' for Inactive)
REMARK    1  A    between atoms: C_1  and  C_2
REMARK    2  A    between atoms: C_9  and  C_10
REMARK    3  A    between atoms: C_17  and  C_18
REMARK    4  A    between atoms: C_19  and  C_20
REMARK    5  A    between atoms: C_24  and  C_25
REMARK                            x       y       z     vdW  Elec       q    Type
REMARK                         _______ _______ _______ _____ _____    ______ ____
ROOT
ATOM      1  C   UNL     1       2.218  11.175  17.894  0.00  0.00    +0.000 C 
ATOM      2  C   UNL     1       2.298   9.699  18.213  0.00  0.00    +0.000 A 
ATOM      3  C   UNL     1       3.200   8.964  17.442  0.00  0.00    +0.000 A 
ATOM      4  C   UNL     1       3.363   7.598  17.639  0.00  0.00    +0.000 A 
ATOM      5  O   UNL     1       4.272   6.993  16.749  0.00  0.00    +0.000 OA
ATOM      6  C   UNL     1       4.539   5.644  16.793  0.00  0.00    +0.000 A 
ATOM      7  O   UNL     1       5.319   5.096  16.024  0.00  0.00    +0.000 OA
ATOM      8  C   UNL     1       3.829   4.878  17.817  0.00  0.00    +0.000 A 
ATOM      9  C   UNL     1       2.962   5.423  18.688  0.00  0.00    +0.000 A 
ATOM     10  C   UNL     1       2.689   6.893  18.639  0.00  0.00    +0.000 A 
ATOM     11  C   UNL     1       1.818   7.648  19.495  0.00  0.00    +0.000 A 
ATOM     12  C   UNL     1       1.177   6.992  20.702  0.00  0.00    +0.000 C 
ATOM     13  C   UNL     1       1.550   9.051  19.236  0.00  0.00    +0.000 A 
ENDROOT
BRANCH   9  14
ATOM     14  C   UNL     1       2.362   4.418  19.590  0.00  0.00    +0.000 A 
ATOM     15  C   UNL     1       2.878   4.227  20.881  0.00  0.00    +0.000 A 
ATOM     16  C   UNL     1       2.271   3.331  21.755  0.00  0.00    +0.000 A 
ATOM     17  C   UNL     1       1.165   2.592  21.340  0.00  0.00    +0.000 A 
ATOM     18  C   UNL     1       0.676   2.737  20.040  0.00  0.00    +0.000 A 
ATOM     19  C   UNL     1       1.274   3.643  19.164  0.00  0.00    +0.000 A 
ENDBRANCH   9  14
BRANCH  13  20
ATOM     20  C   UNL     1       0.508   9.797  20.026  0.00  0.00    +0.000 A 
ATOM     21  S   UNL     1      -0.792  10.579  19.189  0.00  0.00    +0.000 S 
ATOM     22  C   UNL     1      -1.556  11.076  20.624  0.00  0.00    +0.000 A 
ATOM     23  C   UNL     1      -0.767  10.830  21.717  0.00  0.00    +0.000 A 
ATOM     24  C   UNL     1       0.408  10.069  21.397  0.00  0.00    +0.000 A 
BRANCH  24  25
ATOM     25  C   UNL     1       1.369   9.664  22.413  0.00  0.00    +0.000 C 
ATOM     26  O   UNL     1       1.083   9.577  23.604  0.00  0.00    +0.000 OA
ENDBRANCH  24  25
ENDBRANCH  13  20
TORSDOF 3
ENDMDL
MODEL 5
REMARK VINA RESULT:      -6.5      5.716      8.246
REMARK  Name = 
REMARK  5 active torsions:
REMARK  status: ('A' for Active; 'I' for Inactive)
REMARK    1  A    between atoms: C_1  and  C_2
REMARK    2  A    between atoms: C_9  and  C_10
REMARK    3  A    between atoms: C_17  and  C_18
REMARK    4  A    between atoms: C_19  and  C_20
REMARK    5  A    between atoms: C_24  and  C_25
REMARK                            x       y       z     vdW  Elec       q    Type
REMARK                         _______ _______ _______ _____ _____    ______ ____
ROOT
ATOM      1  C   UNL     1       1.220  11.834  19.753  0.00  0.00    +0.000 C 
ATOM      2  C   UNL     1      -0.224  11.836  19.307  0.00  0.00    +0.000 A 
ATOM      3  C   UNL     1      -0.513  11.042  18.196  0.00  0.00    +0.000 A 
ATOM      4  C   UNL     1      -1.805  10.963  17.690  0.00  0.00    +0.000 A 
ATOM      5  O   UNL     1      -1.923  10.160  16.538  0.00  0.00    +0.000 OA
ATOM      6  C   UNL     1      -3.128   9.987  15.896  0.00  0.00    +0.000 A 
ATOM      7  O   UNL     1      -3.251   9.301  14.889  0.00  0.00    +0.000 OA
ATOM      8  C   UNL     1      -4.276  10.677  16.481  0.00  0.00    +0.000 A 
ATOM      9  C   UNL     1      -4.203  11.444  17.584  0.00  0.00    +0.000 A 
ATOM     10  C   UNL     1      -2.889  11.616  18.280  0.00  0.00    +0.000 A 
ATOM     11  C   UNL     1      -2.626  12.372  19.471  0.00  0.00    +0.000 A 
ATOM     12  C   UNL     1      -3.770  12.975  20.262  0.00  0.00    +0.000 C 
ATOM     13  C   UNL     1      -1.269  12.558  19.952  0.00  0.00    +0.000 A 
ENDROOT
BRANCH   9  14
ATOM     14  C   UNL     1      -5.503  12.050  17.936  0.00  0.00    +0.000 A 
ATOM     15  C   UNL     1      -6.307  11.474  18.931  0.00  0.00    +0.000 A 
ATOM     16  C   UNL     1      -7.499  12.083  19.312  0.00  0.00    +0.000 A 
ATOM     17  C   UNL     1      -7.916  13.253  18.682  0.00  0.00    +0.000 A 
ATOM     18  C   UNL     1      -7.149  13.807  17.655  0.00  0.00    +0.000 A 
ATOM     19  C   UNL     1      -5.947  13.206  17.278  0.00  0.00    +0.000 A 
ENDBRANCH   9  14
BRANCH  13  20
ATOM     20  C   UNL     1      -0.976  13.488  21.098  0.00  0.00    +0.000 A 
ATOM     21  S   UNL     1      -0.454  15.107  20.762  0.00  0.00    +0.000 S 
ATOM     22  C   UNL     1      -0.426  15.549  22.404  0.00  0.00    +0.000 A 
ATOM     23  C   UNL     1      -0.621  14.461  23.215  0.00  0.00    +0.000 A 
ATOM     24  C   UNL     1      -0.969  13.276  22.482  0.00  0.00    +0.000 A 
BRANCH  24  25
ATOM     25  C   UNL     1      -1.255  12.012  23.146  0.00  0.00    +0.000 C 
ATOM     26  O   UNL     1      -2.372  11.500  23.152  0.00  0.00    +0.000 OA
ENDBRANCH  24  25
ENDBRANCH  13  20
TORSDOF 3
ENDMDL
MODEL 6
REMARK VINA RESULT:      -6.5      9.492     12.080
REMARK  Name = 
REMARK  5 active torsions:
REMARK  status: ('A' for Active; 'I' for Inactive)
REMARK    1  A    between atoms: C_1  and  C_2
REMARK    2  A    between atoms: C_9  and  C_10
REMARK    3  A    between atoms: C_17  and  C_18
REMARK    4  A    between atoms: C_19  and  C_20
REMARK    5  A    between atoms: C_24  and  C_25
REMARK                            x       y       z     vdW  Elec       q    Type
REMARK                         _______ _______ _______ _____ _____    ______ ____
ROOT
ATOM      1  C   UNL     1       9.927  10.862  19.180  0.00  0.00    +0.000 C 
ATOM      2  C   UNL     1       9.606  11.792  20.328  0.00  0.00    +0.000 A 
ATOM      3  C   UNL     1       8.941  11.211  21.408  0.00  0.00    +0.000 A 
ATOM      4  C   UNL     1       8.590  11.963  22.522  0.00  0.00    +0.000 A 
ATOM      5  O   UNL     1       7.882  11.242  23.503  0.00  0.00    +0.000 OA
ATOM      6  C   UNL     1       7.442  11.837  24.663  0.00  0.00    +0.000 A 
ATOM      7  O   UNL     1       6.817  11.232  25.525  0.00  0.00    +0.000 OA
ATOM      8  C   UNL     1       7.757  13.257  24.820  0.00  0.00    +0.000 A 
ATOM      9  C   UNL     1       8.438  13.975  23.910  0.00  0.00    +0.000 A 
ATOM     10  C   UNL     1       8.922  13.313  22.657  0.00  0.00    +0.000 A 
ATOM     11  C   UNL     1       9.677  13.909  21.592  0.00  0.00    +0.000 A 
ATOM     12  C   UNL     1      10.215  15.319  21.733  0.00  0.00    +0.000 C 
ATOM     13  C   UNL     1       9.957  13.172  20.373  0.00  0.00    +0.000 A 
ENDROOT
BRANCH   9  14
ATOM     14  C   UNL     1       8.585  15.391  24.303  0.00  0.00    +0.000 A 
ATOM     15  C   UNL     1       9.635  15.787  25.145  0.00  0.00    +0.000 A 
ATOM     16  C   UNL     1       9.815  17.130  25.461  0.00  0.00    +0.000 A 
ATOM     17  C   UNL     1       8.932  18.087  24.966  0.00  0.00    +0.000 A 
ATOM     18  C   UNL     1       7.853  17.697  24.169  0.00  0.00    +0.000 A 
ATOM     19  C   UNL     1       7.675  16.353  23.841  0.00  0.00    +0.000 A 
ENDBRANCH   9  14
BRANCH  13  20
ATOM     20  C   UNL     1      10.597  13.849  19.191  0.00  0.00    +0.000 A 
ATOM     21  S   UNL     1      12.319  13.783  19.007  0.00  0.00    +0.000 S 
ATOM     22  C   UNL     1      12.296  14.603  17.518  0.00  0.00    +0.000 A 
ATOM     23  C   UNL     1      11.045  15.091  17.239  0.00  0.00    +0.000 A 
ATOM     24  C   UNL     1      10.052  14.641  18.173  0.00  0.00    +0.000 A 
BRANCH  24  25
ATOM     25  C   UNL     1       8.648  15.009  18.047  0.00  0.00    +0.000 C 
ATOM     26  O   UNL     1       8.112  15.849  18.764  0.00  0.00    +0.000 OA
ENDBRANCH  24  25
ENDBRANCH  13  20
TORSDOF 3
ENDMDL
MODEL 7
REMARK VINA RESULT:      -6.5      6.112      8.482
REMARK  Name = 
REMARK  5 active torsions:
REMARK  status: ('A' for Active; 'I' for Inactive)
REMARK    1  A    between atoms: C_1  and  C_2
REMARK    2  A    between atoms: C_9  and  C_10
REMARK    3  A    between atoms: C_17  and  C_18
REMARK    4  A    between atoms: C_19  and  C_20
REMARK    5  A    between atoms: C_24  and  C_25
REMARK                            x       y       z     vdW  Elec       q    Type
REMARK                         _______ _______ _______ _____ _____    ______ ____
ROOT
ATOM      1  C   UNL     1      -7.200  12.964  20.963  0.00  0.00    +0.000 C 
ATOM      2  C   UNL     1      -5.777  12.777  20.490  0.00  0.00    +0.000 A 
ATOM      3  C   UNL     1      -5.609  11.911  19.409  0.00  0.00    +0.000 A 
ATOM      4  C   UNL     1      -4.347  11.656  18.885  0.00  0.00    +0.000 A 
ATOM      5  O   UNL     1      -4.341  10.723  17.830  0.00  0.00    +0.000 OA
ATOM      6  C   UNL     1      -3.174  10.342  17.207  0.00  0.00    +0.000 A 
ATOM      7  O   UNL     1      -3.145   9.526  16.294  0.00  0.00    +0.000 OA
ATOM      8  C   UNL     1      -1.946  10.965  17.699  0.00  0.00    +0.000 A 
ATOM      9  C   UNL     1      -1.915  11.866  18.697  0.00  0.00    +0.000 A 
ATOM     10  C   UNL     1      -3.192  12.281  19.359  0.00  0.00    +0.000 A 
ATOM     11  C   UNL     1      -3.354  13.237  20.417  0.00  0.00    +0.000 A 
ATOM     12  C   UNL     1      -2.178  14.075  20.877  0.00  0.00    +0.000 C 
ATOM     13  C   UNL     1      -4.645  13.435  21.052  0.00  0.00    +0.000 A 
ENDROOT
BRANCH   9  14
ATOM     14  C   UNL     1      -0.542  12.306  19.017  0.00  0.00    +0.000 A 
ATOM     15  C   UNL     1       0.037  13.380  18.324  0.00  0.00    +0.000 A 
ATOM     16  C   UNL     1       1.303  13.840  18.671  0.00  0.00    +0.000 A 
ATOM     17  C   UNL     1       2.018  13.213  19.690  0.00  0.00    +0.000 A 
ATOM     18  C   UNL     1       1.472  12.111  20.350  0.00  0.00    +0.000 A 
ATOM     19  C   UNL     1       0.198  11.653  20.014  0.00  0.00    +0.000 A 
ENDBRANCH   9  14
BRANCH  13  20
ATOM     20  C   UNL     1      -4.781  14.307  22.271  0.00  0.00    +0.000 A 
ATOM     21  S   UNL     1      -5.205  15.977  22.074  0.00  0.00    +0.000 S 
ATOM     22  C   UNL     1      -5.270  16.264  23.749  0.00  0.00    +0.000 A 
ATOM     23  C   UNL     1      -4.803  15.188  24.457  0.00  0.00    +0.000 A 
ATOM     24  C   UNL     1      -4.546  14.045  23.627  0.00  0.00    +0.000 A 
BRANCH  24  25
ATOM     25  C   UNL     1      -4.078  12.779  24.174  0.00  0.00    +0.000 C 
ATOM     26  O   UNL     1      -4.837  11.926  24.624  0.00  0.00    +0.000 OA
ENDBRANCH  24  25
ENDBRANCH  13  20
TORSDOF 3
ENDMDL
MODEL 8
REMARK VINA RESULT:      -6.5      5.004      9.888
REMARK  Name = 
REMARK  5 active torsions:
REMARK  status: ('A' for Active; 'I' for Inactive)
REMARK    1  A    between atoms: C_1  and  C_2
REMARK    2  A    between atoms: C_9  and  C_10
REMARK    3  A    between atoms: C_17  and  C_18
REMARK    4  A    between atoms: C_19  and  C_20
REMARK    5  A    between atoms: C_24  and  C_25
REMARK                            x       y       z     vdW  Elec       q    Type
REMARK                         _______ _______ _______ _____ _____    ______ ____
ROOT
ATOM      1  C   UNL     1      -0.998  10.882  21.968  0.00  0.00    +0.000 C 
ATOM      2  C   UNL     1      -0.662  12.235  21.385  0.00  0.00    +0.000 A 
ATOM      3  C   UNL     1      -0.249  13.202  22.302  0.00  0.00    +0.000 A 
ATOM      4  C   UNL     1       0.085  14.486  21.888  0.00  0.00    +0.000 A 
ATOM      5  O   UNL     1       0.435  15.356  22.939  0.00  0.00    +0.000 OA
ATOM      6  C   UNL     1       0.776  16.669  22.709  0.00  0.00    +0.000 A 
ATOM      7  O   UNL     1       1.074  17.445  23.608  0.00  0.00    +0.000 OA
ATOM      8  C   UNL     1       0.760  17.106  21.313  0.00  0.00    +0.000 A 
ATOM      9  C   UNL     1       0.441  16.301  20.284  0.00  0.00    +0.000 A 
ATOM     10  C   UNL     1       0.083  14.871  20.546  0.00  0.00    +0.000 A 
ATOM     11  C   UNL     1      -0.261  13.867  19.579  0.00  0.00    +0.000 A 
ATOM     12  C   UNL     1      -0.131  14.158  18.097  0.00  0.00    +0.000 C 
ATOM     13  C   UNL     1      -0.720  12.555  19.997  0.00  0.00    +0.000 A 
ENDROOT
BRANCH   9  14
ATOM     14  C   UNL     1       0.471  17.006  18.987  0.00  0.00    +0.000 A 
ATOM     15  C   UNL     1      -0.706  17.545  18.446  0.00  0.00    +0.000 A 
ATOM     16  C   UNL     1      -0.667  18.268  17.258  0.00  0.00    +0.000 A 
ATOM     17  C   UNL     1       0.539  18.433  16.581  0.00  0.00    +0.000 A 
ATOM     18  C   UNL     1       1.707  17.856  17.083  0.00  0.00    +0.000 A 
ATOM     19  C   UNL     1       1.675  17.140  18.280  0.00  0.00    +0.000 A 
ENDBRANCH   9  14
BRANCH  13  20
ATOM     20  C   UNL     1      -1.242  11.563  18.994  0.00  0.00    +0.000 A 
ATOM     21  S   UNL     1      -2.922  11.597  18.565  0.00  0.00    +0.000 S 
ATOM     22  C   UNL     1      -2.756  10.365  17.404  0.00  0.00    +0.000 A 
ATOM     23  C   UNL     1      -1.510   9.797  17.456  0.00  0.00    +0.000 A 
ATOM     24  C   UNL     1      -0.618  10.492  18.341  0.00  0.00    +0.000 A 
BRANCH  24  25
ATOM     25  C   UNL     1       0.767  10.083  18.523  0.00  0.00    +0.000 C 
ATOM     26  O   UNL     1       1.336   9.301  17.765  0.00  0.00    +0.000 OA
ENDBRANCH  24  25
ENDBRANCH  13  20
TORSDOF 3
ENDMDL
MODEL 9
REMARK VINA RESULT:      -6.5      9.440     12.030
REMARK  Name = 
REMARK  5 active torsions:
REMARK  status: ('A' for Active; 'I' for Inactive)
REMARK    1  A    between atoms: C_1  and  C_2
REMARK    2  A    between atoms: C_9  and  C_10
REMARK    3  A    between atoms: C_17  and  C_18
REMARK    4  A    between atoms: C_19  and  C_20
REMARK    5  A    between atoms: C_24  and  C_25
REMARK                            x       y       z     vdW  Elec       q    Type
REMARK                         _______ _______ _______ _____ _____    ______ ____
ROOT
ATOM      1  C   UNL     1       9.721  10.468  19.355  0.00  0.00    +0.000 C 
ATOM      2  C   UNL     1       9.468  11.487  20.442  0.00  0.00    +0.000 A 
ATOM      3  C   UNL     1       8.767  11.020  21.555  0.00  0.00    +0.000 A 
ATOM      4  C   UNL     1       8.471  11.862  22.620  0.00  0.00    +0.000 A 
ATOM      5  O   UNL     1       7.716  11.253  23.642  0.00  0.00    +0.000 OA
ATOM      6  C   UNL     1       7.321  11.948  24.762  0.00  0.00    +0.000 A 
ATOM      7  O   UNL     1       6.657  11.441  25.658  0.00  0.00    +0.000 OA
ATOM      8  C   UNL     1       7.733  13.350  24.832  0.00  0.00    +0.000 A 
ATOM      9  C   UNL     1       8.460  13.961  23.880  0.00  0.00    +0.000 A 
ATOM     10  C   UNL     1       8.895  13.192  22.672  0.00  0.00    +0.000 A 
ATOM     11  C   UNL     1       9.687  13.668  21.574  0.00  0.00    +0.000 A 
ATOM     12  C   UNL     1      10.321  15.044  21.629  0.00  0.00    +0.000 C 
ATOM     13  C   UNL     1       9.913  12.840  20.403  0.00  0.00    +0.000 A 
ENDROOT
BRANCH   9  14
ATOM     14  C   UNL     1       8.706  15.385  24.186  0.00  0.00    +0.000 A 
ATOM     15  C   UNL     1       7.896  16.381  23.619  0.00  0.00    +0.000 A 
ATOM     16  C   UNL     1       8.082  17.717  23.960  0.00  0.00    +0.000 A 
ATOM     17  C   UNL     1       9.098  18.076  24.843  0.00  0.00    +0.000 A 
ATOM     18  C   UNL     1       9.942  17.098  25.372  0.00  0.00    +0.000 A 
ATOM     19  C   UNL     1       9.752  15.756  25.043  0.00  0.00    +0.000 A 
ENDBRANCH   9  14
BRANCH  13  20
ATOM     20  C   UNL     1      10.595  13.397  19.183  0.00  0.00    +0.000 A 
ATOM     21  S   UNL     1      12.303  13.172  18.991  0.00  0.00    +0.000 S 
ATOM     22  C   UNL     1      12.333  13.914  17.461  0.00  0.00    +0.000 A 
ATOM     23  C   UNL     1      11.127  14.493  17.166  0.00  0.00    +0.000 A 
ATOM     24  C   UNL     1      10.108  14.180  18.128  0.00  0.00    +0.000 A 
BRANCH  24  25
ATOM     25  C   UNL     1       8.740  14.660  17.993  0.00  0.00    +0.000 C 
ATOM     26  O   UNL     1       8.461  15.849  17.862  0.00  0.00    +0.000 OA
ENDBRANCH  24  25
ENDBRANCH  13  20
TORSDOF 3
ENDMDL
