MODEL 1
REMARK VINA RESULT:      -8.2      0.000      0.000
REMARK  Name = 
REMARK  3 active torsions:
REMARK  status: ('A' for Active; 'I' for Inactive)
REMARK    1  A    between atoms: C_2  and  C_11
REMARK    2  A    between atoms: N_3  and  C_4
REMARK    3  A    between atoms: C_4  and  C_5
REMARK                            x       y       z     vdW  Elec       q    Type
REMARK                         _______ _______ _______ _____ _____    ______ ____
ROOT
ATOM      1  O   UNL     1       5.384   5.530  18.935  0.00  0.00    +0.000 OA
ATOM      2  C   UNL     1       5.570   4.506  18.282  0.00  0.00    +0.000 C 
ATOM      3  N   UNL     1       5.349   3.244  18.782  0.00  0.00    +0.000 N 
ATOM      4  H   UNL     1       5.349   2.486  18.110  0.00  0.00    +0.000 HD
ENDROOT
BRANCH   2   5
ATOM      5  C   UNL     1       6.193   4.513  16.887  0.00  0.00    +0.000 C 
ATOM      6  C   UNL     1       6.550   5.929  16.464  0.00  0.00    +0.000 C 
ATOM      7  O   UNL     1       7.539   5.816  15.425  0.00  0.00    +0.000 OA
ATOM      8  C   UNL     1       7.074   4.974  14.442  0.00  0.00    +0.000 A 
ATOM      9  C   UNL     1       7.746   5.002  13.225  0.00  0.00    +0.000 A 
ATOM     10  C   UNL     1       7.210   4.322  12.135  0.00  0.00    +0.000 A 
ATOM     11  C   UNL     1       6.003   3.629  12.268  0.00  0.00    +0.000 A 
ATOM     12  C   UNL     1       5.384   3.518  13.517  0.00  0.00    +0.000 A 
ATOM     13  C   UNL     1       5.950   4.149  14.620  0.00  0.00    +0.000 A 
ATOM     14  O   UNL     1       5.365   3.946  15.856  0.00  0.00    +0.000 OA
ENDBRANCH   2   5
BRANCH   3  15
ATOM     15  C   UNL     1       4.642   3.041  20.025  0.00  0.00    +0.000 C 
BRANCH  15  16
ATOM     16  C   UNL     1       3.156   3.084  19.776  0.00  0.00    +0.000 A 
ATOM     17  C   UNL     1       2.349   3.968  20.513  0.00  0.00    +0.000 A 
ATOM     18  C   UNL     1       0.966   3.967  20.343  0.00  0.00    +0.000 A 
ATOM     19  C   UNL     1       0.379   3.081  19.443  0.00  0.00    +0.000 A 
ATOM     20  C   UNL     1       1.172   2.205  18.714  0.00  0.00    +0.000 A 
ATOM     21  C   UNL     1       2.555   2.192  18.878  0.00  0.00    +0.000 A 
ENDBRANCH  15  16
ENDBRANCH   3  15
TORSDOF 3
ENDMDL
MODEL 2
REMARK VINA RESULT:      -8.2      0.183      1.095
REMARK  Name = 
REMARK  3 active torsions:
REMARK  status: ('A' for Active; 'I' for Inactive)
REMARK    1  A    between atoms: C_2  and  C_11
REMARK    2  A    between atoms: N_3  and  C_4
REMARK    3  A    between atoms: C_4  and  C_5
REMARK                            x       y       z     vdW  Elec       q    Type
REMARK                         _______ _______ _______ _____ _____    ______ ____
ROOT
ATOM      1  O   UNL     1       5.617   5.423  19.216  0.00  0.00    +0.000 OA
ATOM      2  C   UNL     1       5.672   4.440  18.480  0.00  0.00    +0.000 C 
ATOM      3  N   UNL     1       5.321   3.174  18.889  0.00  0.00    +0.000 N 
ATOM      4  H   UNL     1       5.220   2.477  18.161  0.00  0.00    +0.000 HD
ENDROOT
BRANCH   2   5
ATOM      5  C   UNL     1       6.258   4.490  17.071  0.00  0.00    +0.000 C 
ATOM      6  C   UNL     1       6.531   5.925  16.651  0.00  0.00    +0.000 C 
ATOM      7  O   UNL     1       7.498   5.872  15.587  0.00  0.00    +0.000 OA
ATOM      8  C   UNL     1       7.053   5.014  14.608  0.00  0.00    +0.000 A 
ATOM      9  C   UNL     1       7.692   5.085  13.376  0.00  0.00    +0.000 A 
ATOM     10  C   UNL     1       7.165   4.386  12.294  0.00  0.00    +0.000 A 
ATOM     11  C   UNL     1       5.999   3.630  12.450  0.00  0.00    +0.000 A 
ATOM     12  C   UNL     1       5.418   3.478  13.713  0.00  0.00    +0.000 A 
ATOM     13  C   UNL     1       5.978   4.130  14.807  0.00  0.00    +0.000 A 
ATOM     14  O   UNL     1       5.436   3.887  16.055  0.00  0.00    +0.000 OA
ENDBRANCH   2   5
BRANCH   3  15
ATOM     15  C   UNL     1       4.626   2.952  20.134  0.00  0.00    +0.000 C 
BRANCH  15  16
ATOM     16  C   UNL     1       3.137   2.972  19.895  0.00  0.00    +0.000 A 
ATOM     17  C   UNL     1       2.571   2.109  18.941  0.00  0.00    +0.000 A 
ATOM     18  C   UNL     1       1.208   2.169  18.659  0.00  0.00    +0.000 A 
ATOM     19  C   UNL     1       0.403   3.091  19.321  0.00  0.00    +0.000 A 
ATOM     20  C   UNL     1       0.958   3.947  20.264  0.00  0.00    +0.000 A 
ATOM     21  C   UNL     1       2.321   3.901  20.551  0.00  0.00    +0.000 A 
ENDBRANCH  15  16
ENDBRANCH   3  15
TORSDOF 3
ENDMDL
MODEL 3
REMARK VINA RESULT:      -8.2      1.150      1.230
REMARK  Name = 
REMARK  3 active torsions:
REMARK  status: ('A' for Active; 'I' for Inactive)
REMARK    1  A    between atoms: C_2  and  C_11
REMARK    2  A    between atoms: N_3  and  C_4
REMARK    3  A    between atoms: C_4  and  C_5
REMARK                            x       y       z     vdW  Elec       q    Type
REMARK                         _______ _______ _______ _____ _____    ______ ____
ROOT
ATOM      1  O   UNL     1       5.794   4.181  19.127  0.00  0.00    +0.000 OA
ATOM      2  C   UNL     1       5.381   4.785  18.140  0.00  0.00    +0.000 C 
ATOM      3  N   UNL     1       4.217   5.518  18.138  0.00  0.00    +0.000 N 
ATOM      4  H   UNL     1       4.068   6.126  17.342  0.00  0.00    +0.000 HD
ENDROOT
BRANCH   2   5
ATOM      5  C   UNL     1       6.043   4.683  16.767  0.00  0.00    +0.000 C 
ATOM      6  C   UNL     1       6.500   6.050  16.286  0.00  0.00    +0.000 C 
ATOM      7  O   UNL     1       7.510   5.825  15.286  0.00  0.00    +0.000 OA
ATOM      8  C   UNL     1       7.022   4.963  14.331  0.00  0.00    +0.000 A 
ATOM      9  C   UNL     1       7.730   4.888  13.137  0.00  0.00    +0.000 A 
ATOM     10  C   UNL     1       7.184   4.187  12.065  0.00  0.00    +0.000 A 
ATOM     11  C   UNL     1       5.933   3.576  12.193  0.00  0.00    +0.000 A 
ATOM     12  C   UNL     1       5.272   3.568  13.426  0.00  0.00    +0.000 A 
ATOM     13  C   UNL     1       5.844   4.218  14.513  0.00  0.00    +0.000 A 
ATOM     14  O   UNL     1       5.212   4.115  15.739  0.00  0.00    +0.000 OA
ENDBRANCH   2   5
BRANCH   3  15
ATOM     15  C   UNL     1       3.528   5.838  19.367  0.00  0.00    +0.000 C 
BRANCH  15  16
ATOM     16  C   UNL     1       2.529   4.755  19.685  0.00  0.00    +0.000 A 
ATOM     17  C   UNL     1       2.359   4.328  21.013  0.00  0.00    +0.000 A 
ATOM     18  C   UNL     1       1.492   3.280  21.311  0.00  0.00    +0.000 A 
ATOM     19  C   UNL     1       0.793   2.646  20.286  0.00  0.00    +0.000 A 
ATOM     20  C   UNL     1       0.958   3.063  18.972  0.00  0.00    +0.000 A 
ATOM     21  C   UNL     1       1.827   4.107  18.661  0.00  0.00    +0.000 A 
ENDBRANCH  15  16
ENDBRANCH   3  15
TORSDOF 3
ENDMDL
MODEL 4
REMARK VINA RESULT:      -8.1      1.147      1.503
REMARK  Name = 
REMARK  3 active torsions:
REMARK  status: ('A' for Active; 'I' for Inactive)
REMARK    1  A    between atoms: C_2  and  C_11
REMARK    2  A    between atoms: N_3  and  C_4
REMARK    3  A    between atoms: C_4  and  C_5
REMARK                            x       y       z     vdW  Elec       q    Type
REMARK                         _______ _______ _______ _____ _____    ______ ____
ROOT
ATOM      1  O   UNL     1       5.710   3.973  19.067  0.00  0.00    +0.000 OA
ATOM      2  C   UNL     1       5.368   4.674  18.117  0.00  0.00    +0.000 C 
ATOM      3  N   UNL     1       4.263   5.494  18.146  0.00  0.00    +0.000 N 
ATOM      4  H   UNL     1       4.180   6.165  17.392  0.00  0.00    +0.000 HD
ENDROOT
BRANCH   2   5
ATOM      5  C   UNL     1       6.054   4.617  16.753  0.00  0.00    +0.000 C 
ATOM      6  C   UNL     1       6.480   6.005  16.305  0.00  0.00    +0.000 C 
ATOM      7  O   UNL     1       7.511   5.826  15.318  0.00  0.00    +0.000 OA
ATOM      8  C   UNL     1       7.062   4.971  14.339  0.00  0.00    +0.000 A 
ATOM      9  C   UNL     1       7.789   4.937  13.155  0.00  0.00    +0.000 A 
ATOM     10  C   UNL     1       7.279   4.243  12.062  0.00  0.00    +0.000 A 
ATOM     11  C   UNL     1       6.044   3.596  12.158  0.00  0.00    +0.000 A 
ATOM     12  C   UNL     1       5.364   3.546  13.380  0.00  0.00    +0.000 A 
ATOM     13  C   UNL     1       5.902   4.191  14.488  0.00  0.00    +0.000 A 
ATOM     14  O   UNL     1       5.254   4.046  15.701  0.00  0.00    +0.000 OA
ENDBRANCH   2   5
BRANCH   3  15
ATOM     15  C   UNL     1       3.571   5.780  19.380  0.00  0.00    +0.000 C 
BRANCH  15  16
ATOM     16  C   UNL     1       2.603   4.666  19.689  0.00  0.00    +0.000 A 
ATOM     17  C   UNL     1       1.826   4.109  18.658  0.00  0.00    +0.000 A 
ATOM     18  C   UNL     1       0.877   3.130  18.942  0.00  0.00    +0.000 A 
ATOM     19  C   UNL     1       0.693   2.704  20.255  0.00  0.00    +0.000 A 
ATOM     20  C   UNL     1       1.457   3.251  21.277  0.00  0.00    +0.000 A 
ATOM     21  C   UNL     1       2.406   4.235  21.007  0.00  0.00    +0.000 A 
ENDBRANCH  15  16
ENDBRANCH   3  15
TORSDOF 3
ENDMDL
MODEL 5
REMARK VINA RESULT:      -7.7      2.650      3.042
REMARK  Name = 
REMARK  3 active torsions:
REMARK  status: ('A' for Active; 'I' for Inactive)
REMARK    1  A    between atoms: C_2  and  C_11
REMARK    2  A    between atoms: N_3  and  C_4
REMARK    3  A    between atoms: C_4  and  C_5
REMARK                            x       y       z     vdW  Elec       q    Type
REMARK                         _______ _______ _______ _____ _____    ______ ____
ROOT
ATOM      1  O   UNL     1       5.629   4.050  19.170  0.00  0.00    +0.000 OA
ATOM      2  C   UNL     1       5.225   4.650  18.177  0.00  0.00    +0.000 C 
ATOM      3  N   UNL     1       4.036   5.341  18.147  0.00  0.00    +0.000 N 
ATOM      4  H   UNL     1       3.889   5.954  17.353  0.00  0.00    +0.000 HD
ENDROOT
BRANCH   2   5
ATOM      5  C   UNL     1       5.932   4.588  16.824  0.00  0.00    +0.000 C 
ATOM      6  C   UNL     1       6.406   5.969  16.400  0.00  0.00    +0.000 C 
ATOM      7  O   UNL     1       7.448   5.772  15.428  0.00  0.00    +0.000 OA
ATOM      8  C   UNL     1       6.991   4.940  14.432  0.00  0.00    +0.000 A 
ATOM      9  C   UNL     1       7.738   4.900  13.260  0.00  0.00    +0.000 A 
ATOM     10  C   UNL     1       7.227   4.233  12.150  0.00  0.00    +0.000 A 
ATOM     11  C   UNL     1       5.972   3.621  12.218  0.00  0.00    +0.000 A 
ATOM     12  C   UNL     1       5.270   3.577  13.427  0.00  0.00    +0.000 A 
ATOM     13  C   UNL     1       5.807   4.193  14.552  0.00  0.00    +0.000 A 
ATOM     14  O   UNL     1       5.135   4.053  15.752  0.00  0.00    +0.000 OA
ENDBRANCH   2   5
BRANCH   3  15
ATOM     15  C   UNL     1       3.299   5.621  19.357  0.00  0.00    +0.000 C 
BRANCH  15  16
ATOM     16  C   UNL     1       2.617   6.961  19.238  0.00  0.00    +0.000 A 
ATOM     17  C   UNL     1       1.923   7.492  20.338  0.00  0.00    +0.000 A 
ATOM     18  C   UNL     1       1.229   8.695  20.219  0.00  0.00    +0.000 A 
ATOM     19  C   UNL     1       1.218   9.371  19.002  0.00  0.00    +0.000 A 
ATOM     20  C   UNL     1       1.902   8.849  17.911  0.00  0.00    +0.000 A 
ATOM     21  C   UNL     1       2.595   7.645  18.016  0.00  0.00    +0.000 A 
ENDBRANCH  15  16
ENDBRANCH   3  15
TORSDOF 3
ENDMDL
MODEL 6
REMARK VINA RESULT:      -7.7      1.584      6.924
REMARK  Name = 
REMARK  3 active torsions:
REMARK  status: ('A' for Active; 'I' for Inactive)
REMARK    1  A    between atoms: C_2  and  C_11
REMARK    2  A    between atoms: N_3  and  C_4
REMARK    3  A    between atoms: C_4  and  C_5
REMARK                            x       y       z     vdW  Elec       q    Type
REMARK                         _______ _______ _______ _____ _____    ______ ____
ROOT
ATOM      1  O   UNL     1       5.107   6.920  15.866  0.00  0.00    +0.000 OA
ATOM      2  C   UNL     1       5.157   5.910  16.563  0.00  0.00    +0.000 C 
ATOM      3  N   UNL     1       6.129   4.947  16.425  0.00  0.00    +0.000 N 
ATOM      4  H   UNL     1       6.193   4.259  17.166  0.00  0.00    +0.000 HD
ENDROOT
BRANCH   2   5
ATOM      5  C   UNL     1       4.072   5.544  17.574  0.00  0.00    +0.000 C 
ATOM      6  C   UNL     1       4.649   5.463  18.978  0.00  0.00    +0.000 C 
ATOM      7  O   UNL     1       3.547   5.612  19.891  0.00  0.00    +0.000 OA
ATOM      8  C   UNL     1       2.563   4.705  19.572  0.00  0.00    +0.000 A 
ATOM      9  C   UNL     1       1.580   4.486  20.529  0.00  0.00    +0.000 A 
ATOM     10  C   UNL     1       0.673   3.446  20.348  0.00  0.00    +0.000 A 
ATOM     11  C   UNL     1       0.762   2.628  19.218  0.00  0.00    +0.000 A 
ATOM     12  C   UNL     1       1.687   2.914  18.209  0.00  0.00    +0.000 A 
ATOM     13  C   UNL     1       2.556   3.990  18.362  0.00  0.00    +0.000 A 
ATOM     14  O   UNL     1       3.395   4.302  17.309  0.00  0.00    +0.000 OA
ENDBRANCH   2   5
BRANCH   3  15
ATOM     15  C   UNL     1       7.306   5.177  15.619  0.00  0.00    +0.000 C 
BRANCH  15  16
ATOM     16  C   UNL     1       7.040   4.747  14.199  0.00  0.00    +0.000 A 
ATOM     17  C   UNL     1       6.075   3.759  13.936  0.00  0.00    +0.000 A 
ATOM     18  C   UNL     1       5.871   3.302  12.636  0.00  0.00    +0.000 A 
ATOM     19  C   UNL     1       6.630   3.822  11.591  0.00  0.00    +0.000 A 
ATOM     20  C   UNL     1       7.585   4.798  11.846  0.00  0.00    +0.000 A 
ATOM     21  C   UNL     1       7.803   5.260  13.142  0.00  0.00    +0.000 A 
ENDBRANCH  15  16
ENDBRANCH   3  15
TORSDOF 3
ENDMDL
MODEL 7
REMARK VINA RESULT:      -7.6      1.524      7.047
REMARK  Name = 
REMARK  3 active torsions:
REMARK  status: ('A' for Active; 'I' for Inactive)
REMARK    1  A    between atoms: C_2  and  C_11
REMARK    2  A    between atoms: N_3  and  C_4
REMARK    3  A    between atoms: C_4  and  C_5
REMARK                            x       y       z     vdW  Elec       q    Type
REMARK                         _______ _______ _______ _____ _____    ______ ____
ROOT
ATOM      1  O   UNL     1       7.459   4.673  18.368  0.00  0.00    +0.000 OA
ATOM      2  C   UNL     1       6.367   4.560  17.815  0.00  0.00    +0.000 C 
ATOM      3  N   UNL     1       6.108   5.045  16.554  0.00  0.00    +0.000 N 
ATOM      4  H   UNL     1       5.247   4.735  16.120  0.00  0.00    +0.000 HD
ENDROOT
BRANCH   2   5
ATOM      5  C   UNL     1       5.138   3.985  18.517  0.00  0.00    +0.000 C 
ATOM      6  C   UNL     1       4.344   3.098  17.572  0.00  0.00    +0.000 C 
ATOM      7  O   UNL     1       3.536   2.234  18.390  0.00  0.00    +0.000 OA
ATOM      8  C   UNL     1       2.813   2.994  19.281  0.00  0.00    +0.000 A 
ATOM      9  C   UNL     1       1.752   2.366  19.921  0.00  0.00    +0.000 A 
ATOM     10  C   UNL     1       0.868   3.127  20.681  0.00  0.00    +0.000 A 
ATOM     11  C   UNL     1       1.048   4.509  20.786  0.00  0.00    +0.000 A 
ATOM     12  C   UNL     1       2.173   5.122  20.225  0.00  0.00    +0.000 A 
ATOM     13  C   UNL     1       3.088   4.353  19.515  0.00  0.00    +0.000 A 
ATOM     14  O   UNL     1       4.235   4.970  19.051  0.00  0.00    +0.000 OA
ENDBRANCH   2   5
BRANCH   3  15
ATOM     15  C   UNL     1       7.172   5.499  15.690  0.00  0.00    +0.000 C 
BRANCH  15  16
ATOM     16  C   UNL     1       7.024   4.867  14.329  0.00  0.00    +0.000 A 
ATOM     17  C   UNL     1       7.816   5.318  13.259  0.00  0.00    +0.000 A 
ATOM     18  C   UNL     1       7.639   4.793  11.981  0.00  0.00    +0.000 A 
ATOM     19  C   UNL     1       6.667   3.820  11.760  0.00  0.00    +0.000 A 
ATOM     20  C   UNL     1       5.881   3.372  12.814  0.00  0.00    +0.000 A 
ATOM     21  C   UNL     1       6.045   3.893  14.096  0.00  0.00    +0.000 A 
ENDBRANCH  15  16
ENDBRANCH   3  15
TORSDOF 3
ENDMDL
MODEL 8
REMARK VINA RESULT:      -7.6      1.678      7.139
REMARK  Name = 
REMARK  3 active torsions:
REMARK  status: ('A' for Active; 'I' for Inactive)
REMARK    1  A    between atoms: C_2  and  C_11
REMARK    2  A    between atoms: N_3  and  C_4
REMARK    3  A    between atoms: C_4  and  C_5
REMARK                            x       y       z     vdW  Elec       q    Type
REMARK                         _______ _______ _______ _____ _____    ______ ____
ROOT
ATOM      1  O   UNL     1       4.860   6.764  16.291  0.00  0.00    +0.000 OA
ATOM      2  C   UNL     1       4.950   5.683  16.868  0.00  0.00    +0.000 C 
ATOM      3  N   UNL     1       5.971   4.791  16.640  0.00  0.00    +0.000 N 
ATOM      4  H   UNL     1       6.057   4.025  17.298  0.00  0.00    +0.000 HD
ENDROOT
BRANCH   2   5
ATOM      5  C   UNL     1       3.869   5.150  17.807  0.00  0.00    +0.000 C 
ATOM      6  C   UNL     1       3.275   6.276  18.639  0.00  0.00    +0.000 C 
ATOM      7  O   UNL     1       1.991   5.821  19.101  0.00  0.00    +0.000 OA
ATOM      8  C   UNL     1       2.135   4.602  19.721  0.00  0.00    +0.000 A 
ATOM      9  C   UNL     1       1.071   4.169  20.503  0.00  0.00    +0.000 A 
ATOM     10  C   UNL     1       1.230   3.043  21.308  0.00  0.00    +0.000 A 
ATOM     11  C   UNL     1       2.454   2.367  21.330  0.00  0.00    +0.000 A 
ATOM     12  C   UNL     1       3.487   2.745  20.466  0.00  0.00    +0.000 A 
ATOM     13  C   UNL     1       3.308   3.834  19.620  0.00  0.00    +0.000 A 
ATOM     14  O   UNL     1       4.311   4.125  18.715  0.00  0.00    +0.000 OA
ENDBRANCH   2   5
BRANCH   3  15
ATOM     15  C   UNL     1       7.147   5.169  15.891  0.00  0.00    +0.000 C 
BRANCH  15  16
ATOM     16  C   UNL     1       6.974   4.780  14.445  0.00  0.00    +0.000 A 
ATOM     17  C   UNL     1       6.082   3.750  14.100  0.00  0.00    +0.000 A 
ATOM     18  C   UNL     1       5.966   3.333  12.776  0.00  0.00    +0.000 A 
ATOM     19  C   UNL     1       6.743   3.934  11.789  0.00  0.00    +0.000 A 
ATOM     20  C   UNL     1       7.627   4.951  12.125  0.00  0.00    +0.000 A 
ATOM     21  C   UNL     1       7.756   5.374  13.447  0.00  0.00    +0.000 A 
ENDBRANCH  15  16
ENDBRANCH   3  15
TORSDOF 3
ENDMDL
MODEL 9
REMARK VINA RESULT:      -7.6      1.609      7.148
REMARK  Name = 
REMARK  3 active torsions:
REMARK  status: ('A' for Active; 'I' for Inactive)
REMARK    1  A    between atoms: C_2  and  C_11
REMARK    2  A    between atoms: N_3  and  C_4
REMARK    3  A    between atoms: C_4  and  C_5
REMARK                            x       y       z     vdW  Elec       q    Type
REMARK                         _______ _______ _______ _____ _____    ______ ____
ROOT
ATOM      1  O   UNL     1       7.087   4.463  18.327  0.00  0.00    +0.000 OA
ATOM      2  C   UNL     1       6.038   4.619  17.707  0.00  0.00    +0.000 C 
ATOM      3  N   UNL     1       5.982   5.183  16.454  0.00  0.00    +0.000 N 
ATOM      4  H   UNL     1       5.103   5.091  15.957  0.00  0.00    +0.000 HD
ENDROOT
BRANCH   2   5
ATOM      5  C   UNL     1       4.665   4.325  18.310  0.00  0.00    +0.000 C 
ATOM      6  C   UNL     1       3.938   5.616  18.648  0.00  0.00    +0.000 C 
ATOM      7  O   UNL     1       2.537   5.296  18.729  0.00  0.00    +0.000 OA
ATOM      8  C   UNL     1       2.359   4.240  19.591  0.00  0.00    +0.000 A 
ATOM      9  C   UNL     1       1.062   4.008  20.036  0.00  0.00    +0.000 A 
ATOM     10  C   UNL     1       0.847   3.084  21.054  0.00  0.00    +0.000 A 
ATOM     11  C   UNL     1       1.928   2.407  21.624  0.00  0.00    +0.000 A 
ATOM     12  C   UNL     1       3.217   2.567  21.106  0.00  0.00    +0.000 A 
ATOM     13  C   UNL     1       3.425   3.447  20.049  0.00  0.00    +0.000 A 
ATOM     14  O   UNL     1       4.691   3.515  19.499  0.00  0.00    +0.000 OA
ENDBRANCH   2   5
BRANCH   3  15
ATOM     15  C   UNL     1       7.176   5.402  15.673  0.00  0.00    +0.000 C 
BRANCH  15  16
ATOM     16  C   UNL     1       7.005   4.797  14.303  0.00  0.00    +0.000 A 
ATOM     17  C   UNL     1       7.789   5.260  13.232  0.00  0.00    +0.000 A 
ATOM     18  C   UNL     1       7.590   4.761  11.946  0.00  0.00    +0.000 A 
ATOM     19  C   UNL     1       6.606   3.802  11.720  0.00  0.00    +0.000 A 
ATOM     20  C   UNL     1       5.828   3.342  12.775  0.00  0.00    +0.000 A 
ATOM     21  C   UNL     1       6.013   3.838  14.064  0.00  0.00    +0.000 A 
ENDBRANCH  15  16
ENDBRANCH   3  15
TORSDOF 3
ENDMDL
