MODEL 1
REMARK VINA RESULT:      -8.2      0.000      0.000
REMARK  Name = 
REMARK  10 active torsions:
REMARK  status: ('A' for Active; 'I' for Inactive)
REMARK    1  A    between atoms: C_1  and  N_2
REMARK    2  A    between atoms: N_2  and  C_3
REMARK    3  A    between atoms: C_4  and  C_6
REMARK    4  A    between atoms: C_9  and  N_10
REMARK    5  A    between atoms: N_10  and  C_11
REMARK    6  A    between atoms: C_11  and  C_12
REMARK    7  A    between atoms: N_15  and  C_16
REMARK    8  A    between atoms: C_18  and  C_20
REMARK    9  A    between atoms: C_23  and  O_24
REMARK   10  A    between atoms: C_26  and  O_27
REMARK                            x       y       z     vdW  Elec       q    Type
REMARK                         _______ _______ _______ _____ _____    ______ ____
ROOT
ATOM      1  N   UNL     1       4.061   5.958  17.359  0.00  0.00    +0.000 N 
ATOM      2  C   UNL     1       4.085   4.573  17.689  0.00  0.00    +0.000 C 
ATOM      3  O   UNL     1       4.855   3.816  17.090  0.00  0.00    +0.000 OA
ENDROOT
BRANCH   1   7
ATOM      4  C   UNL     1       1.532   8.622  19.396  0.00  0.00    +0.000 A 
ATOM      5  C   UNL     1       2.057   7.509  20.062  0.00  0.00    +0.000 A 
ATOM      6  C   UNL     1       2.976   6.676  19.428  0.00  0.00    +0.000 A 
ATOM      7  C   UNL     1       3.335   6.921  18.102  0.00  0.00    +0.000 A 
ATOM      8  C   UNL     1       2.828   8.049  17.435  0.00  0.00    +0.000 A 
ATOM      9  C   UNL     1       1.906   8.882  18.072  0.00  0.00    +0.000 A 
BRANCH   4  13
ATOM     10  C   UNL     1      -0.586  10.477  21.985  0.00  0.00    +0.000 C 
ATOM     11  N   UNL     1       0.460   9.634  21.419  0.00  0.00    +0.000 N 
ATOM     12  C   UNL     1       1.527   9.220  22.321  0.00  0.00    +0.000 C 
ATOM     13  C   UNL     1       0.502   9.494  20.028  0.00  0.00    +0.000 C 
ATOM     14  O   UNL     1      -0.292  10.066  19.286  0.00  0.00    +0.000 OA
ENDBRANCH   4  13
ENDBRANCH   1   7
BRANCH   2  15
ATOM     15  C   UNL     1       3.158   3.972  18.722  0.00  0.00    +0.000 A 
ATOM     16  C   UNL     1       1.764   4.029  18.576  0.00  0.00    +0.000 A 
ATOM     17  C   UNL     1       0.892   3.547  19.555  0.00  0.00    +0.000 A 
ATOM     18  C   UNL     1       1.411   2.879  20.645  0.00  0.00    +0.000 A 
ATOM     19  C   UNL     1       2.781   2.702  20.779  0.00  0.00    +0.000 A 
ATOM     20  C   UNL     1       3.652   3.265  19.833  0.00  0.00    +0.000 A 
BRANCH  18  21
ATOM     21  O   UNL     1       0.595   2.364  21.612  0.00  0.00    +0.000 OA
ATOM     22  H   UNL     1      -0.158   2.967  21.733  0.00  0.00    +0.000 HD
ENDBRANCH  18  21
BRANCH  20  23
ATOM     23  O   UNL     1       5.000   3.116  20.046  0.00  0.00    +0.000 OA
ATOM     24  H   UNL     1       5.273   3.677  20.789  0.00  0.00    +0.000 HD
ENDBRANCH  20  23
ENDBRANCH   2  15
BRANCH   1  25
ATOM     25  C   UNL     1       5.190   6.403  16.516  0.00  0.00    +0.000 C 
BRANCH  25  26
ATOM     26  C   UNL     1       6.389   6.972  17.222  0.00  0.00    +0.000 A 
ATOM     27  C   UNL     1       7.340   6.272  18.007  0.00  0.00    +0.000 A 
ATOM     28  C   UNL     1       8.249   7.223  18.407  0.00  0.00    +0.000 A 
ATOM     29  N   UNL     1       7.820   8.396  17.863  0.00  0.00    +0.000 N 
ATOM     30  C   UNL     1       8.518   9.658  17.848  0.00  0.00    +0.000 C 
ATOM     31  N   UNL     1       6.644   8.291  17.227  0.00  0.00    +0.000 NA
ENDBRANCH  25  26
ENDBRANCH   1  25
TORSDOF 7
ENDMDL
MODEL 2
REMARK VINA RESULT:      -8.1      0.713      1.256
REMARK  Name = 
REMARK  10 active torsions:
REMARK  status: ('A' for Active; 'I' for Inactive)
REMARK    1  A    between atoms: C_1  and  N_2
REMARK    2  A    between atoms: N_2  and  C_3
REMARK    3  A    between atoms: C_4  and  C_6
REMARK    4  A    between atoms: C_9  and  N_10
REMARK    5  A    between atoms: N_10  and  C_11
REMARK    6  A    between atoms: C_11  and  C_12
REMARK    7  A    between atoms: N_15  and  C_16
REMARK    8  A    between atoms: C_18  and  C_20
REMARK    9  A    between atoms: C_23  and  O_24
REMARK   10  A    between atoms: C_26  and  O_27
REMARK                            x       y       z     vdW  Elec       q    Type
REMARK                         _______ _______ _______ _____ _____    ______ ____
ROOT
ATOM      1  N   UNL     1       3.987   5.925  17.423  0.00  0.00    +0.000 N 
ATOM      2  C   UNL     1       4.003   4.547  17.777  0.00  0.00    +0.000 C 
ATOM      3  O   UNL     1       4.761   3.772  17.185  0.00  0.00    +0.000 OA
ENDROOT
BRANCH   1   7
ATOM      4  C   UNL     1       1.501   8.661  19.416  0.00  0.00    +0.000 A 
ATOM      5  C   UNL     1       1.971   7.526  20.086  0.00  0.00    +0.000 A 
ATOM      6  C   UNL     1       2.877   6.667  19.469  0.00  0.00    +0.000 A 
ATOM      7  C   UNL     1       3.276   6.908  18.154  0.00  0.00    +0.000 A 
ATOM      8  C   UNL     1       2.824   8.056  17.483  0.00  0.00    +0.000 A 
ATOM      9  C   UNL     1       1.915   8.916  18.103  0.00  0.00    +0.000 A 
BRANCH   4  13
ATOM     10  C   UNL     1      -0.611  10.576  21.966  0.00  0.00    +0.000 C 
ATOM     11  N   UNL     1       0.419   9.702  21.419  0.00  0.00    +0.000 N 
ATOM     12  C   UNL     1       1.453   9.253  22.342  0.00  0.00    +0.000 C 
ATOM     13  C   UNL     1       0.485   9.564  20.029  0.00  0.00    +0.000 C 
ATOM     14  O   UNL     1      -0.275  10.161  19.272  0.00  0.00    +0.000 OA
ENDBRANCH   4  13
ENDBRANCH   1   7
BRANCH   2  15
ATOM     15  C   UNL     1       3.080   3.972  18.829  0.00  0.00    +0.000 A 
ATOM     16  C   UNL     1       3.537   3.682  20.123  0.00  0.00    +0.000 A 
ATOM     17  C   UNL     1       2.721   3.081  21.085  0.00  0.00    +0.000 A 
ATOM     18  C   UNL     1       1.386   2.880  20.799  0.00  0.00    +0.000 A 
ATOM     19  C   UNL     1       0.862   3.251  19.569  0.00  0.00    +0.000 A 
ATOM     20  C   UNL     1       1.710   3.775  18.580  0.00  0.00    +0.000 A 
BRANCH  18  21
ATOM     21  O   UNL     1       0.543   2.325  21.719  0.00  0.00    +0.000 OA
ATOM     22  H   UNL     1       0.042   3.039  22.149  0.00  0.00    +0.000 HD
ENDBRANCH  18  21
BRANCH  20  23
ATOM     23  O   UNL     1       1.155   4.066  17.359  0.00  0.00    +0.000 OA
ATOM     24  H   UNL     1       1.624   3.575  16.666  0.00  0.00    +0.000 HD
ENDBRANCH  20  23
ENDBRANCH   2  15
BRANCH   1  25
ATOM     25  C   UNL     1       5.112   6.345  16.561  0.00  0.00    +0.000 C 
BRANCH  25  26
ATOM     26  C   UNL     1       6.328   6.904  17.246  0.00  0.00    +0.000 A 
ATOM     27  C   UNL     1       7.277   6.199  18.030  0.00  0.00    +0.000 A 
ATOM     28  C   UNL     1       8.204   7.140  18.407  0.00  0.00    +0.000 A 
ATOM     29  N   UNL     1       7.788   8.313  17.854  0.00  0.00    +0.000 N 
ATOM     30  C   UNL     1       8.505   9.563  17.815  0.00  0.00    +0.000 C 
ATOM     31  N   UNL     1       6.603   8.219  17.232  0.00  0.00    +0.000 NA
ENDBRANCH  25  26
ENDBRANCH   1  25
TORSDOF 7
ENDMDL
MODEL 3
REMARK VINA RESULT:      -7.8      0.743      1.155
REMARK  Name = 
REMARK  10 active torsions:
REMARK  status: ('A' for Active; 'I' for Inactive)
REMARK    1  A    between atoms: C_1  and  N_2
REMARK    2  A    between atoms: N_2  and  C_3
REMARK    3  A    between atoms: C_4  and  C_6
REMARK    4  A    between atoms: C_9  and  N_10
REMARK    5  A    between atoms: N_10  and  C_11
REMARK    6  A    between atoms: C_11  and  C_12
REMARK    7  A    between atoms: N_15  and  C_16
REMARK    8  A    between atoms: C_18  and  C_20
REMARK    9  A    between atoms: C_23  and  O_24
REMARK   10  A    between atoms: C_26  and  O_27
REMARK                            x       y       z     vdW  Elec       q    Type
REMARK                         _______ _______ _______ _____ _____    ______ ____
ROOT
ATOM      1  N   UNL     1       3.705   5.621  17.524  0.00  0.00    +0.000 N 
ATOM      2  C   UNL     1       3.898   4.315  18.056  0.00  0.00    +0.000 C 
ATOM      3  O   UNL     1       4.760   3.577  17.570  0.00  0.00    +0.000 OA
ENDROOT
BRANCH   1   7
ATOM      4  C   UNL     1       1.573   8.738  19.360  0.00  0.00    +0.000 A 
ATOM      5  C   UNL     1       1.624   8.653  17.965  0.00  0.00    +0.000 A 
ATOM      6  C   UNL     1       2.241   7.568  17.345  0.00  0.00    +0.000 A 
ATOM      7  C   UNL     1       2.861   6.588  18.121  0.00  0.00    +0.000 A 
ATOM      8  C   UNL     1       2.795   6.656  19.522  0.00  0.00    +0.000 A 
ATOM      9  C   UNL     1       2.177   7.746  20.141  0.00  0.00    +0.000 A 
BRANCH   4  13
ATOM     10  C   UNL     1      -0.591  10.921  21.636  0.00  0.00    +0.000 C 
ATOM     11  N   UNL     1      -0.020   9.733  21.015  0.00  0.00    +0.000 N 
ATOM     12  C   UNL     1      -0.340   8.453  21.634  0.00  0.00    +0.000 C 
ATOM     13  C   UNL     1       0.973   9.917  20.048  0.00  0.00    +0.000 C 
ATOM     14  O   UNL     1       1.381  11.030  19.728  0.00  0.00    +0.000 OA
ENDBRANCH   4  13
ENDBRANCH   1   7
BRANCH   2  15
ATOM     15  C   UNL     1       3.043   3.766  19.178  0.00  0.00    +0.000 A 
ATOM     16  C   UNL     1       1.648   3.902  19.168  0.00  0.00    +0.000 A 
ATOM     17  C   UNL     1       0.849   3.469  20.231  0.00  0.00    +0.000 A 
ATOM     18  C   UNL     1       1.434   2.771  21.267  0.00  0.00    +0.000 A 
ATOM     19  C   UNL     1       2.798   2.516  21.267  0.00  0.00    +0.000 A 
ATOM     20  C   UNL     1       3.603   3.031  20.238  0.00  0.00    +0.000 A 
BRANCH  18  21
ATOM     21  O   UNL     1       0.689   2.302  22.311  0.00  0.00    +0.000 OA
ATOM     22  H   UNL     1       0.207   3.048  22.707  0.00  0.00    +0.000 HD
ENDBRANCH  18  21
BRANCH  20  23
ATOM     23  O   UNL     1       4.954   2.805  20.319  0.00  0.00    +0.000 OA
ATOM     24  H   UNL     1       5.301   2.598  19.437  0.00  0.00    +0.000 HD
ENDBRANCH  20  23
ENDBRANCH   2  15
BRANCH   1  25
ATOM     25  C   UNL     1       4.778   6.070  16.611  0.00  0.00    +0.000 C 
BRANCH  25  26
ATOM     26  C   UNL     1       6.023   6.628  17.241  0.00  0.00    +0.000 A 
ATOM     27  C   UNL     1       7.002   5.924  17.989  0.00  0.00    +0.000 A 
ATOM     28  C   UNL     1       7.948   6.864  18.320  0.00  0.00    +0.000 A 
ATOM     29  N   UNL     1       7.514   8.035  17.777  0.00  0.00    +0.000 N 
ATOM     30  C   UNL     1       8.233   9.283  17.700  0.00  0.00    +0.000 C 
ATOM     31  N   UNL     1       6.303   7.942  17.206  0.00  0.00    +0.000 NA
ENDBRANCH  25  26
ENDBRANCH   1  25
TORSDOF 7
ENDMDL
MODEL 4
REMARK VINA RESULT:      -7.8      1.278      1.720
REMARK  Name = 
REMARK  10 active torsions:
REMARK  status: ('A' for Active; 'I' for Inactive)
REMARK    1  A    between atoms: C_1  and  N_2
REMARK    2  A    between atoms: N_2  and  C_3
REMARK    3  A    between atoms: C_4  and  C_6
REMARK    4  A    between atoms: C_9  and  N_10
REMARK    5  A    between atoms: N_10  and  C_11
REMARK    6  A    between atoms: C_11  and  C_12
REMARK    7  A    between atoms: N_15  and  C_16
REMARK    8  A    between atoms: C_18  and  C_20
REMARK    9  A    between atoms: C_23  and  O_24
REMARK   10  A    between atoms: C_26  and  O_27
REMARK                            x       y       z     vdW  Elec       q    Type
REMARK                         _______ _______ _______ _____ _____    ______ ____
ROOT
ATOM      1  N   UNL     1       4.543   6.048  16.796  0.00  0.00    +0.000 N 
ATOM      2  C   UNL     1       4.775   4.645  16.879  0.00  0.00    +0.000 C 
ATOM      3  O   UNL     1       5.742   4.150  16.291  0.00  0.00    +0.000 OA
ENDROOT
BRANCH   1   7
ATOM      4  C   UNL     1       1.981   8.224  19.313  0.00  0.00    +0.000 A 
ATOM      5  C   UNL     1       2.309   8.724  18.049  0.00  0.00    +0.000 A 
ATOM      6  C   UNL     1       3.075   7.965  17.166  0.00  0.00    +0.000 A 
ATOM      7  C   UNL     1       3.563   6.720  17.566  0.00  0.00    +0.000 A 
ATOM      8  C   UNL     1       3.219   6.203  18.825  0.00  0.00    +0.000 A 
ATOM      9  C   UNL     1       2.453   6.967  19.709  0.00  0.00    +0.000 A 
BRANCH   4  13
ATOM     10  C   UNL     1      -0.418  10.769  20.862  0.00  0.00    +0.000 C 
ATOM     11  N   UNL     1       0.281   9.980  19.856  0.00  0.00    +0.000 N 
ATOM     12  C   UNL     1      -0.235  10.050  18.495  0.00  0.00    +0.000 C 
ATOM     13  C   UNL     1       1.216   9.039  20.299  0.00  0.00    +0.000 C 
ATOM     14  O   UNL     1       1.445   8.851  21.491  0.00  0.00    +0.000 OA
ENDBRANCH   4  13
ENDBRANCH   1   7
BRANCH   2  15
ATOM     15  C   UNL     1       3.845   3.715  17.627  0.00  0.00    +0.000 A 
ATOM     16  C   UNL     1       2.544   3.460  17.171  0.00  0.00    +0.000 A 
ATOM     17  C   UNL     1       1.646   2.664  17.887  0.00  0.00    +0.000 A 
ATOM     18  C   UNL     1       2.088   2.004  19.015  0.00  0.00    +0.000 A 
ATOM     19  C   UNL     1       3.401   2.140  19.445  0.00  0.00    +0.000 A 
ATOM     20  C   UNL     1       4.270   3.009  18.766  0.00  0.00    +0.000 A 
BRANCH  18  21
ATOM     21  O   UNL     1       1.255   1.191  19.730  0.00  0.00    +0.000 OA
ATOM     22  H   UNL     1       0.602   1.747  20.189  0.00  0.00    +0.000 HD
ENDBRANCH  18  21
BRANCH  20  23
ATOM     23  O   UNL     1       5.538   3.157  19.270  0.00  0.00    +0.000 OA
ATOM     24  H   UNL     1       5.505   3.127  20.239  0.00  0.00    +0.000 HD
ENDBRANCH  20  23
ENDBRANCH   2  15
BRANCH   1  25
ATOM     25  C   UNL     1       5.673   6.820  16.238  0.00  0.00    +0.000 C 
BRANCH  25  26
ATOM     26  C   UNL     1       6.735   7.270  17.201  0.00  0.00    +0.000 A 
ATOM     27  C   UNL     1       7.453   6.473  18.130  0.00  0.00    +0.000 A 
ATOM     28  C   UNL     1       8.322   7.336  18.752  0.00  0.00    +0.000 A 
ATOM     29  N   UNL     1       8.097   8.556  18.191  0.00  0.00    +0.000 N 
ATOM     30  C   UNL     1       8.867   9.761  18.381  0.00  0.00    +0.000 C 
ATOM     31  N   UNL     1       7.074   8.565  17.323  0.00  0.00    +0.000 NA
ENDBRANCH  25  26
ENDBRANCH   1  25
TORSDOF 7
ENDMDL
MODEL 5
REMARK VINA RESULT:      -7.7      3.991      8.854
REMARK  Name = 
REMARK  10 active torsions:
REMARK  status: ('A' for Active; 'I' for Inactive)
REMARK    1  A    between atoms: C_1  and  N_2
REMARK    2  A    between atoms: N_2  and  C_3
REMARK    3  A    between atoms: C_4  and  C_6
REMARK    4  A    between atoms: C_9  and  N_10
REMARK    5  A    between atoms: N_10  and  C_11
REMARK    6  A    between atoms: C_11  and  C_12
REMARK    7  A    between atoms: N_15  and  C_16
REMARK    8  A    between atoms: C_18  and  C_20
REMARK    9  A    between atoms: C_23  and  O_24
REMARK   10  A    between atoms: C_26  and  O_27
REMARK                            x       y       z     vdW  Elec       q    Type
REMARK                         _______ _______ _______ _____ _____    ______ ____
ROOT
ATOM      1  N   UNL     1      -0.490  10.924  18.856  0.00  0.00    +0.000 N 
ATOM      2  C   UNL     1      -0.326  12.299  19.188  0.00  0.00    +0.000 C 
ATOM      3  O   UNL     1      -1.319  13.026  19.293  0.00  0.00    +0.000 OA
ENDROOT
BRANCH   1   7
ATOM      4  C   UNL     1       2.340   7.822  18.892  0.00  0.00    +0.000 A 
ATOM      5  C   UNL     1       2.053   8.493  17.698  0.00  0.00    +0.000 A 
ATOM      6  C   UNL     1       1.194   9.590  17.694  0.00  0.00    +0.000 A 
ATOM      7  C   UNL     1       0.571   9.987  18.878  0.00  0.00    +0.000 A 
ATOM      8  C   UNL     1       0.870   9.331  20.082  0.00  0.00    +0.000 A 
ATOM      9  C   UNL     1       1.732   8.231  20.084  0.00  0.00    +0.000 A 
BRANCH   4  13
ATOM     10  C   UNL     1       3.799   4.399  19.776  0.00  0.00    +0.000 C 
ATOM     11  N   UNL     1       2.903   5.548  19.773  0.00  0.00    +0.000 N 
ATOM     12  C   UNL     1       1.630   5.386  20.464  0.00  0.00    +0.000 C 
ATOM     13  C   UNL     1       3.207   6.610  18.916  0.00  0.00    +0.000 C 
ATOM     14  O   UNL     1       4.180   6.592  18.167  0.00  0.00    +0.000 OA
ENDBRANCH   4  13
ENDBRANCH   1   7
BRANCH   2  15
ATOM     15  C   UNL     1       1.037  12.929  19.372  0.00  0.00    +0.000 A 
ATOM     16  C   UNL     1       1.834  13.283  18.273  0.00  0.00    +0.000 A 
ATOM     17  C   UNL     1       3.126  13.794  18.423  0.00  0.00    +0.000 A 
ATOM     18  C   UNL     1       3.590  14.081  19.690  0.00  0.00    +0.000 A 
ATOM     19  C   UNL     1       2.795  13.849  20.804  0.00  0.00    +0.000 A 
ATOM     20  C   UNL     1       1.532  13.255  20.647  0.00  0.00    +0.000 A 
BRANCH  18  21
ATOM     21  O   UNL     1       4.833  14.612  19.884  0.00  0.00    +0.000 OA
ATOM     22  H   UNL     1       5.492  13.990  19.528  0.00  0.00    +0.000 HD
ENDBRANCH  18  21
BRANCH  20  23
ATOM     23  O   UNL     1       0.813  12.987  21.785  0.00  0.00    +0.000 OA
ATOM     24  H   UNL     1      -0.083  13.347  21.692  0.00  0.00    +0.000 HD
ENDBRANCH  20  23
ENDBRANCH   2  15
BRANCH   1  25
ATOM     25  C   UNL     1      -1.882  10.436  18.956  0.00  0.00    +0.000 C 
BRANCH  25  26
ATOM     26  C   UNL     1      -2.750  10.589  17.738  0.00  0.00    +0.000 A 
ATOM     27  C   UNL     1      -3.964  11.314  17.630  0.00  0.00    +0.000 A 
ATOM     28  C   UNL     1      -4.354  11.173  16.319  0.00  0.00    +0.000 A 
ATOM     29  N   UNL     1      -3.396  10.406  15.729  0.00  0.00    +0.000 N 
ATOM     30  C   UNL     1      -3.255  10.112  14.324  0.00  0.00    +0.000 C 
ATOM     31  N   UNL     1      -2.468   9.956  16.587  0.00  0.00    +0.000 NA
ENDBRANCH  25  26
ENDBRANCH   1  25
TORSDOF 7
ENDMDL
MODEL 6
REMARK VINA RESULT:      -7.7      1.185      1.922
REMARK  Name = 
REMARK  10 active torsions:
REMARK  status: ('A' for Active; 'I' for Inactive)
REMARK    1  A    between atoms: C_1  and  N_2
REMARK    2  A    between atoms: N_2  and  C_3
REMARK    3  A    between atoms: C_4  and  C_6
REMARK    4  A    between atoms: C_9  and  N_10
REMARK    5  A    between atoms: N_10  and  C_11
REMARK    6  A    between atoms: C_11  and  C_12
REMARK    7  A    between atoms: N_15  and  C_16
REMARK    8  A    between atoms: C_18  and  C_20
REMARK    9  A    between atoms: C_23  and  O_24
REMARK   10  A    between atoms: C_26  and  O_27
REMARK                            x       y       z     vdW  Elec       q    Type
REMARK                         _______ _______ _______ _____ _____    ______ ____
ROOT
ATOM      1  N   UNL     1       3.662   5.827  17.536  0.00  0.00    +0.000 N 
ATOM      2  C   UNL     1       3.850   4.507  18.033  0.00  0.00    +0.000 C 
ATOM      3  O   UNL     1       4.707   3.778  17.525  0.00  0.00    +0.000 OA
ENDROOT
BRANCH   1   7
ATOM      4  C   UNL     1       1.553   8.847  19.552  0.00  0.00    +0.000 A 
ATOM      5  C   UNL     1       1.833   8.982  18.188  0.00  0.00    +0.000 A 
ATOM      6  C   UNL     1       2.441   7.942  17.486  0.00  0.00    +0.000 A 
ATOM      7  C   UNL     1       2.823   6.782  18.160  0.00  0.00    +0.000 A 
ATOM      8  C   UNL     1       2.526   6.632  19.525  0.00  0.00    +0.000 A 
ATOM      9  C   UNL     1       1.918   7.676  20.226  0.00  0.00    +0.000 A 
BRANCH   4  13
ATOM     10  C   UNL     1      -0.647  11.786  20.627  0.00  0.00    +0.000 C 
ATOM     11  N   UNL     1      -0.124  10.686  19.827  0.00  0.00    +0.000 N 
ATOM     12  C   UNL     1      -0.931  10.262  18.690  0.00  0.00    +0.000 C 
ATOM     13  C   UNL     1       0.959   9.965  20.340  0.00  0.00    +0.000 C 
ATOM     14  O   UNL     1       1.459  10.219  21.432  0.00  0.00    +0.000 OA
ENDBRANCH   4  13
ENDBRANCH   1   7
BRANCH   2  15
ATOM     15  C   UNL     1       2.996   3.932  19.143  0.00  0.00    +0.000 A 
ATOM     16  C   UNL     1       3.469   3.847  20.460  0.00  0.00    +0.000 A 
ATOM     17  C   UNL     1       2.726   3.251  21.482  0.00  0.00    +0.000 A 
ATOM     18  C   UNL     1       1.433   2.845  21.221  0.00  0.00    +0.000 A 
ATOM     19  C   UNL     1       0.882   3.009  19.958  0.00  0.00    +0.000 A 
ATOM     20  C   UNL     1       1.668   3.530  18.917  0.00  0.00    +0.000 A 
BRANCH  18  21
ATOM     21  O   UNL     1       0.658   2.286  22.196  0.00  0.00    +0.000 OA
ATOM     22  H   UNL     1       0.315   1.437  21.869  0.00  0.00    +0.000 HD
ENDBRANCH  18  21
BRANCH  20  23
ATOM     23  O   UNL     1       1.096   3.611  17.672  0.00  0.00    +0.000 OA
ATOM     24  H   UNL     1       1.762   3.903  17.030  0.00  0.00    +0.000 HD
ENDBRANCH  20  23
ENDBRANCH   2  15
BRANCH   1  25
ATOM     25  C   UNL     1       4.734   6.295  16.632  0.00  0.00    +0.000 C 
BRANCH  25  26
ATOM     26  C   UNL     1       6.005   6.780  17.271  0.00  0.00    +0.000 A 
ATOM     27  C   UNL     1       6.963   6.011  17.980  0.00  0.00    +0.000 A 
ATOM     28  C   UNL     1       7.947   6.901  18.340  0.00  0.00    +0.000 A 
ATOM     29  N   UNL     1       7.551   8.108  17.849  0.00  0.00    +0.000 N 
ATOM     30  C   UNL     1       8.316   9.330  17.816  0.00  0.00    +0.000 C 
ATOM     31  N   UNL     1       6.333   8.083  17.287  0.00  0.00    +0.000 NA
ENDBRANCH  25  26
ENDBRANCH   1  25
TORSDOF 7
ENDMDL
MODEL 7
REMARK VINA RESULT:      -7.7      2.355      5.485
REMARK  Name = 
REMARK  10 active torsions:
REMARK  status: ('A' for Active; 'I' for Inactive)
REMARK    1  A    between atoms: C_1  and  N_2
REMARK    2  A    between atoms: N_2  and  C_3
REMARK    3  A    between atoms: C_4  and  C_6
REMARK    4  A    between atoms: C_9  and  N_10
REMARK    5  A    between atoms: N_10  and  C_11
REMARK    6  A    between atoms: C_11  and  C_12
REMARK    7  A    between atoms: N_15  and  C_16
REMARK    8  A    between atoms: C_18  and  C_20
REMARK    9  A    between atoms: C_23  and  O_24
REMARK   10  A    between atoms: C_26  and  O_27
REMARK                            x       y       z     vdW  Elec       q    Type
REMARK                         _______ _______ _______ _____ _____    ______ ____
ROOT
ATOM      1  N   UNL     1       4.936   5.136  17.452  0.00  0.00    +0.000 N 
ATOM      2  C   UNL     1       6.332   5.278  17.212  0.00  0.00    +0.000 C 
ATOM      3  O   UNL     1       6.944   4.388  16.614  0.00  0.00    +0.000 OA
ENDROOT
BRANCH   1   7
ATOM      4  C   UNL     1       2.197   8.029  18.778  0.00  0.00    +0.000 A 
ATOM      5  C   UNL     1       2.491   6.924  19.584  0.00  0.00    +0.000 A 
ATOM      6  C   UNL     1       3.473   6.012  19.201  0.00  0.00    +0.000 A 
ATOM      7  C   UNL     1       4.128   6.172  17.979  0.00  0.00    +0.000 A 
ATOM      8  C   UNL     1       3.852   7.290  17.176  0.00  0.00    +0.000 A 
ATOM      9  C   UNL     1       2.867   8.202  17.562  0.00  0.00    +0.000 A 
BRANCH   4  13
ATOM     10  C   UNL     1      -0.383  10.050  20.752  0.00  0.00    +0.000 C 
ATOM     11  N   UNL     1       0.703   9.121  20.464  0.00  0.00    +0.000 N 
ATOM     12  C   UNL     1       1.445   8.608  21.609  0.00  0.00    +0.000 C 
ATOM     13  C   UNL     1       1.110   8.986  19.133  0.00  0.00    +0.000 C 
ATOM     14  O   UNL     1       0.600   9.631  18.221  0.00  0.00    +0.000 OA
ENDBRANCH   4  13
ENDBRANCH   1   7
BRANCH   2  15
ATOM     15  C   UNL     1       7.120   6.470  17.709  0.00  0.00    +0.000 A 
ATOM     16  C   UNL     1       7.021   7.724  17.088  0.00  0.00    +0.000 A 
ATOM     17  C   UNL     1       7.797   8.816  17.485  0.00  0.00    +0.000 A 
ATOM     18  C   UNL     1       8.596   8.699  18.604  0.00  0.00    +0.000 A 
ATOM     19  C   UNL     1       8.644   7.510  19.317  0.00  0.00    +0.000 A 
ATOM     20  C   UNL     1       7.926   6.393  18.859  0.00  0.00    +0.000 A 
BRANCH  18  21
ATOM     21  O   UNL     1       9.347   9.749  19.047  0.00  0.00    +0.000 OA
ATOM     22  H   UNL     1      10.209   9.724  18.597  0.00  0.00    +0.000 HD
ENDBRANCH  18  21
BRANCH  20  23
ATOM     23  O   UNL     1       8.059   5.223  19.564  0.00  0.00    +0.000 OA
ATOM     24  H   UNL     1       7.180   4.880  19.788  0.00  0.00    +0.000 HD
ENDBRANCH  20  23
ENDBRANCH   2  15
BRANCH   1  25
ATOM     25  C   UNL     1       4.297   4.042  16.691  0.00  0.00    +0.000 C 
BRANCH  25  26
ATOM     26  C   UNL     1       3.404   3.106  17.456  0.00  0.00    +0.000 A 
ATOM     27  C   UNL     1       3.771   1.897  18.100  0.00  0.00    +0.000 A 
ATOM     28  C   UNL     1       2.615   1.429  18.678  0.00  0.00    +0.000 A 
ATOM     29  N   UNL     1       1.652   2.341  18.369  0.00  0.00    +0.000 N 
ATOM     30  C   UNL     1       0.304   2.395  18.879  0.00  0.00    +0.000 C 
ATOM     31  N   UNL     1       2.079   3.312  17.547  0.00  0.00    +0.000 NA
ENDBRANCH  25  26
ENDBRANCH   1  25
TORSDOF 7
ENDMDL
MODEL 8
REMARK VINA RESULT:      -7.7      3.971      8.901
REMARK  Name = 
REMARK  10 active torsions:
REMARK  status: ('A' for Active; 'I' for Inactive)
REMARK    1  A    between atoms: C_1  and  N_2
REMARK    2  A    between atoms: N_2  and  C_3
REMARK    3  A    between atoms: C_4  and  C_6
REMARK    4  A    between atoms: C_9  and  N_10
REMARK    5  A    between atoms: N_10  and  C_11
REMARK    6  A    between atoms: C_11  and  C_12
REMARK    7  A    between atoms: N_15  and  C_16
REMARK    8  A    between atoms: C_18  and  C_20
REMARK    9  A    between atoms: C_23  and  O_24
REMARK   10  A    between atoms: C_26  and  O_27
REMARK                            x       y       z     vdW  Elec       q    Type
REMARK                         _______ _______ _______ _____ _____    ______ ____
ROOT
ATOM      1  N   UNL     1      -0.491  10.982  18.837  0.00  0.00    +0.000 N 
ATOM      2  C   UNL     1      -0.284  12.365  19.106  0.00  0.00    +0.000 C 
ATOM      3  O   UNL     1      -1.250  13.132  19.145  0.00  0.00    +0.000 OA
ENDROOT
BRANCH   1   7
ATOM      4  C   UNL     1       2.215   7.783  19.110  0.00  0.00    +0.000 A 
ATOM      5  C   UNL     1       1.986   8.400  17.876  0.00  0.00    +0.000 A 
ATOM      6  C   UNL     1       1.169   9.527  17.791  0.00  0.00    +0.000 A 
ATOM      7  C   UNL     1       0.532  10.009  18.936  0.00  0.00    +0.000 A 
ATOM      8  C   UNL     1       0.775   9.405  20.180  0.00  0.00    +0.000 A 
ATOM      9  C   UNL     1       1.593   8.276  20.262  0.00  0.00    +0.000 A 
BRANCH   4  13
ATOM     10  C   UNL     1       4.720   4.988  18.370  0.00  0.00    +0.000 C 
ATOM     11  N   UNL     1       3.967   6.227  18.226  0.00  0.00    +0.000 N 
ATOM     12  C   UNL     1       4.429   7.159  17.206  0.00  0.00    +0.000 C 
ATOM     13  C   UNL     1       3.034   6.542  19.220  0.00  0.00    +0.000 C 
ATOM     14  O   UNL     1       2.850   5.824  20.200  0.00  0.00    +0.000 OA
ENDBRANCH   4  13
ENDBRANCH   1   7
BRANCH   2  15
ATOM     15  C   UNL     1       1.097  12.952  19.301  0.00  0.00    +0.000 A 
ATOM     16  C   UNL     1       1.905  13.299  18.208  0.00  0.00    +0.000 A 
ATOM     17  C   UNL     1       3.211  13.771  18.366  0.00  0.00    +0.000 A 
ATOM     18  C   UNL     1       3.682  14.025  19.638  0.00  0.00    +0.000 A 
ATOM     19  C   UNL     1       2.879  13.800  20.748  0.00  0.00    +0.000 A 
ATOM     20  C   UNL     1       1.600  13.244  20.581  0.00  0.00    +0.000 A 
BRANCH  18  21
ATOM     21  O   UNL     1       4.940  14.516  19.840  0.00  0.00    +0.000 OA
ATOM     22  H   UNL     1       5.523  13.778  20.086  0.00  0.00    +0.000 HD
ENDBRANCH  18  21
BRANCH  20  23
ATOM     23  O   UNL     1       0.872  12.981  21.714  0.00  0.00    +0.000 OA
ATOM     24  H   UNL     1       0.208  13.677  21.840  0.00  0.00    +0.000 HD
ENDBRANCH  20  23
ENDBRANCH   2  15
BRANCH   1  25
ATOM     25  C   UNL     1      -1.903  10.552  18.918  0.00  0.00    +0.000 C 
BRANCH  25  26
ATOM     26  C   UNL     1      -2.722  10.651  17.662  0.00  0.00    +0.000 A 
ATOM     27  C   UNL     1      -3.945  11.348  17.481  0.00  0.00    +0.000 A 
ATOM     28  C   UNL     1      -4.276  11.159  16.161  0.00  0.00    +0.000 A 
ATOM     29  N   UNL     1      -3.280  10.395  15.634  0.00  0.00    +0.000 N 
ATOM     30  C   UNL     1      -3.075  10.062  14.246  0.00  0.00    +0.000 C 
ATOM     31  N   UNL     1      -2.380   9.990  16.543  0.00  0.00    +0.000 NA
ENDBRANCH  25  26
ENDBRANCH   1  25
TORSDOF 7
ENDMDL
MODEL 9
REMARK VINA RESULT:      -7.5      3.461      7.906
REMARK  Name = 
REMARK  10 active torsions:
REMARK  status: ('A' for Active; 'I' for Inactive)
REMARK    1  A    between atoms: C_1  and  N_2
REMARK    2  A    between atoms: N_2  and  C_3
REMARK    3  A    between atoms: C_4  and  C_6
REMARK    4  A    between atoms: C_9  and  N_10
REMARK    5  A    between atoms: N_10  and  C_11
REMARK    6  A    between atoms: C_11  and  C_12
REMARK    7  A    between atoms: N_15  and  C_16
REMARK    8  A    between atoms: C_18  and  C_20
REMARK    9  A    between atoms: C_23  and  O_24
REMARK   10  A    between atoms: C_26  and  O_27
REMARK                            x       y       z     vdW  Elec       q    Type
REMARK                         _______ _______ _______ _____ _____    ______ ____
ROOT
ATOM      1  N   UNL     1      -0.028  10.850  20.301  0.00  0.00    +0.000 N 
ATOM      2  C   UNL     1      -1.128  11.537  19.714  0.00  0.00    +0.000 C 
ATOM      3  O   UNL     1      -1.566  12.561  20.248  0.00  0.00    +0.000 OA
ENDROOT
BRANCH   1   7
ATOM      4  C   UNL     1       2.337   7.877  18.511  0.00  0.00    +0.000 A 
ATOM      5  C   UNL     1       1.926   7.737  19.841  0.00  0.00    +0.000 A 
ATOM      6  C   UNL     1       1.057   8.665  20.413  0.00  0.00    +0.000 A 
ATOM      7  C   UNL     1       0.639   9.771  19.672  0.00  0.00    +0.000 A 
ATOM      8  C   UNL     1       1.032   9.907  18.331  0.00  0.00    +0.000 A 
ATOM      9  C   UNL     1       1.903   8.976  17.760  0.00  0.00    +0.000 A 
BRANCH   4  13
ATOM     10  C   UNL     1       4.023   4.688  17.240  0.00  0.00    +0.000 C 
ATOM     11  N   UNL     1       3.022   5.568  17.829  0.00  0.00    +0.000 N 
ATOM     12  C   UNL     1       1.703   4.995  18.063  0.00  0.00    +0.000 C 
ATOM     13  C   UNL     1       3.312   6.935  17.893  0.00  0.00    +0.000 C 
ATOM     14  O   UNL     1       4.360   7.405  17.457  0.00  0.00    +0.000 OA
ENDBRANCH   4  13
ENDBRANCH   1   7
BRANCH   2  15
ATOM     15  C   UNL     1      -1.827  11.032  18.470  0.00  0.00    +0.000 A 
ATOM     16  C   UNL     1      -2.624   9.878  18.498  0.00  0.00    +0.000 A 
ATOM     17  C   UNL     1      -3.215   9.353  17.345  0.00  0.00    +0.000 A 
ATOM     18  C   UNL     1      -3.119  10.057  16.162  0.00  0.00    +0.000 A 
ATOM     19  C   UNL     1      -2.431  11.262  16.111  0.00  0.00    +0.000 A 
ATOM     20  C   UNL     1      -1.769  11.736  17.255  0.00  0.00    +0.000 A 
BRANCH  18  21
ATOM     21  O   UNL     1      -3.706   9.599  15.018  0.00  0.00    +0.000 OA
ATOM     22  H   UNL     1      -3.623   8.630  14.995  0.00  0.00    +0.000 HD
ENDBRANCH  18  21
BRANCH  20  23
ATOM     23  O   UNL     1      -1.049  12.898  17.133  0.00  0.00    +0.000 OA
ATOM     24  H   UNL     1      -0.583  13.077  17.965  0.00  0.00    +0.000 HD
ENDBRANCH  20  23
ENDBRANCH   2  15
BRANCH   1  25
ATOM     25  C   UNL     1       0.673  11.613  21.355  0.00  0.00    +0.000 C 
BRANCH  25  26
ATOM     26  C   UNL     1       1.426  12.840  20.926  0.00  0.00    +0.000 A 
ATOM     27  C   UNL     1       2.210  13.006  19.755  0.00  0.00    +0.000 A 
ATOM     28  C   UNL     1       2.663  14.302  19.804  0.00  0.00    +0.000 A 
ATOM     29  N   UNL     1       2.151  14.830  20.950  0.00  0.00    +0.000 N 
ATOM     30  C   UNL     1       2.197  16.208  21.374  0.00  0.00    +0.000 C 
ATOM     31  N   UNL     1       1.483  13.939  21.698  0.00  0.00    +0.000 NA
ENDBRANCH  25  26
ENDBRANCH   1  25
TORSDOF 7
ENDMDL
