MODEL 1
REMARK VINA RESULT:      -7.5      0.000      0.000
REMARK  Name = 
REMARK  9 active torsions:
REMARK  status: ('A' for Active; 'I' for Inactive)
REMARK    1  A    between atoms: C_1  and  O_2
REMARK    2  A    between atoms: O_2  and  C_3
REMARK    3  A    between atoms: C_6  and  C_7
REMARK    4  A    between atoms: C_12  and  O_13
REMARK    5  A    between atoms: C_15  and  O_16
REMARK    6  A    between atoms: C_21  and  C_22
REMARK    7  A    between atoms: C_22  and  C_23
REMARK    8  A    between atoms: C_24  and  C_25
REMARK    9  A    between atoms: C_24  and  C_26
REMARK                            x       y       z     vdW  Elec       q    Type
REMARK                         _______ _______ _______ _____ _____    ______ ____
ROOT
ATOM      1  C   UNL     1       5.023   3.688  17.231  0.00  0.00    +0.000 C 
ATOM      2  C   UNL     1       5.761   3.813  18.571  0.00  0.00    +0.000 C 
ATOM      3  O   UNL     1       5.020   3.313  19.701  0.00  0.00    +0.000 OA
ATOM      4  C   UNL     1       3.660   3.470  19.655  0.00  0.00    +0.000 A 
ATOM      5  C   UNL     1       2.948   3.009  20.762  0.00  0.00    +0.000 A 
ATOM      6  C   UNL     1       1.556   3.039  20.739  0.00  0.00    +0.000 A 
ATOM      7  C   UNL     1       0.859   3.502  19.624  0.00  0.00    +0.000 A 
ATOM      8  C   UNL     1       1.571   3.985  18.530  0.00  0.00    +0.000 A 
ATOM      9  C   UNL     1       2.967   3.996  18.563  0.00  0.00    +0.000 A 
ATOM     10  C   UNL     1       3.774   4.504  17.450  0.00  0.00    +0.000 C 
ATOM     11  O   UNL     1       3.477   5.533  16.856  0.00  0.00    +0.000 OA
ENDROOT
BRANCH   1  15
ATOM     12  C   UNL     1       7.107   4.788  13.578  0.00  0.00    +0.000 A 
ATOM     13  C   UNL     1       7.690   5.027  14.830  0.00  0.00    +0.000 A 
ATOM     14  C   UNL     1       7.042   4.676  16.012  0.00  0.00    +0.000 A 
ATOM     15  C   UNL     1       5.785   4.078  15.974  0.00  0.00    +0.000 A 
ATOM     16  C   UNL     1       5.215   3.801  14.715  0.00  0.00    +0.000 A 
ATOM     17  C   UNL     1       5.870   4.123  13.508  0.00  0.00    +0.000 A 
BRANCH  12  19
ATOM     18  C   UNL     1       8.753   6.114  12.529  0.00  0.00    +0.000 C 
ATOM     19  O   UNL     1       7.712   5.144  12.400  0.00  0.00    +0.000 OA
ENDBRANCH  12  19
BRANCH  17  20
ATOM     20  C   UNL     1       5.237   3.690  12.192  0.00  0.00    +0.000 C 
BRANCH  20  21
ATOM     21  C   UNL     1       5.246   2.206  11.927  0.00  0.00    +0.000 C 
ATOM     22  C   UNL     1       6.248   1.486  11.384  0.00  0.00    +0.000 C 
ATOM     23  C   UNL     1       7.553   2.052  10.880  0.00  0.00    +0.000 C 
ATOM     24  C   UNL     1       6.135  -0.008  11.223  0.00  0.00    +0.000 C 
ENDBRANCH  20  21
ENDBRANCH  17  20
ENDBRANCH   1  15
BRANCH   6  25
ATOM     25  O   UNL     1       0.815   2.591  21.794  0.00  0.00    +0.000 OA
ATOM     26  H   UNL     1       0.152   3.263  22.024  0.00  0.00    +0.000 HD
ENDBRANCH   6  25
BRANCH   8  27
ATOM     27  O   UNL     1       0.910   4.363  17.399  0.00  0.00    +0.000 OA
ATOM     28  H   UNL     1      -0.029   4.126  17.469  0.00  0.00    +0.000 HD
ENDBRANCH   8  27
TORSDOF 6
ENDMDL
MODEL 2
REMARK VINA RESULT:      -7.5      5.773      8.631
REMARK  Name = 
REMARK  9 active torsions:
REMARK  status: ('A' for Active; 'I' for Inactive)
REMARK    1  A    between atoms: C_1  and  O_2
REMARK    2  A    between atoms: O_2  and  C_3
REMARK    3  A    between atoms: C_6  and  C_7
REMARK    4  A    between atoms: C_12  and  O_13
REMARK    5  A    between atoms: C_15  and  O_16
REMARK    6  A    between atoms: C_21  and  C_22
REMARK    7  A    between atoms: C_22  and  C_23
REMARK    8  A    between atoms: C_24  and  C_25
REMARK    9  A    between atoms: C_24  and  C_26
REMARK                            x       y       z     vdW  Elec       q    Type
REMARK                         _______ _______ _______ _____ _____    ______ ____
ROOT
ATOM      1  C   UNL     1       2.232   7.751  17.910  0.00  0.00    +0.000 C 
ATOM      2  C   UNL     1       3.690   7.714  17.431  0.00  0.00    +0.000 C 
ATOM      3  O   UNL     1       4.178   6.391  17.134  0.00  0.00    +0.000 OA
ATOM      4  C   UNL     1       3.690   5.373  17.909  0.00  0.00    +0.000 A 
ATOM      5  C   UNL     1       4.186   4.098  17.636  0.00  0.00    +0.000 A 
ATOM      6  C   UNL     1       3.656   3.001  18.311  0.00  0.00    +0.000 A 
ATOM      7  C   UNL     1       2.627   3.150  19.240  0.00  0.00    +0.000 A 
ATOM      8  C   UNL     1       2.151   4.425  19.529  0.00  0.00    +0.000 A 
ATOM      9  C   UNL     1       2.706   5.533  18.886  0.00  0.00    +0.000 A 
ATOM     10  C   UNL     1       2.258   6.902  19.157  0.00  0.00    +0.000 C 
ATOM     11  O   UNL     1       2.035   7.294  20.296  0.00  0.00    +0.000 OA
ENDROOT
BRANCH   1  15
ATOM     12  C   UNL     1       0.329  11.609  18.537  0.00  0.00    +0.000 A 
ATOM     13  C   UNL     1       1.725  11.486  18.594  0.00  0.00    +0.000 A 
ATOM     14  C   UNL     1       2.354  10.260  18.389  0.00  0.00    +0.000 A 
ATOM     15  C   UNL     1       1.601   9.118  18.126  0.00  0.00    +0.000 A 
ATOM     16  C   UNL     1       0.202   9.249  18.030  0.00  0.00    +0.000 A 
ATOM     17  C   UNL     1      -0.451  10.487  18.205  0.00  0.00    +0.000 A 
BRANCH  12  19
ATOM     18  C   UNL     1       0.542  13.925  18.936  0.00  0.00    +0.000 C 
ATOM     19  O   UNL     1      -0.318  12.798  18.757  0.00  0.00    +0.000 OA
ENDBRANCH  12  19
BRANCH  17  20
ATOM     20  C   UNL     1      -1.954  10.563  17.975  0.00  0.00    +0.000 C 
BRANCH  20  21
ATOM     21  C   UNL     1      -2.418  10.175  16.594  0.00  0.00    +0.000 C 
ATOM     22  C   UNL     1      -3.537  10.592  15.969  0.00  0.00    +0.000 C 
ATOM     23  C   UNL     1      -4.584  11.499  16.567  0.00  0.00    +0.000 C 
ATOM     24  C   UNL     1      -3.850  10.156  14.560  0.00  0.00    +0.000 C 
ENDBRANCH  20  21
ENDBRANCH  17  20
ENDBRANCH   1  15
BRANCH   6  25
ATOM     25  O   UNL     1       4.101   1.734  18.073  0.00  0.00    +0.000 OA
ATOM     26  H   UNL     1       4.649   1.736  17.269  0.00  0.00    +0.000 HD
ENDBRANCH   6  25
BRANCH   8  27
ATOM     27  O   UNL     1       1.090   4.582  20.371  0.00  0.00    +0.000 OA
ATOM     28  H   UNL     1       1.266   4.131  21.213  0.00  0.00    +0.000 HD
ENDBRANCH   8  27
TORSDOF 6
ENDMDL
MODEL 3
REMARK VINA RESULT:      -7.5      4.787      7.128
REMARK  Name = 
REMARK  9 active torsions:
REMARK  status: ('A' for Active; 'I' for Inactive)
REMARK    1  A    between atoms: C_1  and  O_2
REMARK    2  A    between atoms: O_2  and  C_3
REMARK    3  A    between atoms: C_6  and  C_7
REMARK    4  A    between atoms: C_12  and  O_13
REMARK    5  A    between atoms: C_15  and  O_16
REMARK    6  A    between atoms: C_21  and  C_22
REMARK    7  A    between atoms: C_22  and  C_23
REMARK    8  A    between atoms: C_24  and  C_25
REMARK    9  A    between atoms: C_24  and  C_26
REMARK                            x       y       z     vdW  Elec       q    Type
REMARK                         _______ _______ _______ _____ _____    ______ ____
ROOT
ATOM      1  C   UNL     1       2.126   8.356  18.452  0.00  0.00    +0.000 C 
ATOM      2  C   UNL     1       0.889   8.710  17.613  0.00  0.00    +0.000 C 
ATOM      3  O   UNL     1       0.219   9.914  18.032  0.00  0.00    +0.000 OA
ATOM      4  C   UNL     1       0.231  10.183  19.375  0.00  0.00    +0.000 A 
ATOM      5  C   UNL     1      -0.441  11.336  19.779  0.00  0.00    +0.000 A 
ATOM      6  C   UNL     1      -0.380  11.729  21.115  0.00  0.00    +0.000 A 
ATOM      7  C   UNL     1       0.355  11.003  22.050  0.00  0.00    +0.000 A 
ATOM      8  C   UNL     1       1.005   9.840  21.650  0.00  0.00    +0.000 A 
ATOM      9  C   UNL     1       0.914   9.418  20.323  0.00  0.00    +0.000 A 
ATOM     10  C   UNL     1       1.564   8.195  19.842  0.00  0.00    +0.000 C 
ATOM     11  O   UNL     1       1.543   7.157  20.491  0.00  0.00    +0.000 OA
ENDROOT
BRANCH   1  15
ATOM     12  C   UNL     1       4.419   4.900  17.148  0.00  0.00    +0.000 A 
ATOM     13  C   UNL     1       5.009   6.172  17.192  0.00  0.00    +0.000 A 
ATOM     14  C   UNL     1       4.294   7.290  17.613  0.00  0.00    +0.000 A 
ATOM     15  C   UNL     1       2.961   7.169  17.999  0.00  0.00    +0.000 A 
ATOM     16  C   UNL     1       2.378   5.885  17.992  0.00  0.00    +0.000 A 
ATOM     17  C   UNL     1       3.096   4.737  17.596  0.00  0.00    +0.000 A 
BRANCH  12  19
ATOM     18  C   UNL     1       5.994   4.013  15.630  0.00  0.00    +0.000 C 
ATOM     19  O   UNL     1       5.092   3.787  16.716  0.00  0.00    +0.000 OA
ENDBRANCH  12  19
BRANCH  17  20
ATOM     20  C   UNL     1       2.428   3.374  17.723  0.00  0.00    +0.000 C 
BRANCH  20  21
ATOM     21  C   UNL     1       1.710   3.125  19.025  0.00  0.00    +0.000 C 
ATOM     22  C   UNL     1       2.267   2.800  20.209  0.00  0.00    +0.000 C 
ATOM     23  C   UNL     1       3.739   2.566  20.444  0.00  0.00    +0.000 C 
ATOM     24  C   UNL     1       1.424   2.628  21.446  0.00  0.00    +0.000 C 
ENDBRANCH  20  21
ENDBRANCH  17  20
ENDBRANCH   1  15
BRANCH   6  25
ATOM     25  O   UNL     1      -1.013  12.854  21.556  0.00  0.00    +0.000 OA
ATOM     26  H   UNL     1      -1.552  13.220  20.835  0.00  0.00    +0.000 HD
ENDBRANCH   6  25
BRANCH   8  27
ATOM     27  O   UNL     1       1.796   9.164  22.531  0.00  0.00    +0.000 OA
ATOM     28  H   UNL     1       1.897   9.677  23.348  0.00  0.00    +0.000 HD
ENDBRANCH   8  27
TORSDOF 6
ENDMDL
MODEL 4
REMARK VINA RESULT:      -7.4      0.988      1.628
REMARK  Name = 
REMARK  9 active torsions:
REMARK  status: ('A' for Active; 'I' for Inactive)
REMARK    1  A    between atoms: C_1  and  O_2
REMARK    2  A    between atoms: O_2  and  C_3
REMARK    3  A    between atoms: C_6  and  C_7
REMARK    4  A    between atoms: C_12  and  O_13
REMARK    5  A    between atoms: C_15  and  O_16
REMARK    6  A    between atoms: C_21  and  C_22
REMARK    7  A    between atoms: C_22  and  C_23
REMARK    8  A    between atoms: C_24  and  C_25
REMARK    9  A    between atoms: C_24  and  C_26
REMARK                            x       y       z     vdW  Elec       q    Type
REMARK                         _______ _______ _______ _____ _____    ______ ____
ROOT
ATOM      1  C   UNL     1       5.007   3.700  17.361  0.00  0.00    +0.000 C 
ATOM      2  C   UNL     1       5.749   3.911  18.689  0.00  0.00    +0.000 C 
ATOM      3  O   UNL     1       5.046   3.410  19.842  0.00  0.00    +0.000 OA
ATOM      4  C   UNL     1       3.679   3.492  19.806  0.00  0.00    +0.000 A 
ATOM      5  C   UNL     1       3.003   3.031  20.935  0.00  0.00    +0.000 A 
ATOM      6  C   UNL     1       1.611   2.984  20.926  0.00  0.00    +0.000 A 
ATOM      7  C   UNL     1       0.881   3.371  19.803  0.00  0.00    +0.000 A 
ATOM      8  C   UNL     1       1.556   3.854  18.686  0.00  0.00    +0.000 A 
ATOM      9  C   UNL     1       2.949   3.942  18.704  0.00  0.00    +0.000 A 
ATOM     10  C   UNL     1       3.717   4.454  17.566  0.00  0.00    +0.000 C 
ATOM     11  O   UNL     1       3.359   5.445  16.941  0.00  0.00    +0.000 OA
ENDROOT
BRANCH   1  15
ATOM     12  C   UNL     1       7.005   4.764  13.650  0.00  0.00    +0.000 A 
ATOM     13  C   UNL     1       7.441   5.297  14.872  0.00  0.00    +0.000 A 
ATOM     14  C   UNL     1       6.819   4.963  16.072  0.00  0.00    +0.000 A 
ATOM     15  C   UNL     1       5.735   4.088  16.084  0.00  0.00    +0.000 A 
ATOM     16  C   UNL     1       5.321   3.522  14.862  0.00  0.00    +0.000 A 
ATOM     17  C   UNL     1       5.958   3.826  13.640  0.00  0.00    +0.000 A 
BRANCH  12  19
ATOM     18  C   UNL     1       8.654   6.036  12.539  0.00  0.00    +0.000 C 
ATOM     19  O   UNL     1       7.584   5.093  12.451  0.00  0.00    +0.000 OA
ENDBRANCH  12  19
BRANCH  17  20
ATOM     20  C   UNL     1       5.521   3.087  12.382  0.00  0.00    +0.000 C 
BRANCH  20  21
ATOM     21  C   UNL     1       4.737   3.908  11.389  0.00  0.00    +0.000 C 
ATOM     22  C   UNL     1       3.655   3.514  10.688  0.00  0.00    +0.000 C 
ATOM     23  C   UNL     1       3.049   2.132  10.724  0.00  0.00    +0.000 C 
ATOM     24  C   UNL     1       2.939   4.463   9.762  0.00  0.00    +0.000 C 
ENDBRANCH  20  21
ENDBRANCH  17  20
ENDBRANCH   1  15
BRANCH   6  25
ATOM     25  O   UNL     1       0.906   2.533  22.002  0.00  0.00    +0.000 OA
ATOM     26  H   UNL     1       0.000   2.884  21.959  0.00  0.00    +0.000 HD
ENDBRANCH   6  25
BRANCH   8  27
ATOM     27  O   UNL     1       0.865   4.157  17.550  0.00  0.00    +0.000 OA
ATOM     28  H   UNL     1       1.317   4.867  17.067  0.00  0.00    +0.000 HD
ENDBRANCH   8  27
TORSDOF 6
ENDMDL
MODEL 5
REMARK VINA RESULT:      -7.3      5.804      8.243
REMARK  Name = 
REMARK  9 active torsions:
REMARK  status: ('A' for Active; 'I' for Inactive)
REMARK    1  A    between atoms: C_1  and  O_2
REMARK    2  A    between atoms: O_2  and  C_3
REMARK    3  A    between atoms: C_6  and  C_7
REMARK    4  A    between atoms: C_12  and  O_13
REMARK    5  A    between atoms: C_15  and  O_16
REMARK    6  A    between atoms: C_21  and  C_22
REMARK    7  A    between atoms: C_22  and  C_23
REMARK    8  A    between atoms: C_24  and  C_25
REMARK    9  A    between atoms: C_24  and  C_26
REMARK                            x       y       z     vdW  Elec       q    Type
REMARK                         _______ _______ _______ _____ _____    ______ ____
ROOT
ATOM      1  C   UNL     1       1.361   8.923  20.147  0.00  0.00    +0.000 C 
ATOM      2  C   UNL     1       0.884   9.680  18.899  0.00  0.00    +0.000 C 
ATOM      3  O   UNL     1       0.514  11.050  19.147  0.00  0.00    +0.000 OA
ATOM      4  C   UNL     1      -0.053  11.318  20.365  0.00  0.00    +0.000 A 
ATOM      5  C   UNL     1      -0.433  12.641  20.591  0.00  0.00    +0.000 A 
ATOM      6  C   UNL     1      -0.917  13.007  21.845  0.00  0.00    +0.000 A 
ATOM      7  C   UNL     1      -1.011  12.082  22.883  0.00  0.00    +0.000 A 
ATOM      8  C   UNL     1      -0.654  10.757  22.649  0.00  0.00    +0.000 A 
ATOM      9  C   UNL     1      -0.207  10.375  21.383  0.00  0.00    +0.000 A 
ATOM     10  C   UNL     1       0.170   8.994  21.069  0.00  0.00    +0.000 C 
ATOM     11  O   UNL     1      -0.495   8.040  21.455  0.00  0.00    +0.000 OA
ENDROOT
BRANCH   1  15
ATOM     12  C   UNL     1       2.940   4.924  19.507  0.00  0.00    +0.000 A 
ATOM     13  C   UNL     1       2.070   5.184  20.576  0.00  0.00    +0.000 A 
ATOM     14  C   UNL     1       1.549   6.457  20.794  0.00  0.00    +0.000 A 
ATOM     15  C   UNL     1       1.887   7.510  19.948  0.00  0.00    +0.000 A 
ATOM     16  C   UNL     1       2.729   7.241  18.851  0.00  0.00    +0.000 A 
ATOM     17  C   UNL     1       3.243   5.952  18.598  0.00  0.00    +0.000 A 
BRANCH  12  19
ATOM     18  C   UNL     1       3.336   2.759  20.359  0.00  0.00    +0.000 C 
ATOM     19  O   UNL     1       3.486   3.686  19.282  0.00  0.00    +0.000 OA
ENDBRANCH  12  19
BRANCH  17  20
ATOM     20  C   UNL     1       4.054   5.722  17.330  0.00  0.00    +0.000 C 
BRANCH  20  21
ATOM     21  C   UNL     1       5.262   6.610  17.163  0.00  0.00    +0.000 C 
ATOM     22  C   UNL     1       6.444   6.497  17.800  0.00  0.00    +0.000 C 
ATOM     23  C   UNL     1       6.768   5.474  18.862  0.00  0.00    +0.000 C 
ATOM     24  C   UNL     1       7.585   7.432  17.496  0.00  0.00    +0.000 C 
ENDBRANCH  20  21
ENDBRANCH  17  20
ENDBRANCH   1  15
BRANCH   6  25
ATOM     25  O   UNL     1      -1.293  14.289  22.117  0.00  0.00    +0.000 OA
ATOM     26  H   UNL     1      -0.963  14.537  22.997  0.00  0.00    +0.000 HD
ENDBRANCH   6  25
BRANCH   8  27
ATOM     27  O   UNL     1      -0.660   9.858  23.674  0.00  0.00    +0.000 OA
ATOM     28  H   UNL     1      -1.194   9.084  23.433  0.00  0.00    +0.000 HD
ENDBRANCH   8  27
TORSDOF 6
ENDMDL
MODEL 6
REMARK VINA RESULT:      -7.2      5.389      7.708
REMARK  Name = 
REMARK  9 active torsions:
REMARK  status: ('A' for Active; 'I' for Inactive)
REMARK    1  A    between atoms: C_1  and  O_2
REMARK    2  A    between atoms: O_2  and  C_3
REMARK    3  A    between atoms: C_6  and  C_7
REMARK    4  A    between atoms: C_12  and  O_13
REMARK    5  A    between atoms: C_15  and  O_16
REMARK    6  A    between atoms: C_21  and  C_22
REMARK    7  A    between atoms: C_22  and  C_23
REMARK    8  A    between atoms: C_24  and  C_25
REMARK    9  A    between atoms: C_24  and  C_26
REMARK                            x       y       z     vdW  Elec       q    Type
REMARK                         _______ _______ _______ _____ _____    ______ ____
ROOT
ATOM      1  C   UNL     1       1.143   8.118  20.597  0.00  0.00    +0.000 C 
ATOM      2  C   UNL     1       1.629   8.891  21.831  0.00  0.00    +0.000 C 
ATOM      3  O   UNL     1       0.762   9.972  22.227  0.00  0.00    +0.000 OA
ATOM      4  C   UNL     1       0.115  10.636  21.219  0.00  0.00    +0.000 A 
ATOM      5  C   UNL     1      -0.702  11.698  21.606  0.00  0.00    +0.000 A 
ATOM      6  C   UNL     1      -1.473  12.350  20.646  0.00  0.00    +0.000 A 
ATOM      7  C   UNL     1      -1.459  11.948  19.311  0.00  0.00    +0.000 A 
ATOM      8  C   UNL     1      -0.625  10.904  18.923  0.00  0.00    +0.000 A 
ATOM      9  C   UNL     1       0.181  10.274  19.872  0.00  0.00    +0.000 A 
ATOM     10  C   UNL     1       1.091   9.178  19.526  0.00  0.00    +0.000 C 
ATOM     11  O   UNL     1       1.782   9.210  18.515  0.00  0.00    +0.000 OA
ENDROOT
BRANCH   1  15
ATOM     12  C   UNL     1       3.468   4.660  19.358  0.00  0.00    +0.000 A 
ATOM     13  C   UNL     1       2.618   4.585  20.472  0.00  0.00    +0.000 A 
ATOM     14  C   UNL     1       1.860   5.680  20.880  0.00  0.00    +0.000 A 
ATOM     15  C   UNL     1       1.934   6.886  20.188  0.00  0.00    +0.000 A 
ATOM     16  C   UNL     1       2.757   6.950  19.046  0.00  0.00    +0.000 A 
ATOM     17  C   UNL     1       3.510   5.843  18.600  0.00  0.00    +0.000 A 
BRANCH  12  19
ATOM     18  C   UNL     1       4.188   2.455  19.793  0.00  0.00    +0.000 C 
ATOM     19  O   UNL     1       4.242   3.605  18.947  0.00  0.00    +0.000 OA
ENDBRANCH  12  19
BRANCH  17  20
ATOM     20  C   UNL     1       4.287   5.962  17.296  0.00  0.00    +0.000 C 
BRANCH  20  21
ATOM     21  C   UNL     1       5.416   6.961  17.303  0.00  0.00    +0.000 C 
ATOM     22  C   UNL     1       6.705   6.724  17.622  0.00  0.00    +0.000 C 
ATOM     23  C   UNL     1       7.257   5.402  18.095  0.00  0.00    +0.000 C 
ATOM     24  C   UNL     1       7.741   7.815  17.537  0.00  0.00    +0.000 C 
ENDBRANCH  20  21
ENDBRANCH  17  20
ENDBRANCH   1  15
BRANCH   6  25
ATOM     25  O   UNL     1      -2.294  13.387  20.976  0.00  0.00    +0.000 OA
ATOM     26  H   UNL     1      -2.903  13.101  21.677  0.00  0.00    +0.000 HD
ENDBRANCH   6  25
BRANCH   8  27
ATOM     27  O   UNL     1      -0.661  10.444  17.640  0.00  0.00    +0.000 OA
ATOM     28  H   UNL     1      -0.958   9.520  17.628  0.00  0.00    +0.000 HD
ENDBRANCH   8  27
TORSDOF 6
ENDMDL
MODEL 7
REMARK VINA RESULT:      -7.1      6.162      8.446
REMARK  Name = 
REMARK  9 active torsions:
REMARK  status: ('A' for Active; 'I' for Inactive)
REMARK    1  A    between atoms: C_1  and  O_2
REMARK    2  A    between atoms: O_2  and  C_3
REMARK    3  A    between atoms: C_6  and  C_7
REMARK    4  A    between atoms: C_12  and  O_13
REMARK    5  A    between atoms: C_15  and  O_16
REMARK    6  A    between atoms: C_21  and  C_22
REMARK    7  A    between atoms: C_22  and  C_23
REMARK    8  A    between atoms: C_24  and  C_25
REMARK    9  A    between atoms: C_24  and  C_26
REMARK                            x       y       z     vdW  Elec       q    Type
REMARK                         _______ _______ _______ _____ _____    ______ ____
ROOT
ATOM      1  C   UNL     1       0.699   9.087  20.595  0.00  0.00    +0.000 C 
ATOM      2  C   UNL     1       1.199   9.267  22.035  0.00  0.00    +0.000 C 
ATOM      3  O   UNL     1       0.236   9.868  22.922  0.00  0.00    +0.000 OA
ATOM      4  C   UNL     1      -0.602  10.801  22.371  0.00  0.00    +0.000 A 
ATOM      5  C   UNL     1      -1.515  11.400  23.238  0.00  0.00    +0.000 A 
ATOM      6  C   UNL     1      -2.468  12.278  22.727  0.00  0.00    +0.000 A 
ATOM      7  C   UNL     1      -2.539  12.555  21.362  0.00  0.00    +0.000 A 
ATOM      8  C   UNL     1      -1.612  11.975  20.501  0.00  0.00    +0.000 A 
ATOM      9  C   UNL     1      -0.629  11.127  21.013  0.00  0.00    +0.000 A 
ATOM     10  C   UNL     1       0.385  10.496  20.162  0.00  0.00    +0.000 C 
ATOM     11  O   UNL     1       0.954  11.116  19.271  0.00  0.00    +0.000 OA
ENDROOT
BRANCH   1  15
ATOM     12  C   UNL     1       3.289   6.879  17.890  0.00  0.00    +0.000 A 
ATOM     13  C   UNL     1       2.758   8.121  17.513  0.00  0.00    +0.000 A 
ATOM     14  C   UNL     1       1.932   8.847  18.368  0.00  0.00    +0.000 A 
ATOM     15  C   UNL     1       1.608   8.347  19.627  0.00  0.00    +0.000 A 
ATOM     16  C   UNL     1       2.173   7.118  20.022  0.00  0.00    +0.000 A 
ATOM     17  C   UNL     1       3.035   6.383  19.181  0.00  0.00    +0.000 A 
BRANCH  12  19
ATOM     18  C   UNL     1       5.373   6.696  16.798  0.00  0.00    +0.000 C 
ATOM     19  O   UNL     1       4.086   6.133  17.060  0.00  0.00    +0.000 OA
ENDBRANCH  12  19
BRANCH  17  20
ATOM     20  C   UNL     1       3.690   5.121  19.725  0.00  0.00    +0.000 C 
BRANCH  20  21
ATOM     21  C   UNL     1       2.873   4.349  20.730  0.00  0.00    +0.000 C 
ATOM     22  C   UNL     1       1.903   3.450  20.466  0.00  0.00    +0.000 C 
ATOM     23  C   UNL     1       1.406   3.083  19.090  0.00  0.00    +0.000 C 
ATOM     24  C   UNL     1       1.200   2.714  21.578  0.00  0.00    +0.000 C 
ENDBRANCH  20  21
ENDBRANCH  17  20
ENDBRANCH   1  15
BRANCH   6  25
ATOM     25  O   UNL     1      -3.387  12.881  23.533  0.00  0.00    +0.000 OA
ATOM     26  H   UNL     1      -3.656  13.726  23.133  0.00  0.00    +0.000 HD
ENDBRANCH   6  25
BRANCH   8  27
ATOM     27  O   UNL     1      -1.717  12.168  19.156  0.00  0.00    +0.000 OA
ATOM     28  H   UNL     1      -0.834  12.186  18.753  0.00  0.00    +0.000 HD
ENDBRANCH   8  27
TORSDOF 6
ENDMDL
MODEL 8
REMARK VINA RESULT:      -7.0      5.539      7.846
REMARK  Name = 
REMARK  9 active torsions:
REMARK  status: ('A' for Active; 'I' for Inactive)
REMARK    1  A    between atoms: C_1  and  O_2
REMARK    2  A    between atoms: O_2  and  C_3
REMARK    3  A    between atoms: C_6  and  C_7
REMARK    4  A    between atoms: C_12  and  O_13
REMARK    5  A    between atoms: C_15  and  O_16
REMARK    6  A    between atoms: C_21  and  C_22
REMARK    7  A    between atoms: C_22  and  C_23
REMARK    8  A    between atoms: C_24  and  C_25
REMARK    9  A    between atoms: C_24  and  C_26
REMARK                            x       y       z     vdW  Elec       q    Type
REMARK                         _______ _______ _______ _____ _____    ______ ____
ROOT
ATOM      1  C   UNL     1       1.475   8.560  20.313  0.00  0.00    +0.000 C 
ATOM      2  C   UNL     1       1.283   9.411  19.050  0.00  0.00    +0.000 C 
ATOM      3  O   UNL     1       1.051  10.809  19.310  0.00  0.00    +0.000 OA
ATOM      4  C   UNL     1       0.346  11.108  20.446  0.00  0.00    +0.000 A 
ATOM      5  C   UNL     1       0.100  12.461  20.681  0.00  0.00    +0.000 A 
ATOM      6  C   UNL     1      -0.517  12.846  21.869  0.00  0.00    +0.000 A 
ATOM      7  C   UNL     1      -0.876  11.908  22.836  0.00  0.00    +0.000 A 
ATOM      8  C   UNL     1      -0.652  10.557  22.589  0.00  0.00    +0.000 A 
ATOM      9  C   UNL     1      -0.072  10.161  21.383  0.00  0.00    +0.000 A 
ATOM     10  C   UNL     1       0.177   8.754  21.057  0.00  0.00    +0.000 C 
ATOM     11  O   UNL     1      -0.649   7.881  21.296  0.00  0.00    +0.000 OA
ENDROOT
BRANCH   1  15
ATOM     12  C   UNL     1       2.614   4.412  19.687  0.00  0.00    +0.000 A 
ATOM     13  C   UNL     1       1.870   4.784  20.816  0.00  0.00    +0.000 A 
ATOM     14  C   UNL     1       1.489   6.106  21.031  0.00  0.00    +0.000 A 
ATOM     15  C   UNL     1       1.848   7.099  20.122  0.00  0.00    +0.000 A 
ATOM     16  C   UNL     1       2.561   6.720  18.968  0.00  0.00    +0.000 A 
ATOM     17  C   UNL     1       2.930   5.381  18.719  0.00  0.00    +0.000 A 
BRANCH  12  19
ATOM     18  C   UNL     1       1.965   2.163  19.387  0.00  0.00    +0.000 C 
ATOM     19  O   UNL     1       3.021   3.122  19.461  0.00  0.00    +0.000 OA
ENDBRANCH  12  19
BRANCH  17  20
ATOM     20  C   UNL     1       3.602   5.040  17.395  0.00  0.00    +0.000 C 
BRANCH  20  21
ATOM     21  C   UNL     1       5.104   4.915  17.445  0.00  0.00    +0.000 C 
ATOM     22  C   UNL     1       5.929   4.648  16.413  0.00  0.00    +0.000 C 
ATOM     23  C   UNL     1       5.490   4.363  14.998  0.00  0.00    +0.000 C 
ATOM     24  C   UNL     1       7.423   4.601  16.603  0.00  0.00    +0.000 C 
ENDBRANCH  20  21
ENDBRANCH  17  20
ENDBRANCH   1  15
BRANCH   6  25
ATOM     25  O   UNL     1      -0.770  14.157  22.148  0.00  0.00    +0.000 OA
ATOM     26  H   UNL     1      -1.522  14.211  22.762  0.00  0.00    +0.000 HD
ENDBRANCH   6  25
BRANCH   8  27
ATOM     27  O   UNL     1      -0.920   9.634  23.556  0.00  0.00    +0.000 OA
ATOM     28  H   UNL     1      -0.459   9.871  24.377  0.00  0.00    +0.000 HD
ENDBRANCH   8  27
TORSDOF 6
ENDMDL
MODEL 9
REMARK VINA RESULT:      -7.0      5.381      7.689
REMARK  Name = 
REMARK  9 active torsions:
REMARK  status: ('A' for Active; 'I' for Inactive)
REMARK    1  A    between atoms: C_1  and  O_2
REMARK    2  A    between atoms: O_2  and  C_3
REMARK    3  A    between atoms: C_6  and  C_7
REMARK    4  A    between atoms: C_12  and  O_13
REMARK    5  A    between atoms: C_15  and  O_16
REMARK    6  A    between atoms: C_21  and  C_22
REMARK    7  A    between atoms: C_22  and  C_23
REMARK    8  A    between atoms: C_24  and  C_25
REMARK    9  A    between atoms: C_24  and  C_26
REMARK                            x       y       z     vdW  Elec       q    Type
REMARK                         _______ _______ _______ _____ _____    ______ ____
ROOT
ATOM      1  C   UNL     1       1.916   8.489  19.495  0.00  0.00    +0.000 C 
ATOM      2  C   UNL     1       1.570   9.072  18.117  0.00  0.00    +0.000 C 
ATOM      3  O   UNL     1       1.498  10.510  18.088  0.00  0.00    +0.000 OA
ATOM      4  C   UNL     1       1.031  11.121  19.222  0.00  0.00    +0.000 A 
ATOM      5  C   UNL     1       0.937  12.512  19.180  0.00  0.00    +0.000 A 
ATOM      6  C   UNL     1       0.573  13.206  20.331  0.00  0.00    +0.000 A 
ATOM      7  C   UNL     1       0.319  12.540  21.529  0.00  0.00    +0.000 A 
ATOM      8  C   UNL     1       0.390  11.150  21.563  0.00  0.00    +0.000 A 
ATOM      9  C   UNL     1       0.714  10.446  20.402  0.00  0.00    +0.000 A 
ATOM     10  C   UNL     1       0.790   8.982  20.369  0.00  0.00    +0.000 C 
ATOM     11  O   UNL     1      -0.045   8.281  20.925  0.00  0.00    +0.000 OA
ENDROOT
BRANCH   1  15
ATOM     12  C   UNL     1       2.595   4.198  19.652  0.00  0.00    +0.000 A 
ATOM     13  C   UNL     1       2.133   4.888  20.782  0.00  0.00    +0.000 A 
ATOM     14  C   UNL     1       1.902   6.261  20.750  0.00  0.00    +0.000 A 
ATOM     15  C   UNL     1       2.134   6.987  19.584  0.00  0.00    +0.000 A 
ATOM     16  C   UNL     1       2.561   6.289  18.437  0.00  0.00    +0.000 A 
ATOM     17  C   UNL     1       2.772   4.894  18.442  0.00  0.00    +0.000 A 
BRANCH  12  19
ATOM     18  C   UNL     1       4.032   2.470  20.371  0.00  0.00    +0.000 C 
ATOM     19  O   UNL     1       2.852   2.851  19.661  0.00  0.00    +0.000 OA
ENDBRANCH  12  19
BRANCH  17  20
ATOM     20  C   UNL     1       3.126   4.200  17.134  0.00  0.00    +0.000 C 
BRANCH  20  21
ATOM     21  C   UNL     1       4.596   3.946  16.912  0.00  0.00    +0.000 C 
ATOM     22  C   UNL     1       5.490   4.792  16.362  0.00  0.00    +0.000 C 
ATOM     23  C   UNL     1       5.169   6.156  15.802  0.00  0.00    +0.000 C 
ATOM     24  C   UNL     1       6.946   4.420  16.249  0.00  0.00    +0.000 C 
ENDBRANCH  20  21
ENDBRANCH  17  20
ENDBRANCH   1  15
BRANCH   6  25
ATOM     25  O   UNL     1       0.477  14.566  20.342  0.00  0.00    +0.000 OA
ATOM     26  H   UNL     1       0.792  14.901  21.199  0.00  0.00    +0.000 HD
ENDBRANCH   6  25
BRANCH   8  27
ATOM     27  O   UNL     1       0.227  10.488  22.743  0.00  0.00    +0.000 OA
ATOM     28  H   UNL     1      -0.403  10.966  23.307  0.00  0.00    +0.000 HD
ENDBRANCH   8  27
TORSDOF 6
ENDMDL
