MODEL 1
REMARK VINA RESULT:      -8.9      0.000      0.000
REMARK  Name = 
REMARK  11 active torsions:
REMARK  status: ('A' for Active; 'I' for Inactive)
REMARK    1  A    between atoms: C_1  and  O_2
REMARK    2  A    between atoms: O_2  and  C_3
REMARK    3  A    between atoms: C_3  and  C_4
REMARK    4  A    between atoms: C_4  and  N_5
REMARK    5  A    between atoms: C_6  and  C_8
REMARK    6  A    between atoms: C_10  and  C_11
REMARK    7  A    between atoms: C_12  and  O_13
REMARK    8  A    between atoms: C_15  and  O_16
REMARK    9  A    between atoms: C_18  and  O_19
REMARK   10  A    between atoms: O_19  and  C_20
REMARK   11  A    between atoms: C_23  and  N_24
REMARK                            x       y       z     vdW  Elec       q    Type
REMARK                         _______ _______ _______ _____ _____    ______ ____
ROOT
ATOM      1  C   UNL     1       4.081   3.722  19.207  0.00  0.00    +0.000 A 
ATOM      2  C   UNL     1       4.184   2.632  20.106  0.00  0.00    +0.000 A 
ATOM      3  C   UNL     1       3.181   2.327  21.026  0.00  0.00    +0.000 A 
ATOM      4  C   UNL     1       2.064   3.138  21.103  0.00  0.00    +0.000 A 
ATOM      5  C   UNL     1       1.958   4.266  20.299  0.00  0.00    +0.000 A 
ATOM      6  C   UNL     1       2.963   4.579  19.362  0.00  0.00    +0.000 A 
ENDROOT
BRANCH   1   9
ATOM      7  C   UNL     1       6.345   4.190  16.348  0.00  0.00    +0.000 A 
ATOM      8  C   UNL     1       5.093   3.693  16.777  0.00  0.00    +0.000 A 
ATOM      9  C   UNL     1       5.071   3.882  18.138  0.00  0.00    +0.000 A 
ATOM     10  O   UNL     1       6.291   4.375  18.509  0.00  0.00    +0.000 OA
ATOM     11  N   UNL     1       7.105   4.523  17.406  0.00  0.00    +0.000 NA
BRANCH   7  13
ATOM     12  N   UNL     1       6.224   3.536  14.050  0.00  0.00    +0.000 N 
ATOM     13  C   UNL     1       6.774   4.402  14.968  0.00  0.00    +0.000 C 
ATOM     14  O   UNL     1       7.551   5.307  14.668  0.00  0.00    +0.000 OA
ATOM     15  H   UNL     1       5.422   2.987  14.341  0.00  0.00    +0.000 HD
BRANCH  12  16
ATOM     16  C   UNL     1       6.502   3.683  12.643  0.00  0.00    +0.000 C 
BRANCH  16  17
ATOM     17  C   UNL     1       5.383   3.143  11.751  0.00  0.00    +0.000 C 
BRANCH  17  19
ATOM     18  C   UNL     1       7.044   1.624  11.054  0.00  0.00    +0.000 C 
ATOM     19  O   UNL     1       5.674   1.789  11.398  0.00  0.00    +0.000 OA
ENDBRANCH  17  19
ENDBRANCH  16  17
ENDBRANCH  12  16
ENDBRANCH   7  13
ENDBRANCH   1   9
BRANCH   2  20
ATOM     20  O   UNL     1       5.250   1.766  20.138  0.00  0.00    +0.000 OA
ATOM     21  H   UNL     1       5.654   1.720  19.252  0.00  0.00    +0.000 HD
ENDBRANCH   2  20
BRANCH   4  22
ATOM     22  O   UNL     1       1.039   2.852  21.956  0.00  0.00    +0.000 OA
ATOM     23  H   UNL     1       1.323   3.048  22.866  0.00  0.00    +0.000 HD
ENDBRANCH   4  22
BRANCH   6  24
ATOM     24  O   UNL     1       2.640   5.677  18.585  0.00  0.00    +0.000 OA
BRANCH  24  25
ATOM     25  C   UNL     1       2.144   6.846  19.116  0.00  0.00    +0.000 A 
ATOM     26  C   UNL     1       1.995   7.895  18.193  0.00  0.00    +0.000 A 
ATOM     27  C   UNL     1       1.572   9.160  18.611  0.00  0.00    +0.000 A 
ATOM     28  C   UNL     1       1.286   9.371  19.965  0.00  0.00    +0.000 A 
ATOM     29  C   UNL     1       1.451   8.337  20.896  0.00  0.00    +0.000 A 
ATOM     30  C   UNL     1       1.842   7.067  20.463  0.00  0.00    +0.000 A 
BRANCH  28  31
ATOM     31  N   UNL     1       0.739  10.660  20.410  0.00  0.00    +0.000 N 
ATOM     32  O   UNL     1       0.216  11.392  19.557  0.00  0.00    +0.000 OA
ATOM     33  O   UNL     1       0.793  10.919  21.621  0.00  0.00    +0.000 OA
ENDBRANCH  28  31
ENDBRANCH  24  25
ENDBRANCH   6  24
TORSDOF 10
ENDMDL
MODEL 2
REMARK VINA RESULT:      -8.8      0.632      1.355
REMARK  Name = 
REMARK  11 active torsions:
REMARK  status: ('A' for Active; 'I' for Inactive)
REMARK    1  A    between atoms: C_1  and  O_2
REMARK    2  A    between atoms: O_2  and  C_3
REMARK    3  A    between atoms: C_3  and  C_4
REMARK    4  A    between atoms: C_4  and  N_5
REMARK    5  A    between atoms: C_6  and  C_8
REMARK    6  A    between atoms: C_10  and  C_11
REMARK    7  A    between atoms: C_12  and  O_13
REMARK    8  A    between atoms: C_15  and  O_16
REMARK    9  A    between atoms: C_18  and  O_19
REMARK   10  A    between atoms: O_19  and  C_20
REMARK   11  A    between atoms: C_23  and  N_24
REMARK                            x       y       z     vdW  Elec       q    Type
REMARK                         _______ _______ _______ _____ _____    ______ ____
ROOT
ATOM      1  C   UNL     1       3.978   3.864  18.939  0.00  0.00    +0.000 A 
ATOM      2  C   UNL     1       4.073   2.819  19.890  0.00  0.00    +0.000 A 
ATOM      3  C   UNL     1       3.041   2.525  20.782  0.00  0.00    +0.000 A 
ATOM      4  C   UNL     1       1.901   3.307  20.777  0.00  0.00    +0.000 A 
ATOM      5  C   UNL     1       1.798   4.396  19.919  0.00  0.00    +0.000 A 
ATOM      6  C   UNL     1       2.833   4.696  19.011  0.00  0.00    +0.000 A 
ENDROOT
BRANCH   1   9
ATOM      7  C   UNL     1       6.346   4.283  16.158  0.00  0.00    +0.000 A 
ATOM      8  C   UNL     1       5.077   3.799  16.548  0.00  0.00    +0.000 A 
ATOM      9  C   UNL     1       5.007   4.005  17.904  0.00  0.00    +0.000 A 
ATOM     10  O   UNL     1       6.216   4.496  18.313  0.00  0.00    +0.000 OA
ATOM     11  N   UNL     1       7.071   4.626  17.238  0.00  0.00    +0.000 NA
BRANCH   7  13
ATOM     12  N   UNL     1       6.367   3.553  13.881  0.00  0.00    +0.000 N 
ATOM     13  C   UNL     1       6.827   4.476  14.792  0.00  0.00    +0.000 C 
ATOM     14  O   UNL     1       7.566   5.413  14.496  0.00  0.00    +0.000 OA
ATOM     15  H   UNL     1       5.582   2.970  14.154  0.00  0.00    +0.000 HD
BRANCH  12  16
ATOM     16  C   UNL     1       6.700   3.671  12.483  0.00  0.00    +0.000 C 
BRANCH  16  17
ATOM     17  C   UNL     1       5.733   2.917  11.569  0.00  0.00    +0.000 C 
BRANCH  17  19
ATOM     18  C   UNL     1       3.601   3.321  10.652  0.00  0.00    +0.000 C 
ATOM     19  O   UNL     1       4.399   3.357  11.829  0.00  0.00    +0.000 OA
ENDBRANCH  17  19
ENDBRANCH  16  17
ENDBRANCH  12  16
ENDBRANCH   7  13
ENDBRANCH   1   9
BRANCH   2  20
ATOM     20  O   UNL     1       5.159   1.985  20.003  0.00  0.00    +0.000 OA
ATOM     21  H   UNL     1       4.894   1.175  20.478  0.00  0.00    +0.000 HD
ENDBRANCH   2  20
BRANCH   4  22
ATOM     22  O   UNL     1       0.849   3.031  21.600  0.00  0.00    +0.000 OA
ATOM     23  H   UNL     1       0.419   3.866  21.852  0.00  0.00    +0.000 HD
ENDBRANCH   4  22
BRANCH   6  24
ATOM     24  O   UNL     1       2.513   5.749  18.173  0.00  0.00    +0.000 OA
BRANCH  24  25
ATOM     25  C   UNL     1       2.171   6.997  18.641  0.00  0.00    +0.000 A 
ATOM     26  C   UNL     1       1.941   7.062  20.026  0.00  0.00    +0.000 A 
ATOM     27  C   UNL     1       1.512   8.251  20.625  0.00  0.00    +0.000 A 
ATOM     28  C   UNL     1       1.324   9.386  19.828  0.00  0.00    +0.000 A 
ATOM     29  C   UNL     1       1.532   9.326  18.444  0.00  0.00    +0.000 A 
ATOM     30  C   UNL     1       1.992   8.142  17.861  0.00  0.00    +0.000 A 
BRANCH  28  31
ATOM     31  N   UNL     1       0.978  10.672  20.449  0.00  0.00    +0.000 N 
ATOM     32  O   UNL     1       0.929  10.723  21.686  0.00  0.00    +0.000 OA
ATOM     33  O   UNL     1       0.800  11.643  19.697  0.00  0.00    +0.000 OA
ENDBRANCH  28  31
ENDBRANCH  24  25
ENDBRANCH   6  24
TORSDOF 10
ENDMDL
MODEL 3
REMARK VINA RESULT:      -8.6      1.040      1.157
REMARK  Name = 
REMARK  11 active torsions:
REMARK  status: ('A' for Active; 'I' for Inactive)
REMARK    1  A    between atoms: C_1  and  O_2
REMARK    2  A    between atoms: O_2  and  C_3
REMARK    3  A    between atoms: C_3  and  C_4
REMARK    4  A    between atoms: C_4  and  N_5
REMARK    5  A    between atoms: C_6  and  C_8
REMARK    6  A    between atoms: C_10  and  C_11
REMARK    7  A    between atoms: C_12  and  O_13
REMARK    8  A    between atoms: C_15  and  O_16
REMARK    9  A    between atoms: C_18  and  O_19
REMARK   10  A    between atoms: O_19  and  C_20
REMARK   11  A    between atoms: C_23  and  N_24
REMARK                            x       y       z     vdW  Elec       q    Type
REMARK                         _______ _______ _______ _____ _____    ______ ____
ROOT
ATOM      1  C   UNL     1       3.905   3.642  18.808  0.00  0.00    +0.000 A 
ATOM      2  C   UNL     1       3.371   2.345  19.003  0.00  0.00    +0.000 A 
ATOM      3  C   UNL     1       2.266   2.108  19.821  0.00  0.00    +0.000 A 
ATOM      4  C   UNL     1       1.693   3.164  20.506  0.00  0.00    +0.000 A 
ATOM      5  C   UNL     1       2.234   4.440  20.411  0.00  0.00    +0.000 A 
ATOM      6  C   UNL     1       3.347   4.690  19.582  0.00  0.00    +0.000 A 
ENDROOT
BRANCH   1   9
ATOM      7  C   UNL     1       6.291   4.231  16.074  0.00  0.00    +0.000 A 
ATOM      8  C   UNL     1       5.062   3.640  16.443  0.00  0.00    +0.000 A 
ATOM      9  C   UNL     1       4.941   3.859  17.794  0.00  0.00    +0.000 A 
ATOM     10  O   UNL     1       6.091   4.464  18.221  0.00  0.00    +0.000 OA
ATOM     11  N   UNL     1       6.956   4.654  17.164  0.00  0.00    +0.000 NA
BRANCH   7  13
ATOM     12  N   UNL     1       6.271   3.587  13.770  0.00  0.00    +0.000 N 
ATOM     13  C   UNL     1       6.785   4.446  14.716  0.00  0.00    +0.000 C 
ATOM     14  O   UNL     1       7.581   5.346  14.455  0.00  0.00    +0.000 OA
ATOM     15  H   UNL     1       5.453   3.042  14.022  0.00  0.00    +0.000 HD
BRANCH  12  16
ATOM     16  C   UNL     1       6.614   3.736  12.378  0.00  0.00    +0.000 C 
BRANCH  16  17
ATOM     17  C   UNL     1       5.934   2.704  11.478  0.00  0.00    +0.000 C 
BRANCH  17  19
ATOM     18  C   UNL     1       6.176   0.387  11.128  0.00  0.00    +0.000 C 
ATOM     19  O   UNL     1       6.847   1.639  11.208  0.00  0.00    +0.000 OA
ENDBRANCH  17  19
ENDBRANCH  16  17
ENDBRANCH  12  16
ENDBRANCH   7  13
ENDBRANCH   1   9
BRANCH   2  20
ATOM     20  O   UNL     1       3.862   1.217  18.393  0.00  0.00    +0.000 OA
ATOM     21  H   UNL     1       3.606   0.432  18.912  0.00  0.00    +0.000 HD
ENDBRANCH   2  20
BRANCH   4  22
ATOM     22  O   UNL     1       0.585   2.987  21.281  0.00  0.00    +0.000 OA
ATOM     23  H   UNL     1      -0.171   3.426  20.854  0.00  0.00    +0.000 HD
ENDBRANCH   4  22
BRANCH   6  24
ATOM     24  O   UNL     1       3.683   6.031  19.536  0.00  0.00    +0.000 OA
BRANCH  24  25
ATOM     25  C   UNL     1       2.748   7.029  19.382  0.00  0.00    +0.000 A 
ATOM     26  C   UNL     1       2.640   7.537  18.077  0.00  0.00    +0.000 A 
ATOM     27  C   UNL     1       1.784   8.605  17.793  0.00  0.00    +0.000 A 
ATOM     28  C   UNL     1       1.022   9.161  18.827  0.00  0.00    +0.000 A 
ATOM     29  C   UNL     1       1.138   8.674  20.136  0.00  0.00    +0.000 A 
ATOM     30  C   UNL     1       1.972   7.585  20.402  0.00  0.00    +0.000 A 
BRANCH  28  31
ATOM     31  N   UNL     1       0.038  10.212  18.534  0.00  0.00    +0.000 N 
ATOM     32  O   UNL     1      -0.767  10.010  17.615  0.00  0.00    +0.000 OA
ATOM     33  O   UNL     1       0.044  11.220  19.256  0.00  0.00    +0.000 OA
ENDBRANCH  28  31
ENDBRANCH  24  25
ENDBRANCH   6  24
TORSDOF 10
ENDMDL
MODEL 4
REMARK VINA RESULT:      -8.5      1.159      1.615
REMARK  Name = 
REMARK  11 active torsions:
REMARK  status: ('A' for Active; 'I' for Inactive)
REMARK    1  A    between atoms: C_1  and  O_2
REMARK    2  A    between atoms: O_2  and  C_3
REMARK    3  A    between atoms: C_3  and  C_4
REMARK    4  A    between atoms: C_4  and  N_5
REMARK    5  A    between atoms: C_6  and  C_8
REMARK    6  A    between atoms: C_10  and  C_11
REMARK    7  A    between atoms: C_12  and  O_13
REMARK    8  A    between atoms: C_15  and  O_16
REMARK    9  A    between atoms: C_18  and  O_19
REMARK   10  A    between atoms: O_19  and  C_20
REMARK   11  A    between atoms: C_23  and  N_24
REMARK                            x       y       z     vdW  Elec       q    Type
REMARK                         _______ _______ _______ _____ _____    ______ ____
ROOT
ATOM      1  C   UNL     1       3.862   3.562  18.735  0.00  0.00    +0.000 A 
ATOM      2  C   UNL     1       3.240   2.291  18.795  0.00  0.00    +0.000 A 
ATOM      3  C   UNL     1       2.111   2.048  19.578  0.00  0.00    +0.000 A 
ATOM      4  C   UNL     1       1.601   3.066  20.362  0.00  0.00    +0.000 A 
ATOM      5  C   UNL     1       2.227   4.306  20.400  0.00  0.00    +0.000 A 
ATOM      6  C   UNL     1       3.365   4.562  19.608  0.00  0.00    +0.000 A 
ENDROOT
BRANCH   1   9
ATOM      7  C   UNL     1       6.316   4.242  16.084  0.00  0.00    +0.000 A 
ATOM      8  C   UNL     1       5.067   3.660  16.397  0.00  0.00    +0.000 A 
ATOM      9  C   UNL     1       4.923   3.810  17.755  0.00  0.00    +0.000 A 
ATOM     10  O   UNL     1       6.076   4.365  18.236  0.00  0.00    +0.000 OA
ATOM     11  N   UNL     1       6.967   4.592  17.208  0.00  0.00    +0.000 NA
BRANCH   7  13
ATOM     12  N   UNL     1       6.376   3.683  13.759  0.00  0.00    +0.000 N 
ATOM     13  C   UNL     1       6.843   4.518  14.749  0.00  0.00    +0.000 C 
ATOM     14  O   UNL     1       7.624   5.445  14.544  0.00  0.00    +0.000 OA
ATOM     15  H   UNL     1       5.563   3.112  13.967  0.00  0.00    +0.000 HD
BRANCH  12  16
ATOM     16  C   UNL     1       6.753   3.892  12.384  0.00  0.00    +0.000 C 
BRANCH  16  17
ATOM     17  C   UNL     1       6.644   2.627  11.532  0.00  0.00    +0.000 C 
BRANCH  17  19
ATOM     18  C   UNL     1       4.367   3.183  11.302  0.00  0.00    +0.000 C 
ATOM     19  O   UNL     1       5.300   2.144  11.574  0.00  0.00    +0.000 OA
ENDBRANCH  17  19
ENDBRANCH  16  17
ENDBRANCH  12  16
ENDBRANCH   7  13
ENDBRANCH   1   9
BRANCH   2  20
ATOM     20  O   UNL     1       3.663   1.199  18.076  0.00  0.00    +0.000 OA
ATOM     21  H   UNL     1       3.673   0.416  18.657  0.00  0.00    +0.000 HD
ENDBRANCH   2  20
BRANCH   4  22
ATOM     22  O   UNL     1       0.474   2.887  21.108  0.00  0.00    +0.000 OA
ATOM     23  H   UNL     1      -0.011   2.116  20.767  0.00  0.00    +0.000 HD
ENDBRANCH   4  22
BRANCH   6  24
ATOM     24  O   UNL     1       3.790   5.875  19.700  0.00  0.00    +0.000 OA
BRANCH  24  25
ATOM     25  C   UNL     1       3.020   6.938  19.288  0.00  0.00    +0.000 A 
ATOM     26  C   UNL     1       2.178   7.473  20.277  0.00  0.00    +0.000 A 
ATOM     27  C   UNL     1       1.286   8.507  19.975  0.00  0.00    +0.000 A 
ATOM     28  C   UNL     1       1.248   9.015  18.671  0.00  0.00    +0.000 A 
ATOM     29  C   UNL     1       2.069   8.475  17.673  0.00  0.00    +0.000 A 
ATOM     30  C   UNL     1       2.980   7.464  17.994  0.00  0.00    +0.000 A 
BRANCH  28  31
ATOM     31  N   UNL     1       0.397  10.171  18.356  0.00  0.00    +0.000 N 
ATOM     32  O   UNL     1      -0.713   9.951  17.851  0.00  0.00    +0.000 OA
ATOM     33  O   UNL     1       0.823  11.296  18.657  0.00  0.00    +0.000 OA
ENDBRANCH  28  31
ENDBRANCH  24  25
ENDBRANCH   6  24
TORSDOF 10
ENDMDL
MODEL 5
REMARK VINA RESULT:      -8.3      3.311      4.806
REMARK  Name = 
REMARK  11 active torsions:
REMARK  status: ('A' for Active; 'I' for Inactive)
REMARK    1  A    between atoms: C_1  and  O_2
REMARK    2  A    between atoms: O_2  and  C_3
REMARK    3  A    between atoms: C_3  and  C_4
REMARK    4  A    between atoms: C_4  and  N_5
REMARK    5  A    between atoms: C_6  and  C_8
REMARK    6  A    between atoms: C_10  and  C_11
REMARK    7  A    between atoms: C_12  and  O_13
REMARK    8  A    between atoms: C_15  and  O_16
REMARK    9  A    between atoms: C_18  and  O_19
REMARK   10  A    between atoms: O_19  and  C_20
REMARK   11  A    between atoms: C_23  and  N_24
REMARK                            x       y       z     vdW  Elec       q    Type
REMARK                         _______ _______ _______ _____ _____    ______ ____
ROOT
ATOM      1  C   UNL     1       3.882   4.143  18.652  0.00  0.00    +0.000 A 
ATOM      2  C   UNL     1       3.919   2.815  19.145  0.00  0.00    +0.000 A 
ATOM      3  C   UNL     1       2.791   1.994  19.162  0.00  0.00    +0.000 A 
ATOM      4  C   UNL     1       1.580   2.500  18.730  0.00  0.00    +0.000 A 
ATOM      5  C   UNL     1       1.477   3.823  18.317  0.00  0.00    +0.000 A 
ATOM      6  C   UNL     1       2.612   4.658  18.290  0.00  0.00    +0.000 A 
ENDROOT
BRANCH   1   9
ATOM      7  C   UNL     1       6.855   6.231  18.090  0.00  0.00    +0.000 A 
ATOM      8  C   UNL     1       5.631   5.772  17.551  0.00  0.00    +0.000 A 
ATOM      9  C   UNL     1       5.129   4.892  18.479  0.00  0.00    +0.000 A 
ATOM     10  O   UNL     1       6.059   4.761  19.473  0.00  0.00    +0.000 OA
ATOM     11  N   UNL     1       7.157   5.554  19.212  0.00  0.00    +0.000 NA
BRANCH   7  13
ATOM     12  N   UNL     1       7.767   8.417  18.422  0.00  0.00    +0.000 N 
ATOM     13  C   UNL     1       7.676   7.328  17.584  0.00  0.00    +0.000 C 
ATOM     14  O   UNL     1       8.253   7.254  16.501  0.00  0.00    +0.000 OA
ATOM     15  H   UNL     1       7.466   8.299  19.384  0.00  0.00    +0.000 HD
BRANCH  12  16
ATOM     16  C   UNL     1       8.608   9.537  18.082  0.00  0.00    +0.000 C 
BRANCH  16  17
ATOM     17  C   UNL     1       9.266  10.186  19.301  0.00  0.00    +0.000 C 
BRANCH  17  19
ATOM     18  C   UNL     1      11.154  11.563  19.598  0.00  0.00    +0.000 C 
ATOM     19  O   UNL     1       9.930  11.384  18.896  0.00  0.00    +0.000 OA
ENDBRANCH  17  19
ENDBRANCH  16  17
ENDBRANCH  12  16
ENDBRANCH   7  13
ENDBRANCH   1   9
BRANCH   2  20
ATOM     20  O   UNL     1       5.057   2.207  19.615  0.00  0.00    +0.000 OA
ATOM     21  H   UNL     1       5.650   2.010  18.867  0.00  0.00    +0.000 HD
ENDBRANCH   2  20
BRANCH   4  22
ATOM     22  O   UNL     1       0.462   1.720  18.688  0.00  0.00    +0.000 OA
ATOM     23  H   UNL     1      -0.115   2.036  17.971  0.00  0.00    +0.000 HD
ENDBRANCH   4  22
BRANCH   6  24
ATOM     24  O   UNL     1       2.339   5.906  17.759  0.00  0.00    +0.000 OA
BRANCH  24  25
ATOM     25  C   UNL     1       2.041   6.999  18.539  0.00  0.00    +0.000 A 
ATOM     26  C   UNL     1       1.962   6.734  19.917  0.00  0.00    +0.000 A 
ATOM     27  C   UNL     1       1.593   7.737  20.819  0.00  0.00    +0.000 A 
ATOM     28  C   UNL     1       1.312   9.019  20.334  0.00  0.00    +0.000 A 
ATOM     29  C   UNL     1       1.368   9.288  18.960  0.00  0.00    +0.000 A 
ATOM     30  C   UNL     1       1.770   8.288  18.071  0.00  0.00    +0.000 A 
BRANCH  28  31
ATOM     31  N   UNL     1       1.026  10.114  21.271  0.00  0.00    +0.000 N 
ATOM     32  O   UNL     1       0.588  11.175  20.804  0.00  0.00    +0.000 OA
ATOM     33  O   UNL     1       1.197   9.895  22.479  0.00  0.00    +0.000 OA
ENDBRANCH  28  31
ENDBRANCH  24  25
ENDBRANCH   6  24
TORSDOF 10
ENDMDL
MODEL 6
REMARK VINA RESULT:      -8.3      2.093      7.912
REMARK  Name = 
REMARK  11 active torsions:
REMARK  status: ('A' for Active; 'I' for Inactive)
REMARK    1  A    between atoms: C_1  and  O_2
REMARK    2  A    between atoms: O_2  and  C_3
REMARK    3  A    between atoms: C_3  and  C_4
REMARK    4  A    between atoms: C_4  and  N_5
REMARK    5  A    between atoms: C_6  and  C_8
REMARK    6  A    between atoms: C_10  and  C_11
REMARK    7  A    between atoms: C_12  and  O_13
REMARK    8  A    between atoms: C_15  and  O_16
REMARK    9  A    between atoms: C_18  and  O_19
REMARK   10  A    between atoms: O_19  and  C_20
REMARK   11  A    between atoms: C_23  and  N_24
REMARK                            x       y       z     vdW  Elec       q    Type
REMARK                         _______ _______ _______ _____ _____    ______ ____
ROOT
ATOM      1  C   UNL     1       2.648   4.556  19.359  0.00  0.00    +0.000 A 
ATOM      2  C   UNL     1       1.791   3.448  19.569  0.00  0.00    +0.000 A 
ATOM      3  C   UNL     1       2.185   2.138  19.296  0.00  0.00    +0.000 A 
ATOM      4  C   UNL     1       3.436   1.906  18.756  0.00  0.00    +0.000 A 
ATOM      5  C   UNL     1       4.280   2.969  18.455  0.00  0.00    +0.000 A 
ATOM      6  C   UNL     1       3.893   4.295  18.733  0.00  0.00    +0.000 A 
ENDROOT
BRANCH   1   9
ATOM      7  C   UNL     1       1.597   7.953  20.291  0.00  0.00    +0.000 A 
ATOM      8  C   UNL     1       2.264   7.160  19.331  0.00  0.00    +0.000 A 
ATOM      9  C   UNL     1       2.255   5.884  19.840  0.00  0.00    +0.000 A 
ATOM     10  O   UNL     1       1.698   5.937  21.087  0.00  0.00    +0.000 OA
ATOM     11  N   UNL     1       1.330   7.231  21.394  0.00  0.00    +0.000 NA
BRANCH   7  13
ATOM     12  N   UNL     1       1.055   9.767  18.829  0.00  0.00    +0.000 N 
ATOM     13  C   UNL     1       1.166   9.340  20.134  0.00  0.00    +0.000 C 
ATOM     14  O   UNL     1       0.906  10.048  21.105  0.00  0.00    +0.000 OA
ATOM     15  H   UNL     1       1.052   9.061  18.100  0.00  0.00    +0.000 HD
BRANCH  12  16
ATOM     16  C   UNL     1       0.565  11.089  18.528  0.00  0.00    +0.000 C 
BRANCH  16  17
ATOM     17  C   UNL     1      -0.961  11.166  18.472  0.00  0.00    +0.000 C 
BRANCH  17  19
ATOM     18  C   UNL     1      -2.281  10.472  16.648  0.00  0.00    +0.000 C 
ATOM     19  O   UNL     1      -1.463  10.051  17.732  0.00  0.00    +0.000 OA
ENDBRANCH  17  19
ENDBRANCH  16  17
ENDBRANCH  12  16
ENDBRANCH   7  13
ENDBRANCH   1   9
BRANCH   2  20
ATOM     20  O   UNL     1       0.521   3.551  20.083  0.00  0.00    +0.000 OA
ATOM     21  H   UNL     1      -0.048   2.874  19.672  0.00  0.00    +0.000 HD
ENDBRANCH   2  20
BRANCH   4  22
ATOM     22  O   UNL     1       3.880   0.640  18.515  0.00  0.00    +0.000 OA
ATOM     23  H   UNL     1       3.171   0.135  18.080  0.00  0.00    +0.000 HD
ENDBRANCH   4  22
BRANCH   6  24
ATOM     24  O   UNL     1       4.895   5.208  18.459  0.00  0.00    +0.000 OA
BRANCH  24  25
ATOM     25  C   UNL     1       5.633   5.178  17.298  0.00  0.00    +0.000 A 
ATOM     26  C   UNL     1       4.912   5.496  16.134  0.00  0.00    +0.000 A 
ATOM     27  C   UNL     1       5.519   5.430  14.876  0.00  0.00    +0.000 A 
ATOM     28  C   UNL     1       6.864   5.054  14.787  0.00  0.00    +0.000 A 
ATOM     29  C   UNL     1       7.586   4.715  15.939  0.00  0.00    +0.000 A 
ATOM     30  C   UNL     1       6.979   4.816  17.194  0.00  0.00    +0.000 A 
BRANCH  28  31
ATOM     31  N   UNL     1       7.551   5.080  13.489  0.00  0.00    +0.000 N 
ATOM     32  O   UNL     1       7.101   4.367  12.581  0.00  0.00    +0.000 OA
ATOM     33  O   UNL     1       8.515   5.851  13.366  0.00  0.00    +0.000 OA
ENDBRANCH  28  31
ENDBRANCH  24  25
ENDBRANCH   6  24
TORSDOF 10
ENDMDL
MODEL 7
REMARK VINA RESULT:      -8.3      3.317      4.753
REMARK  Name = 
REMARK  11 active torsions:
REMARK  status: ('A' for Active; 'I' for Inactive)
REMARK    1  A    between atoms: C_1  and  O_2
REMARK    2  A    between atoms: O_2  and  C_3
REMARK    3  A    between atoms: C_3  and  C_4
REMARK    4  A    between atoms: C_4  and  N_5
REMARK    5  A    between atoms: C_6  and  C_8
REMARK    6  A    between atoms: C_10  and  C_11
REMARK    7  A    between atoms: C_12  and  O_13
REMARK    8  A    between atoms: C_15  and  O_16
REMARK    9  A    between atoms: C_18  and  O_19
REMARK   10  A    between atoms: O_19  and  C_20
REMARK   11  A    between atoms: C_23  and  N_24
REMARK                            x       y       z     vdW  Elec       q    Type
REMARK                         _______ _______ _______ _____ _____    ______ ____
ROOT
ATOM      1  C   UNL     1       3.896   4.164  18.756  0.00  0.00    +0.000 A 
ATOM      2  C   UNL     1       3.644   2.974  18.032  0.00  0.00    +0.000 A 
ATOM      3  C   UNL     1       2.406   2.330  18.059  0.00  0.00    +0.000 A 
ATOM      4  C   UNL     1       1.398   2.839  18.856  0.00  0.00    +0.000 A 
ATOM      5  C   UNL     1       1.624   3.958  19.649  0.00  0.00    +0.000 A 
ATOM      6  C   UNL     1       2.870   4.618  19.623  0.00  0.00    +0.000 A 
ENDROOT
BRANCH   1   9
ATOM      7  C   UNL     1       6.871   6.228  18.119  0.00  0.00    +0.000 A 
ATOM      8  C   UNL     1       5.595   5.841  17.648  0.00  0.00    +0.000 A 
ATOM      9  C   UNL     1       5.146   4.899  18.541  0.00  0.00    +0.000 A 
ATOM     10  O   UNL     1       6.148   4.667  19.441  0.00  0.00    +0.000 OA
ATOM     11  N   UNL     1       7.244   5.455  19.155  0.00  0.00    +0.000 NA
BRANCH   7  13
ATOM     12  N   UNL     1       7.885   8.350  18.555  0.00  0.00    +0.000 N 
ATOM     13  C   UNL     1       7.679   7.345  17.637  0.00  0.00    +0.000 C 
ATOM     14  O   UNL     1       8.150   7.356  16.501  0.00  0.00    +0.000 OA
ATOM     15  H   UNL     1       7.671   8.152  19.527  0.00  0.00    +0.000 HD
BRANCH  12  16
ATOM     16  C   UNL     1       8.728   9.474  18.237  0.00  0.00    +0.000 C 
BRANCH  16  17
ATOM     17  C   UNL     1       9.274  10.186  19.477  0.00  0.00    +0.000 C 
BRANCH  17  19
ATOM     18  C   UNL     1       9.865  11.781  17.848  0.00  0.00    +0.000 C 
ATOM     19  O   UNL     1       9.438  11.576  19.189  0.00  0.00    +0.000 OA
ENDBRANCH  17  19
ENDBRANCH  16  17
ENDBRANCH  12  16
ENDBRANCH   7  13
ENDBRANCH   1   9
BRANCH   2  20
ATOM     20  O   UNL     1       4.569   2.363  17.220  0.00  0.00    +0.000 OA
ATOM     21  H   UNL     1       4.809   2.968  16.494  0.00  0.00    +0.000 HD
ENDBRANCH   2  20
BRANCH   4  22
ATOM     22  O   UNL     1       0.159   2.270  18.880  0.00  0.00    +0.000 OA
ATOM     23  H   UNL     1      -0.416   2.740  18.252  0.00  0.00    +0.000 HD
ENDBRANCH   4  22
BRANCH   6  24
ATOM     24  O   UNL     1       2.879   5.764  20.398  0.00  0.00    +0.000 OA
BRANCH  24  25
ATOM     25  C   UNL     1       2.233   6.920  20.025  0.00  0.00    +0.000 A 
ATOM     26  C   UNL     1       2.450   7.312  18.693  0.00  0.00    +0.000 A 
ATOM     27  C   UNL     1       1.917   8.508  18.203  0.00  0.00    +0.000 A 
ATOM     28  C   UNL     1       1.149   9.311  19.055  0.00  0.00    +0.000 A 
ATOM     29  C   UNL     1       0.944   8.939  20.390  0.00  0.00    +0.000 A 
ATOM     30  C   UNL     1       1.454   7.726  20.860  0.00  0.00    +0.000 A 
BRANCH  28  31
ATOM     31  N   UNL     1       0.490  10.517  18.534  0.00  0.00    +0.000 N 
ATOM     32  O   UNL     1      -0.601  10.379  17.963  0.00  0.00    +0.000 OA
ATOM     33  O   UNL     1       1.045  11.607  18.737  0.00  0.00    +0.000 OA
ENDBRANCH  28  31
ENDBRANCH  24  25
ENDBRANCH   6  24
TORSDOF 10
ENDMDL
MODEL 8
REMARK VINA RESULT:      -8.3      2.086      8.011
REMARK  Name = 
REMARK  11 active torsions:
REMARK  status: ('A' for Active; 'I' for Inactive)
REMARK    1  A    between atoms: C_1  and  O_2
REMARK    2  A    between atoms: O_2  and  C_3
REMARK    3  A    between atoms: C_3  and  C_4
REMARK    4  A    between atoms: C_4  and  N_5
REMARK    5  A    between atoms: C_6  and  C_8
REMARK    6  A    between atoms: C_10  and  C_11
REMARK    7  A    between atoms: C_12  and  O_13
REMARK    8  A    between atoms: C_15  and  O_16
REMARK    9  A    between atoms: C_18  and  O_19
REMARK   10  A    between atoms: O_19  and  C_20
REMARK   11  A    between atoms: C_23  and  N_24
REMARK                            x       y       z     vdW  Elec       q    Type
REMARK                         _______ _______ _______ _____ _____    ______ ____
ROOT
ATOM      1  C   UNL     1       2.829   5.029  19.596  0.00  0.00    +0.000 A 
ATOM      2  C   UNL     1       2.052   3.932  20.039  0.00  0.00    +0.000 A 
ATOM      3  C   UNL     1       2.558   2.633  20.096  0.00  0.00    +0.000 A 
ATOM      4  C   UNL     1       3.848   2.390  19.662  0.00  0.00    +0.000 A 
ATOM      5  C   UNL     1       4.620   3.422  19.141  0.00  0.00    +0.000 A 
ATOM      6  C   UNL     1       4.119   4.738  19.084  0.00  0.00    +0.000 A 
ENDROOT
BRANCH   1   9
ATOM      7  C   UNL     1       1.472   8.445  19.665  0.00  0.00    +0.000 A 
ATOM      8  C   UNL     1       2.237   7.507  18.935  0.00  0.00    +0.000 A 
ATOM      9  C   UNL     1       2.313   6.394  19.736  0.00  0.00    +0.000 A 
ATOM     10  O   UNL     1       1.708   6.694  20.924  0.00  0.00    +0.000 OA
ATOM     11  N   UNL     1       1.225   7.986  20.905  0.00  0.00    +0.000 NA
BRANCH   7  13
ATOM     12  N   UNL     1      -0.240  10.113  19.762  0.00  0.00    +0.000 N 
ATOM     13  C   UNL     1       0.937   9.712  19.171  0.00  0.00    +0.000 C 
ATOM     14  O   UNL     1       1.522  10.365  18.308  0.00  0.00    +0.000 OA
ATOM     15  H   UNL     1      -0.521   9.647  20.619  0.00  0.00    +0.000 HD
BRANCH  12  16
ATOM     16  C   UNL     1      -0.836  11.381  19.424  0.00  0.00    +0.000 C 
BRANCH  16  17
ATOM     17  C   UNL     1      -2.158  11.240  18.667  0.00  0.00    +0.000 C 
BRANCH  17  19
ATOM     18  C   UNL     1      -2.493   9.933  16.736  0.00  0.00    +0.000 C 
ATOM     19  O   UNL     1      -1.889  11.104  17.270  0.00  0.00    +0.000 OA
ENDBRANCH  17  19
ENDBRANCH  16  17
ENDBRANCH  12  16
ENDBRANCH   7  13
ENDBRANCH   1   9
BRANCH   2  20
ATOM     20  O   UNL     1       0.755   4.042  20.479  0.00  0.00    +0.000 OA
ATOM     21  H   UNL     1       0.271   3.225  20.261  0.00  0.00    +0.000 HD
ENDBRANCH   2  20
BRANCH   4  22
ATOM     22  O   UNL     1       4.399   1.146  19.741  0.00  0.00    +0.000 OA
ATOM     23  H   UNL     1       5.332   1.231  20.005  0.00  0.00    +0.000 HD
ENDBRANCH   4  22
BRANCH   6  24
ATOM     24  O   UNL     1       5.060   5.644  18.629  0.00  0.00    +0.000 OA
BRANCH  24  25
ATOM     25  C   UNL     1       5.724   5.491  17.433  0.00  0.00    +0.000 A 
ATOM     26  C   UNL     1       4.965   5.809  16.294  0.00  0.00    +0.000 A 
ATOM     27  C   UNL     1       5.490   5.626  15.011  0.00  0.00    +0.000 A 
ATOM     28  C   UNL     1       6.792   5.132  14.871  0.00  0.00    +0.000 A 
ATOM     29  C   UNL     1       7.549   4.793  16.001  0.00  0.00    +0.000 A 
ATOM     30  C   UNL     1       7.027   5.010  17.279  0.00  0.00    +0.000 A 
BRANCH  28  31
ATOM     31  N   UNL     1       7.403   5.032  13.539  0.00  0.00    +0.000 N 
ATOM     32  O   UNL     1       8.391   5.741  13.301  0.00  0.00    +0.000 OA
ATOM     33  O   UNL     1       6.920   4.210  12.746  0.00  0.00    +0.000 OA
ENDBRANCH  28  31
ENDBRANCH  24  25
ENDBRANCH   6  24
TORSDOF 10
ENDMDL
MODEL 9
REMARK VINA RESULT:      -8.3      3.305      4.762
REMARK  Name = 
REMARK  11 active torsions:
REMARK  status: ('A' for Active; 'I' for Inactive)
REMARK    1  A    between atoms: C_1  and  O_2
REMARK    2  A    between atoms: O_2  and  C_3
REMARK    3  A    between atoms: C_3  and  C_4
REMARK    4  A    between atoms: C_4  and  N_5
REMARK    5  A    between atoms: C_6  and  C_8
REMARK    6  A    between atoms: C_10  and  C_11
REMARK    7  A    between atoms: C_12  and  O_13
REMARK    8  A    between atoms: C_15  and  O_16
REMARK    9  A    between atoms: C_18  and  O_19
REMARK   10  A    between atoms: O_19  and  C_20
REMARK   11  A    between atoms: C_23  and  N_24
REMARK                            x       y       z     vdW  Elec       q    Type
REMARK                         _______ _______ _______ _____ _____    ______ ____
ROOT
ATOM      1  C   UNL     1       4.078   4.199  18.764  0.00  0.00    +0.000 A 
ATOM      2  C   UNL     1       4.099   2.865  19.239  0.00  0.00    +0.000 A 
ATOM      3  C   UNL     1       2.979   2.036  19.186  0.00  0.00    +0.000 A 
ATOM      4  C   UNL     1       1.787   2.540  18.699  0.00  0.00    +0.000 A 
ATOM      5  C   UNL     1       1.696   3.868  18.300  0.00  0.00    +0.000 A 
ATOM      6  C   UNL     1       2.824   4.711  18.344  0.00  0.00    +0.000 A 
ENDROOT
BRANCH   1   9
ATOM      7  C   UNL     1       7.061   6.314  18.384  0.00  0.00    +0.000 A 
ATOM      8  C   UNL     1       5.873   5.851  17.775  0.00  0.00    +0.000 A 
ATOM      9  C   UNL     1       5.327   4.960  18.667  0.00  0.00    +0.000 A 
ATOM     10  O   UNL     1       6.201   4.828  19.710  0.00  0.00    +0.000 OA
ATOM     11  N   UNL     1       7.305   5.632  19.517  0.00  0.00    +0.000 NA
BRANCH   7  13
ATOM     12  N   UNL     1       8.417   8.204  18.942  0.00  0.00    +0.000 N 
ATOM     13  C   UNL     1       7.900   7.422  17.934  0.00  0.00    +0.000 C 
ATOM     14  O   UNL     1       8.133   7.609  16.741  0.00  0.00    +0.000 OA
ATOM     15  H   UNL     1       8.375   7.842  19.889  0.00  0.00    +0.000 HD
BRANCH  12  16
ATOM     16  C   UNL     1       9.324   9.283  18.643  0.00  0.00    +0.000 C 
BRANCH  16  17
ATOM     17  C   UNL     1       8.614  10.619  18.413  0.00  0.00    +0.000 C 
BRANCH  17  19
ATOM     18  C   UNL     1      10.601  11.565  19.255  0.00  0.00    +0.000 C 
ATOM     19  O   UNL     1       9.179  11.607  19.277  0.00  0.00    +0.000 OA
ENDBRANCH  17  19
ENDBRANCH  16  17
ENDBRANCH  12  16
ENDBRANCH   7  13
ENDBRANCH   1   9
BRANCH   2  20
ATOM     20  O   UNL     1       5.216   2.258  19.759  0.00  0.00    +0.000 OA
ATOM     21  H   UNL     1       4.976   1.373  20.090  0.00  0.00    +0.000 HD
ENDBRANCH   2  20
BRANCH   4  22
ATOM     22  O   UNL     1       0.679   1.754  18.588  0.00  0.00    +0.000 OA
ATOM     23  H   UNL     1       0.680   1.103  19.311  0.00  0.00    +0.000 HD
ENDBRANCH   4  22
BRANCH   6  24
ATOM     24  O   UNL     1       2.570   5.965  17.817  0.00  0.00    +0.000 OA
BRANCH  24  25
ATOM     25  C   UNL     1       2.103   7.012  18.577  0.00  0.00    +0.000 A 
ATOM     26  C   UNL     1       1.843   8.191  17.859  0.00  0.00    +0.000 A 
ATOM     27  C   UNL     1       1.437   9.356  18.517  0.00  0.00    +0.000 A 
ATOM     28  C   UNL     1       1.278   9.332  19.908  0.00  0.00    +0.000 A 
ATOM     29  C   UNL     1       1.553   8.167  20.635  0.00  0.00    +0.000 A 
ATOM     30  C   UNL     1       1.927   7.000  19.964  0.00  0.00    +0.000 A 
BRANCH  28  31
ATOM     31  N   UNL     1       0.750  10.511  20.608  0.00  0.00    +0.000 N 
ATOM     32  O   UNL     1       1.151  10.726  21.761  0.00  0.00    +0.000 OA
ATOM     33  O   UNL     1      -0.032  11.245  19.987  0.00  0.00    +0.000 OA
ENDBRANCH  28  31
ENDBRANCH  24  25
ENDBRANCH   6  24
TORSDOF 10
ENDMDL
