MODEL 1
REMARK VINA RESULT:      -8.6      0.000      0.000
REMARK  Name = 
REMARK  16 active torsions:
REMARK  status: ('A' for Active; 'I' for Inactive)
REMARK    1  A    between atoms: C_1  and  C_2
REMARK    2  A    between atoms: C_2  and  O_3
REMARK    3  A    between atoms: O_3  and  C_4
REMARK    4  A    between atoms: C_4  and  C_6
REMARK    5  A    between atoms: C_8  and  C_9
REMARK    6  A    between atoms: C_10  and  C_11
REMARK    7  A    between atoms: C_11  and  C_13
REMARK    8  A    between atoms: C_14  and  O_15
REMARK    9  A    between atoms: N_18  and  C_19
REMARK   10  A    between atoms: C_19  and  C_20
REMARK   11  A    between atoms: C_20  and  N_21
REMARK   12  A    between atoms: N_21  and  C_22
REMARK   13  A    between atoms: N_21  and  C_23
REMARK   14  A    between atoms: C_24  and  C_25
REMARK   15  A    between atoms: C_28  and  C_29
REMARK   16  A    between atoms: C_31  and  C_32
REMARK                            x       y       z     vdW  Elec       q    Type
REMARK                         _______ _______ _______ _____ _____    ______ ____
ROOT
ATOM      1  C   UNL     1       4.060   5.909  19.035  0.00  0.00    +0.000 C 
ATOM      2  C   UNL     1       3.696   6.806  18.105  0.00  0.00    +0.000 C 
ATOM      3  C   UNL     1       2.476   7.491  18.597  0.00  0.00    +0.000 C 
ATOM      4  O   UNL     1       1.876   8.383  18.023  0.00  0.00    +0.000 OA
ATOM      5  N   UNL     1       2.166   6.917  19.816  0.00  0.00    +0.000 N 
ATOM      6  C   UNL     1       3.105   5.867  20.184  0.00  0.00    +0.000 C 
ENDROOT
BRANCH   6   7
ATOM      7  C   UNL     1       2.355   4.602  20.430  0.00  0.00    +0.000 A 
ATOM      8  C   UNL     1       2.139   3.811  21.543  0.00  0.00    +0.000 A 
ATOM      9  C   UNL     1       1.395   2.690  21.104  0.00  0.00    +0.000 A 
ATOM     10  C   UNL     1       1.208   2.853  19.748  0.00  0.00    +0.000 A 
ATOM     11  C   UNL     1       0.543   2.034  18.714  0.00  0.00    +0.000 C 
ATOM     12  O   UNL     1       1.792   4.010  19.332  0.00  0.00    +0.000 OA
ENDBRANCH   6   7
BRANCH   1  13
ATOM     13  C   UNL     1       5.287   5.102  18.824  0.00  0.00    +0.000 C 
ATOM     14  O   UNL     1       5.660   4.332  19.709  0.00  0.00    +0.000 OA
BRANCH  13  19
ATOM     15  C   UNL     1       6.850   5.204  15.450  0.00  0.00    +0.000 A 
ATOM     16  N   UNL     1       7.420   6.252  16.132  0.00  0.00    +0.000 N 
ATOM     17  C   UNL     1       7.140   6.137  17.466  0.00  0.00    +0.000 A 
ATOM     18  C   UNL     1       7.971   6.852  18.472  0.00  0.00    +0.000 C 
ATOM     19  C   UNL     1       6.040   5.289  17.587  0.00  0.00    +0.000 A 
ATOM     20  C   UNL     1       6.003   4.555  16.347  0.00  0.00    +0.000 A 
ATOM     21  C   UNL     1       5.255   3.290  16.066  0.00  0.00    +0.000 C 
ATOM     22  H   UNL     1       8.084   6.895  15.717  0.00  0.00    +0.000 HD
BRANCH  15  23
ATOM     23  C   UNL     1       7.181   4.970  14.067  0.00  0.00    +0.000 C 
ATOM     24  O   UNL     1       8.076   5.542  13.466  0.00  0.00    +0.000 OA
BRANCH  23  25
ATOM     25  O   UNL     1       6.335   4.047  13.538  0.00  0.00    +0.000 OA
BRANCH  25  27
ATOM     26  C   UNL     1       5.517   2.694  11.766  0.00  0.00    +0.000 C 
ATOM     27  C   UNL     1       6.625   3.632  12.201  0.00  0.00    +0.000 C 
ENDBRANCH  25  27
ENDBRANCH  23  25
ENDBRANCH  15  23
ENDBRANCH  13  19
ENDBRANCH   1  13
BRANCH   2  28
ATOM     28  O   UNL     1       4.302   7.106  16.915  0.00  0.00    +0.000 OA
ATOM     29  H   UNL     1       5.106   7.635  17.115  0.00  0.00    +0.000 HD
ENDBRANCH   2  28
BRANCH   5  30
ATOM     30  C   UNL     1       1.106   7.399  20.692  0.00  0.00    +0.000 C 
BRANCH  30  31
ATOM     31  C   UNL     1       1.420   8.718  21.437  0.00  0.00    +0.000 C 
BRANCH  31  32
ATOM     32  N   UNL     1       0.328   9.715  21.504  0.00  0.00    +0.000 NA
ATOM     33  C   UNL     1      -0.155   9.890  22.878  0.00  0.00    +0.000 C 
ATOM     34  C   UNL     1       0.804  11.008  20.999  0.00  0.00    +0.000 C 
ENDBRANCH  31  32
ENDBRANCH  30  31
ENDBRANCH   5  30
TORSDOF 10
ENDMDL
MODEL 2
REMARK VINA RESULT:      -8.2      0.917      1.694
REMARK  Name = 
REMARK  16 active torsions:
REMARK  status: ('A' for Active; 'I' for Inactive)
REMARK    1  A    between atoms: C_1  and  C_2
REMARK    2  A    between atoms: C_2  and  O_3
REMARK    3  A    between atoms: O_3  and  C_4
REMARK    4  A    between atoms: C_4  and  C_6
REMARK    5  A    between atoms: C_8  and  C_9
REMARK    6  A    between atoms: C_10  and  C_11
REMARK    7  A    between atoms: C_11  and  C_13
REMARK    8  A    between atoms: C_14  and  O_15
REMARK    9  A    between atoms: N_18  and  C_19
REMARK   10  A    between atoms: C_19  and  C_20
REMARK   11  A    between atoms: C_20  and  N_21
REMARK   12  A    between atoms: N_21  and  C_22
REMARK   13  A    between atoms: N_21  and  C_23
REMARK   14  A    between atoms: C_24  and  C_25
REMARK   15  A    between atoms: C_28  and  C_29
REMARK   16  A    between atoms: C_31  and  C_32
REMARK                            x       y       z     vdW  Elec       q    Type
REMARK                         _______ _______ _______ _____ _____    ______ ____
ROOT
ATOM      1  C   UNL     1       3.949   6.042  19.143  0.00  0.00    +0.000 C 
ATOM      2  C   UNL     1       3.548   6.976  18.266  0.00  0.00    +0.000 C 
ATOM      3  C   UNL     1       2.349   7.639  18.836  0.00  0.00    +0.000 C 
ATOM      4  O   UNL     1       1.727   8.553  18.323  0.00  0.00    +0.000 OA
ATOM      5  N   UNL     1       2.089   7.015  20.041  0.00  0.00    +0.000 N 
ATOM      6  C   UNL     1       3.042   5.952  20.327  0.00  0.00    +0.000 C 
ENDROOT
BRANCH   6   7
ATOM      7  C   UNL     1       2.301   4.676  20.552  0.00  0.00    +0.000 A 
ATOM      8  C   UNL     1       2.131   3.841  21.638  0.00  0.00    +0.000 A 
ATOM      9  C   UNL     1       1.368   2.738  21.184  0.00  0.00    +0.000 A 
ATOM     10  C   UNL     1       1.126   2.956  19.845  0.00  0.00    +0.000 A 
ATOM     11  C   UNL     1       0.419   2.180  18.807  0.00  0.00    +0.000 C 
ATOM     12  O   UNL     1       1.694   4.130  19.453  0.00  0.00    +0.000 OA
ENDBRANCH   6   7
BRANCH   1  13
ATOM     13  C   UNL     1       5.166   5.245  18.849  0.00  0.00    +0.000 C 
ATOM     14  O   UNL     1       5.917   4.931  19.772  0.00  0.00    +0.000 OA
BRANCH  13  19
ATOM     15  C   UNL     1       6.350   4.725  15.361  0.00  0.00    +0.000 A 
ATOM     16  N   UNL     1       5.385   3.766  15.550  0.00  0.00    +0.000 N 
ATOM     17  C   UNL     1       4.679   4.044  16.688  0.00  0.00    +0.000 A 
ATOM     18  C   UNL     1       3.330   3.452  16.898  0.00  0.00    +0.000 C 
ATOM     19  C   UNL     1       5.457   4.905  17.459  0.00  0.00    +0.000 A 
ATOM     20  C   UNL     1       6.396   5.484  16.530  0.00  0.00    +0.000 A 
ATOM     21  C   UNL     1       7.231   6.708  16.731  0.00  0.00    +0.000 C 
ATOM     22  H   UNL     1       5.138   3.074  14.852  0.00  0.00    +0.000 HD
BRANCH  15  23
ATOM     23  C   UNL     1       7.081   4.788  14.120  0.00  0.00    +0.000 C 
ATOM     24  O   UNL     1       8.098   5.440  13.952  0.00  0.00    +0.000 OA
BRANCH  23  25
ATOM     25  O   UNL     1       6.453   4.039  13.175  0.00  0.00    +0.000 OA
BRANCH  25  27
ATOM     26  C   UNL     1       6.949   2.467  11.465  0.00  0.00    +0.000 C 
ATOM     27  C   UNL     1       7.149   3.895  11.934  0.00  0.00    +0.000 C 
ENDBRANCH  25  27
ENDBRANCH  23  25
ENDBRANCH  15  23
ENDBRANCH  13  19
ENDBRANCH   1  13
BRANCH   2  28
ATOM     28  O   UNL     1       4.106   7.326  17.066  0.00  0.00    +0.000 OA
ATOM     29  H   UNL     1       3.566   6.914  16.355  0.00  0.00    +0.000 HD
ENDBRANCH   2  28
BRANCH   5  30
ATOM     30  C   UNL     1       1.066   7.459  20.979  0.00  0.00    +0.000 C 
BRANCH  30  31
ATOM     31  C   UNL     1       1.449   8.692  21.832  0.00  0.00    +0.000 C 
BRANCH  31  32
ATOM     32  N   UNL     1       0.491   9.820  21.830  0.00  0.00    +0.000 NA
ATOM     33  C   UNL     1      -0.411   9.756  20.675  0.00  0.00    +0.000 C 
ATOM     34  C   UNL     1      -0.308   9.795  23.061  0.00  0.00    +0.000 C 
ENDBRANCH  31  32
ENDBRANCH  30  31
ENDBRANCH   5  30
TORSDOF 10
ENDMDL
MODEL 3
REMARK VINA RESULT:      -7.9      0.679      1.127
REMARK  Name = 
REMARK  16 active torsions:
REMARK  status: ('A' for Active; 'I' for Inactive)
REMARK    1  A    between atoms: C_1  and  C_2
REMARK    2  A    between atoms: C_2  and  O_3
REMARK    3  A    between atoms: O_3  and  C_4
REMARK    4  A    between atoms: C_4  and  C_6
REMARK    5  A    between atoms: C_8  and  C_9
REMARK    6  A    between atoms: C_10  and  C_11
REMARK    7  A    between atoms: C_11  and  C_13
REMARK    8  A    between atoms: C_14  and  O_15
REMARK    9  A    between atoms: N_18  and  C_19
REMARK   10  A    between atoms: C_19  and  C_20
REMARK   11  A    between atoms: C_20  and  N_21
REMARK   12  A    between atoms: N_21  and  C_22
REMARK   13  A    between atoms: N_21  and  C_23
REMARK   14  A    between atoms: C_24  and  C_25
REMARK   15  A    between atoms: C_28  and  C_29
REMARK   16  A    between atoms: C_31  and  C_32
REMARK                            x       y       z     vdW  Elec       q    Type
REMARK                         _______ _______ _______ _____ _____    ______ ____
ROOT
ATOM      1  C   UNL     1       4.038   6.069  18.902  0.00  0.00    +0.000 C 
ATOM      2  C   UNL     1       3.775   7.030  18.003  0.00  0.00    +0.000 C 
ATOM      3  C   UNL     1       2.531   7.717  18.431  0.00  0.00    +0.000 C 
ATOM      4  O   UNL     1       2.003   8.658  17.866  0.00  0.00    +0.000 OA
ATOM      5  N   UNL     1       2.104   7.078  19.580  0.00  0.00    +0.000 N 
ATOM      6  C   UNL     1       2.985   5.982  19.960  0.00  0.00    +0.000 C 
ENDROOT
BRANCH   6   7
ATOM      7  C   UNL     1       2.189   4.725  20.061  0.00  0.00    +0.000 A 
ATOM      8  C   UNL     1       1.368   4.033  19.191  0.00  0.00    +0.000 A 
ATOM      9  C   UNL     1       0.842   2.938  19.918  0.00  0.00    +0.000 A 
ATOM     10  C   UNL     1       1.360   3.029  21.192  0.00  0.00    +0.000 A 
ATOM     11  C   UNL     1       1.186   2.219  22.414  0.00  0.00    +0.000 C 
ATOM     12  O   UNL     1       2.177   4.115  21.287  0.00  0.00    +0.000 OA
ENDBRANCH   6   7
BRANCH   1  13
ATOM     13  C   UNL     1       5.260   5.243  18.746  0.00  0.00    +0.000 C 
ATOM     14  O   UNL     1       5.624   4.526  19.678  0.00  0.00    +0.000 OA
BRANCH  13  19
ATOM     15  C   UNL     1       6.821   5.157  15.370  0.00  0.00    +0.000 A 
ATOM     16  N   UNL     1       7.446   6.194  16.019  0.00  0.00    +0.000 N 
ATOM     17  C   UNL     1       7.163   6.136  17.356  0.00  0.00    +0.000 A 
ATOM     18  C   UNL     1       8.032   6.839  18.338  0.00  0.00    +0.000 C 
ATOM     19  C   UNL     1       6.021   5.352  17.504  0.00  0.00    +0.000 A 
ATOM     20  C   UNL     1       5.943   4.581  16.287  0.00  0.00    +0.000 A 
ATOM     21  C   UNL     1       5.130   3.349  16.047  0.00  0.00    +0.000 C 
ATOM     22  H   UNL     1       8.143   6.788  15.584  0.00  0.00    +0.000 HD
BRANCH  15  23
ATOM     23  C   UNL     1       7.137   4.862  13.996  0.00  0.00    +0.000 C 
ATOM     24  O   UNL     1       7.937   5.491  13.322  0.00  0.00    +0.000 OA
BRANCH  23  25
ATOM     25  O   UNL     1       6.395   3.807  13.566  0.00  0.00    +0.000 OA
BRANCH  25  27
ATOM     26  C   UNL     1       5.104   3.009  11.740  0.00  0.00    +0.000 C 
ATOM     27  C   UNL     1       6.462   3.530  12.165  0.00  0.00    +0.000 C 
ENDBRANCH  25  27
ENDBRANCH  23  25
ENDBRANCH  15  23
ENDBRANCH  13  19
ENDBRANCH   1  13
BRANCH   2  28
ATOM     28  O   UNL     1       4.489   7.387  16.891  0.00  0.00    +0.000 OA
ATOM     29  H   UNL     1       5.432   7.172  17.061  0.00  0.00    +0.000 HD
ENDBRANCH   2  28
BRANCH   5  30
ATOM     30  C   UNL     1       0.983   7.533  20.391  0.00  0.00    +0.000 C 
BRANCH  30  31
ATOM     31  C   UNL     1       1.295   8.717  21.338  0.00  0.00    +0.000 C 
BRANCH  31  32
ATOM     32  N   UNL     1       0.676  10.016  20.998  0.00  0.00    +0.000 NA
ATOM     33  C   UNL     1      -0.379   9.861  19.990  0.00  0.00    +0.000 C 
ATOM     34  C   UNL     1       0.098  10.622  22.203  0.00  0.00    +0.000 C 
ENDBRANCH  31  32
ENDBRANCH  30  31
ENDBRANCH   5  30
TORSDOF 10
ENDMDL
MODEL 4
REMARK VINA RESULT:      -7.8      1.057      1.932
REMARK  Name = 
REMARK  16 active torsions:
REMARK  status: ('A' for Active; 'I' for Inactive)
REMARK    1  A    between atoms: C_1  and  C_2
REMARK    2  A    between atoms: C_2  and  O_3
REMARK    3  A    between atoms: O_3  and  C_4
REMARK    4  A    between atoms: C_4  and  C_6
REMARK    5  A    between atoms: C_8  and  C_9
REMARK    6  A    between atoms: C_10  and  C_11
REMARK    7  A    between atoms: C_11  and  C_13
REMARK    8  A    between atoms: C_14  and  O_15
REMARK    9  A    between atoms: N_18  and  C_19
REMARK   10  A    between atoms: C_19  and  C_20
REMARK   11  A    between atoms: C_20  and  N_21
REMARK   12  A    between atoms: N_21  and  C_22
REMARK   13  A    between atoms: N_21  and  C_23
REMARK   14  A    between atoms: C_24  and  C_25
REMARK   15  A    between atoms: C_28  and  C_29
REMARK   16  A    between atoms: C_31  and  C_32
REMARK                            x       y       z     vdW  Elec       q    Type
REMARK                         _______ _______ _______ _____ _____    ______ ____
ROOT
ATOM      1  C   UNL     1       3.914   6.157  19.096  0.00  0.00    +0.000 C 
ATOM      2  C   UNL     1       3.620   7.172  18.268  0.00  0.00    +0.000 C 
ATOM      3  C   UNL     1       2.405   7.841  18.792  0.00  0.00    +0.000 C 
ATOM      4  O   UNL     1       1.861   8.818  18.306  0.00  0.00    +0.000 OA
ATOM      5  N   UNL     1       2.023   7.139  19.920  0.00  0.00    +0.000 N 
ATOM      6  C   UNL     1       2.910   6.017  20.195  0.00  0.00    +0.000 C 
ENDROOT
BRANCH   6   7
ATOM      7  C   UNL     1       2.106   4.761  20.258  0.00  0.00    +0.000 A 
ATOM      8  C   UNL     1       1.200   4.155  19.410  0.00  0.00    +0.000 A 
ATOM      9  C   UNL     1       0.723   3.005  20.084  0.00  0.00    +0.000 A 
ATOM     10  C   UNL     1       1.355   2.981  21.309  0.00  0.00    +0.000 A 
ATOM     11  C   UNL     1       1.277   2.068  22.468  0.00  0.00    +0.000 C 
ATOM     12  O   UNL     1       2.193   4.048  21.423  0.00  0.00    +0.000 OA
ENDBRANCH   6   7
BRANCH   1  13
ATOM     13  C   UNL     1       5.120   5.333  18.837  0.00  0.00    +0.000 C 
ATOM     14  O   UNL     1       5.857   5.034  19.776  0.00  0.00    +0.000 OA
BRANCH  13  19
ATOM     15  C   UNL     1       6.341   4.670  15.387  0.00  0.00    +0.000 A 
ATOM     16  N   UNL     1       5.313   3.779  15.571  0.00  0.00    +0.000 N 
ATOM     17  C   UNL     1       4.602   4.123  16.688  0.00  0.00    +0.000 A 
ATOM     18  C   UNL     1       3.214   3.623  16.878  0.00  0.00    +0.000 C 
ATOM     19  C   UNL     1       5.418   4.948  17.461  0.00  0.00    +0.000 A 
ATOM     20  C   UNL     1       6.412   5.447  16.542  0.00  0.00    +0.000 A 
ATOM     21  C   UNL     1       7.319   6.619  16.740  0.00  0.00    +0.000 C 
ATOM     22  H   UNL     1       5.037   3.091  14.880  0.00  0.00    +0.000 HD
BRANCH  15  23
ATOM     23  C   UNL     1       7.101   4.662  14.162  0.00  0.00    +0.000 C 
ATOM     24  O   UNL     1       7.866   5.548  13.819  0.00  0.00    +0.000 OA
BRANCH  23  25
ATOM     25  O   UNL     1       6.813   3.542  13.446  0.00  0.00    +0.000 OA
BRANCH  25  27
ATOM     26  C   UNL     1       5.050   3.288  11.877  0.00  0.00    +0.000 C 
ATOM     27  C   UNL     1       6.480   3.751  12.072  0.00  0.00    +0.000 C 
ENDBRANCH  25  27
ENDBRANCH  23  25
ENDBRANCH  15  23
ENDBRANCH  13  19
ENDBRANCH   1  13
BRANCH   2  28
ATOM     28  O   UNL     1       4.287   7.587  17.147  0.00  0.00    +0.000 OA
ATOM     29  H   UNL     1       5.010   8.187  17.435  0.00  0.00    +0.000 HD
ENDBRANCH   2  28
BRANCH   5  30
ATOM     30  C   UNL     1       0.944   7.555  20.806  0.00  0.00    +0.000 C 
BRANCH  30  31
ATOM     31  C   UNL     1       1.321   8.654  21.828  0.00  0.00    +0.000 C 
BRANCH  31  32
ATOM     32  N   UNL     1       0.487   9.877  21.820  0.00  0.00    +0.000 NA
ATOM     33  C   UNL     1      -0.404   9.912  20.656  0.00  0.00    +0.000 C 
ATOM     34  C   UNL     1      -0.324   9.932  23.042  0.00  0.00    +0.000 C 
ENDBRANCH  31  32
ENDBRANCH  30  31
ENDBRANCH   5  30
TORSDOF 10
ENDMDL
MODEL 5
REMARK VINA RESULT:      -7.6      4.300      8.291
REMARK  Name = 
REMARK  16 active torsions:
REMARK  status: ('A' for Active; 'I' for Inactive)
REMARK    1  A    between atoms: C_1  and  C_2
REMARK    2  A    between atoms: C_2  and  O_3
REMARK    3  A    between atoms: O_3  and  C_4
REMARK    4  A    between atoms: C_4  and  C_6
REMARK    5  A    between atoms: C_8  and  C_9
REMARK    6  A    between atoms: C_10  and  C_11
REMARK    7  A    between atoms: C_11  and  C_13
REMARK    8  A    between atoms: C_14  and  O_15
REMARK    9  A    between atoms: N_18  and  C_19
REMARK   10  A    between atoms: C_19  and  C_20
REMARK   11  A    between atoms: C_20  and  N_21
REMARK   12  A    between atoms: N_21  and  C_22
REMARK   13  A    between atoms: N_21  and  C_23
REMARK   14  A    between atoms: C_24  and  C_25
REMARK   15  A    between atoms: C_28  and  C_29
REMARK   16  A    between atoms: C_31  and  C_32
REMARK                            x       y       z     vdW  Elec       q    Type
REMARK                         _______ _______ _______ _____ _____    ______ ____
ROOT
ATOM      1  C   UNL     1       1.453  11.986  19.539  0.00  0.00    +0.000 C 
ATOM      2  C   UNL     1       2.234  12.552  18.605  0.00  0.00    +0.000 C 
ATOM      3  C   UNL     1       2.943  13.688  19.243  0.00  0.00    +0.000 C 
ATOM      4  O   UNL     1       3.754  14.419  18.701  0.00  0.00    +0.000 OA
ATOM      5  N   UNL     1       2.501  13.744  20.551  0.00  0.00    +0.000 N 
ATOM      6  C   UNL     1       1.519  12.711  20.845  0.00  0.00    +0.000 C 
ENDROOT
BRANCH   6   7
ATOM      7  C   UNL     1       0.273  13.350  21.359  0.00  0.00    +0.000 A 
ATOM      8  C   UNL     1      -0.585  13.081  22.408  0.00  0.00    +0.000 A 
ATOM      9  C   UNL     1      -1.638  14.023  22.320  0.00  0.00    +0.000 A 
ATOM     10  C   UNL     1      -1.372  14.804  21.216  0.00  0.00    +0.000 A 
ATOM     11  C   UNL     1      -2.086  15.929  20.578  0.00  0.00    +0.000 C 
ATOM     12  O   UNL     1      -0.215  14.398  20.625  0.00  0.00    +0.000 OA
ENDBRANCH   6   7
BRANCH   1  13
ATOM     13  C   UNL     1       0.654  10.787  19.188  0.00  0.00    +0.000 C 
ATOM     14  O   UNL     1      -0.385  10.925  18.542  0.00  0.00    +0.000 OA
BRANCH  13  19
ATOM     15  C   UNL     1       2.060   7.421  19.916  0.00  0.00    +0.000 A 
ATOM     16  N   UNL     1       1.564   7.860  21.119  0.00  0.00    +0.000 N 
ATOM     17  C   UNL     1       0.769   8.955  20.914  0.00  0.00    +0.000 A 
ATOM     18  C   UNL     1      -0.228   9.361  21.941  0.00  0.00    +0.000 C 
ATOM     19  C   UNL     1       1.104   9.484  19.669  0.00  0.00    +0.000 A 
ATOM     20  C   UNL     1       1.756   8.402  18.973  0.00  0.00    +0.000 A 
ATOM     21  C   UNL     1       2.013   8.296  17.503  0.00  0.00    +0.000 C 
ATOM     22  H   UNL     1       1.644   7.337  21.983  0.00  0.00    +0.000 HD
BRANCH  15  23
ATOM     23  C   UNL     1       2.743   6.154  19.830  0.00  0.00    +0.000 C 
ATOM     24  O   UNL     1       3.927   6.026  19.567  0.00  0.00    +0.000 OA
BRANCH  23  25
ATOM     25  O   UNL     1       1.867   5.140  20.057  0.00  0.00    +0.000 OA
BRANCH  25  27
ATOM     26  C   UNL     1       1.337   3.037  21.024  0.00  0.00    +0.000 C 
ATOM     27  C   UNL     1       2.169   4.296  21.170  0.00  0.00    +0.000 C 
ENDBRANCH  25  27
ENDBRANCH  23  25
ENDBRANCH  15  23
ENDBRANCH  13  19
ENDBRANCH   1  13
BRANCH   2  28
ATOM     28  O   UNL     1       2.414  12.188  17.298  0.00  0.00    +0.000 OA
ATOM     29  H   UNL     1       2.780  11.276  17.290  0.00  0.00    +0.000 HD
ENDBRANCH   2  28
BRANCH   5  30
ATOM     30  C   UNL     1       3.054  14.644  21.555  0.00  0.00    +0.000 C 
BRANCH  30  31
ATOM     31  C   UNL     1       4.462  14.263  22.074  0.00  0.00    +0.000 C 
BRANCH  31  32
ATOM     32  N   UNL     1       4.667  14.331  23.537  0.00  0.00    +0.000 NA
ATOM     33  C   UNL     1       5.808  13.510  23.958  0.00  0.00    +0.000 C 
ATOM     34  C   UNL     1       4.907  15.721  23.941  0.00  0.00    +0.000 C 
ENDBRANCH  31  32
ENDBRANCH  30  31
ENDBRANCH   5  30
TORSDOF 10
ENDMDL
MODEL 6
REMARK VINA RESULT:      -7.6      4.521      8.656
REMARK  Name = 
REMARK  16 active torsions:
REMARK  status: ('A' for Active; 'I' for Inactive)
REMARK    1  A    between atoms: C_1  and  C_2
REMARK    2  A    between atoms: C_2  and  O_3
REMARK    3  A    between atoms: O_3  and  C_4
REMARK    4  A    between atoms: C_4  and  C_6
REMARK    5  A    between atoms: C_8  and  C_9
REMARK    6  A    between atoms: C_10  and  C_11
REMARK    7  A    between atoms: C_11  and  C_13
REMARK    8  A    between atoms: C_14  and  O_15
REMARK    9  A    between atoms: N_18  and  C_19
REMARK   10  A    between atoms: C_19  and  C_20
REMARK   11  A    between atoms: C_20  and  N_21
REMARK   12  A    between atoms: N_21  and  C_22
REMARK   13  A    between atoms: N_21  and  C_23
REMARK   14  A    between atoms: C_24  and  C_25
REMARK   15  A    between atoms: C_28  and  C_29
REMARK   16  A    between atoms: C_31  and  C_32
REMARK                            x       y       z     vdW  Elec       q    Type
REMARK                         _______ _______ _______ _____ _____    ______ ____
ROOT
ATOM      1  C   UNL     1       1.547  12.429  19.719  0.00  0.00    +0.000 C 
ATOM      2  C   UNL     1       2.390  12.817  18.749  0.00  0.00    +0.000 C 
ATOM      3  C   UNL     1       3.215  13.924  19.289  0.00  0.00    +0.000 C 
ATOM      4  O   UNL     1       4.104  14.510  18.695  0.00  0.00    +0.000 OA
ATOM      5  N   UNL     1       2.775  14.152  20.580  0.00  0.00    +0.000 N 
ATOM      6  C   UNL     1       1.683  13.262  20.952  0.00  0.00    +0.000 C 
ENDROOT
BRANCH   6   7
ATOM      7  C   UNL     1       0.511  14.078  21.384  0.00  0.00    +0.000 A 
ATOM      8  C   UNL     1      -0.341  14.954  20.741  0.00  0.00    +0.000 A 
ATOM      9  C   UNL     1      -1.215  15.467  21.730  0.00  0.00    +0.000 A 
ATOM     10  C   UNL     1      -0.839  14.886  22.922  0.00  0.00    +0.000 A 
ATOM     11  C   UNL     1      -1.329  15.018  24.309  0.00  0.00    +0.000 C 
ATOM     12  O   UNL     1       0.212  14.044  22.720  0.00  0.00    +0.000 OA
ENDBRANCH   6   7
BRANCH   1  13
ATOM     13  C   UNL     1       0.623  11.296  19.468  0.00  0.00    +0.000 C 
ATOM     14  O   UNL     1      -0.465  11.513  18.936  0.00  0.00    +0.000 OA
BRANCH  13  19
ATOM     15  C   UNL     1       1.837   7.832  20.078  0.00  0.00    +0.000 A 
ATOM     16  N   UNL     1       1.503   8.310  21.321  0.00  0.00    +0.000 N 
ATOM     17  C   UNL     1       0.776   9.462  21.190  0.00  0.00    +0.000 A 
ATOM     18  C   UNL     1      -0.075   9.944  22.311  0.00  0.00    +0.000 C 
ATOM     19  C   UNL     1       1.020   9.962  19.912  0.00  0.00    +0.000 A 
ATOM     20  C   UNL     1       1.512   8.833  19.163  0.00  0.00    +0.000 A 
ATOM     21  C   UNL     1       1.607   8.705  17.675  0.00  0.00    +0.000 C 
ATOM     22  H   UNL     1       1.631   7.783  22.177  0.00  0.00    +0.000 HD
BRANCH  15  23
ATOM     23  C   UNL     1       2.408   6.517  19.933  0.00  0.00    +0.000 C 
ATOM     24  O   UNL     1       3.367   6.256  19.225  0.00  0.00    +0.000 OA
BRANCH  23  25
ATOM     25  O   UNL     1       1.704   5.622  20.676  0.00  0.00    +0.000 OA
BRANCH  25  27
ATOM     26  C   UNL     1       1.205   3.303  20.773  0.00  0.00    +0.000 C 
ATOM     27  C   UNL     1       2.311   4.338  20.840  0.00  0.00    +0.000 C 
ENDBRANCH  25  27
ENDBRANCH  23  25
ENDBRANCH  15  23
ENDBRANCH  13  19
ENDBRANCH   1  13
BRANCH   2  28
ATOM     28  O   UNL     1       2.537  12.313  17.484  0.00  0.00    +0.000 OA
ATOM     29  H   UNL     1       1.720  12.528  16.982  0.00  0.00    +0.000 HD
ENDBRANCH   2  28
BRANCH   5  30
ATOM     30  C   UNL     1       3.416  15.077  21.504  0.00  0.00    +0.000 C 
BRANCH  30  31
ATOM     31  C   UNL     1       4.698  14.540  22.186  0.00  0.00    +0.000 C 
BRANCH  31  32
ATOM     32  N   UNL     1       4.705  14.531  23.666  0.00  0.00    +0.000 NA
ATOM     33  C   UNL     1       5.731  13.626  24.193  0.00  0.00    +0.000 C 
ATOM     34  C   UNL     1       4.962  15.886  24.169  0.00  0.00    +0.000 C 
ENDBRANCH  31  32
ENDBRANCH  30  31
ENDBRANCH   5  30
TORSDOF 10
ENDMDL
MODEL 7
REMARK VINA RESULT:      -7.5      3.932      7.724
REMARK  Name = 
REMARK  16 active torsions:
REMARK  status: ('A' for Active; 'I' for Inactive)
REMARK    1  A    between atoms: C_1  and  C_2
REMARK    2  A    between atoms: C_2  and  O_3
REMARK    3  A    between atoms: O_3  and  C_4
REMARK    4  A    between atoms: C_4  and  C_6
REMARK    5  A    between atoms: C_8  and  C_9
REMARK    6  A    between atoms: C_10  and  C_11
REMARK    7  A    between atoms: C_11  and  C_13
REMARK    8  A    between atoms: C_14  and  O_15
REMARK    9  A    between atoms: N_18  and  C_19
REMARK   10  A    between atoms: C_19  and  C_20
REMARK   11  A    between atoms: C_20  and  N_21
REMARK   12  A    between atoms: N_21  and  C_22
REMARK   13  A    between atoms: N_21  and  C_23
REMARK   14  A    between atoms: C_24  and  C_25
REMARK   15  A    between atoms: C_28  and  C_29
REMARK   16  A    between atoms: C_31  and  C_32
REMARK                            x       y       z     vdW  Elec       q    Type
REMARK                         _______ _______ _______ _____ _____    ______ ____
ROOT
ATOM      1  C   UNL     1       1.300  11.381  19.253  0.00  0.00    +0.000 C 
ATOM      2  C   UNL     1       2.119  12.090  18.461  0.00  0.00    +0.000 C 
ATOM      3  C   UNL     1       2.498  13.321  19.195  0.00  0.00    +0.000 C 
ATOM      4  O   UNL     1       3.250  14.192  18.792  0.00  0.00    +0.000 OA
ATOM      5  N   UNL     1       1.833  13.278  20.406  0.00  0.00    +0.000 N 
ATOM      6  C   UNL     1       1.010  12.084  20.540  0.00  0.00    +0.000 C 
ENDROOT
BRANCH   6   7
ATOM      7  C   UNL     1      -0.398  12.488  20.820  0.00  0.00    +0.000 A 
ATOM      8  C   UNL     1      -1.346  13.218  20.130  0.00  0.00    +0.000 A 
ATOM      9  C   UNL     1      -2.478  13.311  20.974  0.00  0.00    +0.000 A 
ATOM     10  C   UNL     1      -2.154  12.645  22.137  0.00  0.00    +0.000 A 
ATOM     11  C   UNL     1      -2.881  12.403  23.399  0.00  0.00    +0.000 C 
ATOM     12  O   UNL     1      -0.890  12.145  22.051  0.00  0.00    +0.000 OA
ENDBRANCH   6   7
BRANCH   1  13
ATOM     13  C   UNL     1       0.795  10.067  18.785  0.00  0.00    +0.000 C 
ATOM     14  O   UNL     1      -0.111  10.032  17.952  0.00  0.00    +0.000 OA
BRANCH  13  19
ATOM     15  C   UNL     1       2.532   6.939  19.805  0.00  0.00    +0.000 A 
ATOM     16  N   UNL     1       1.901   7.377  20.944  0.00  0.00    +0.000 N 
ATOM     17  C   UNL     1       1.000   8.354  20.623  0.00  0.00    +0.000 A 
ATOM     18  C   UNL     1      -0.110   8.688  21.555  0.00  0.00    +0.000 C 
ATOM     19  C   UNL     1       1.359   8.854  19.373  0.00  0.00    +0.000 A 
ATOM     20  C   UNL     1       2.183   7.825  18.787  0.00  0.00    +0.000 A 
ATOM     21  C   UNL     1       2.557   7.675  17.347  0.00  0.00    +0.000 C 
ATOM     22  H   UNL     1       1.979   6.912  21.841  0.00  0.00    +0.000 HD
BRANCH  15  23
ATOM     23  C   UNL     1       3.363   5.762  19.840  0.00  0.00    +0.000 C 
ATOM     24  O   UNL     1       4.526   5.728  19.471  0.00  0.00    +0.000 OA
BRANCH  23  25
ATOM     25  O   UNL     1       2.651   4.706  20.317  0.00  0.00    +0.000 OA
BRANCH  25  27
ATOM     26  C   UNL     1       0.931   3.077  20.165  0.00  0.00    +0.000 C 
ATOM     27  C   UNL     1       1.727   4.116  19.400  0.00  0.00    +0.000 C 
ENDBRANCH  25  27
ENDBRANCH  23  25
ENDBRANCH  15  23
ENDBRANCH  13  19
ENDBRANCH   1  13
BRANCH   2  28
ATOM     28  O   UNL     1       2.584  11.784  17.209  0.00  0.00    +0.000 OA
ATOM     29  H   UNL     1       3.276  11.094  17.309  0.00  0.00    +0.000 HD
ENDBRANCH   2  28
BRANCH   5  30
ATOM     30  C   UNL     1       2.038  14.244  21.478  0.00  0.00    +0.000 C 
BRANCH  30  31
ATOM     31  C   UNL     1       1.268  15.577  21.317  0.00  0.00    +0.000 C 
BRANCH  31  32
ATOM     32  N   UNL     1       2.037  16.724  20.788  0.00  0.00    +0.000 NA
ATOM     33  C   UNL     1       1.498  17.187  19.505  0.00  0.00    +0.000 C 
ATOM     34  C   UNL     1       1.997  17.834  21.749  0.00  0.00    +0.000 C 
ENDBRANCH  31  32
ENDBRANCH  30  31
ENDBRANCH   5  30
TORSDOF 10
ENDMDL
MODEL 8
REMARK VINA RESULT:      -7.4      3.933      8.415
REMARK  Name = 
REMARK  16 active torsions:
REMARK  status: ('A' for Active; 'I' for Inactive)
REMARK    1  A    between atoms: C_1  and  C_2
REMARK    2  A    between atoms: C_2  and  O_3
REMARK    3  A    between atoms: O_3  and  C_4
REMARK    4  A    between atoms: C_4  and  C_6
REMARK    5  A    between atoms: C_8  and  C_9
REMARK    6  A    between atoms: C_10  and  C_11
REMARK    7  A    between atoms: C_11  and  C_13
REMARK    8  A    between atoms: C_14  and  O_15
REMARK    9  A    between atoms: N_18  and  C_19
REMARK   10  A    between atoms: C_19  and  C_20
REMARK   11  A    between atoms: C_20  and  N_21
REMARK   12  A    between atoms: N_21  and  C_22
REMARK   13  A    between atoms: N_21  and  C_23
REMARK   14  A    between atoms: C_24  and  C_25
REMARK   15  A    between atoms: C_28  and  C_29
REMARK   16  A    between atoms: C_31  and  C_32
REMARK                            x       y       z     vdW  Elec       q    Type
REMARK                         _______ _______ _______ _____ _____    ______ ____
ROOT
ATOM      1  C   UNL     1       1.601  12.375  19.505  0.00  0.00    +0.000 C 
ATOM      2  C   UNL     1       2.411  12.792  18.520  0.00  0.00    +0.000 C 
ATOM      3  C   UNL     1       3.247  13.891  19.062  0.00  0.00    +0.000 C 
ATOM      4  O   UNL     1       4.113  14.496  18.455  0.00  0.00    +0.000 OA
ATOM      5  N   UNL     1       2.844  14.084  20.370  0.00  0.00    +0.000 N 
ATOM      6  C   UNL     1       1.770  13.179  20.754  0.00  0.00    +0.000 C 
ENDROOT
BRANCH   6   7
ATOM      7  C   UNL     1       0.607  13.976  21.242  0.00  0.00    +0.000 A 
ATOM      8  C   UNL     1      -0.200  14.944  20.677  0.00  0.00    +0.000 A 
ATOM      9  C   UNL     1      -1.091  15.369  21.692  0.00  0.00    +0.000 A 
ATOM     10  C   UNL     1      -0.770  14.647  22.821  0.00  0.00    +0.000 A 
ATOM     11  C   UNL     1      -1.300  14.638  24.200  0.00  0.00    +0.000 C 
ATOM     12  O   UNL     1       0.264  13.801  22.555  0.00  0.00    +0.000 OA
ENDBRANCH   6   7
BRANCH   1  13
ATOM     13  C   UNL     1       0.676  11.242  19.255  0.00  0.00    +0.000 C 
ATOM     14  O   UNL     1      -0.362  11.441  18.624  0.00  0.00    +0.000 OA
BRANCH  13  19
ATOM     15  C   UNL     1       1.759   7.805  20.180  0.00  0.00    +0.000 A 
ATOM     16  N   UNL     1       1.353   8.374  21.362  0.00  0.00    +0.000 N 
ATOM     17  C   UNL     1       0.666   9.529  21.103  0.00  0.00    +0.000 A 
ATOM     18  C   UNL     1      -0.248  10.105  22.127  0.00  0.00    +0.000 C 
ATOM     19  C   UNL     1       1.008   9.935  19.815  0.00  0.00    +0.000 A 
ATOM     20  C   UNL     1       1.522   8.746  19.179  0.00  0.00    +0.000 A 
ATOM     21  C   UNL     1       1.715   8.515  17.714  0.00  0.00    +0.000 C 
ATOM     22  H   UNL     1       1.410   7.905  22.259  0.00  0.00    +0.000 HD
BRANCH  15  23
ATOM     23  C   UNL     1       2.306   6.472  20.164  0.00  0.00    +0.000 C 
ATOM     24  O   UNL     1       1.790   5.509  20.707  0.00  0.00    +0.000 OA
BRANCH  23  25
ATOM     25  O   UNL     1       3.483   6.462  19.484  0.00  0.00    +0.000 OA
BRANCH  25  27
ATOM     26  C   UNL     1       3.499   5.057  17.570  0.00  0.00    +0.000 C 
ATOM     27  C   UNL     1       3.922   5.183  19.020  0.00  0.00    +0.000 C 
ENDBRANCH  25  27
ENDBRANCH  23  25
ENDBRANCH  15  23
ENDBRANCH  13  19
ENDBRANCH   1  13
BRANCH   2  28
ATOM     28  O   UNL     1       2.522  12.320  17.239  0.00  0.00    +0.000 OA
ATOM     29  H   UNL     1       3.374  11.835  17.173  0.00  0.00    +0.000 HD
ENDBRANCH   2  28
BRANCH   5  30
ATOM     30  C   UNL     1       3.509  14.990  21.297  0.00  0.00    +0.000 C 
BRANCH  30  31
ATOM     31  C   UNL     1       4.854  14.477  21.867  0.00  0.00    +0.000 C 
BRANCH  31  32
ATOM     32  N   UNL     1       4.839  14.002  23.267  0.00  0.00    +0.000 NA
ATOM     33  C   UNL     1       5.844  12.956  23.490  0.00  0.00    +0.000 C 
ATOM     34  C   UNL     1       5.111  15.123  24.175  0.00  0.00    +0.000 C 
ENDBRANCH  31  32
ENDBRANCH  30  31
ENDBRANCH   5  30
TORSDOF 10
ENDMDL
MODEL 9
REMARK VINA RESULT:      -7.3      0.987      1.388
REMARK  Name = 
REMARK  16 active torsions:
REMARK  status: ('A' for Active; 'I' for Inactive)
REMARK    1  A    between atoms: C_1  and  C_2
REMARK    2  A    between atoms: C_2  and  O_3
REMARK    3  A    between atoms: O_3  and  C_4
REMARK    4  A    between atoms: C_4  and  C_6
REMARK    5  A    between atoms: C_8  and  C_9
REMARK    6  A    between atoms: C_10  and  C_11
REMARK    7  A    between atoms: C_11  and  C_13
REMARK    8  A    between atoms: C_14  and  O_15
REMARK    9  A    between atoms: N_18  and  C_19
REMARK   10  A    between atoms: C_19  and  C_20
REMARK   11  A    between atoms: C_20  and  N_21
REMARK   12  A    between atoms: N_21  and  C_22
REMARK   13  A    between atoms: N_21  and  C_23
REMARK   14  A    between atoms: C_24  and  C_25
REMARK   15  A    between atoms: C_28  and  C_29
REMARK   16  A    between atoms: C_31  and  C_32
REMARK                            x       y       z     vdW  Elec       q    Type
REMARK                         _______ _______ _______ _____ _____    ______ ____
ROOT
ATOM      1  C   UNL     1       3.867   6.321  18.979  0.00  0.00    +0.000 C 
ATOM      2  C   UNL     1       3.500   7.332  18.176  0.00  0.00    +0.000 C 
ATOM      3  C   UNL     1       2.246   7.906  18.722  0.00  0.00    +0.000 C 
ATOM      4  O   UNL     1       1.635   8.854  18.262  0.00  0.00    +0.000 OA
ATOM      5  N   UNL     1       1.921   7.154  19.835  0.00  0.00    +0.000 N 
ATOM      6  C   UNL     1       2.883   6.088  20.079  0.00  0.00    +0.000 C 
ENDROOT
BRANCH   6   7
ATOM      7  C   UNL     1       2.166   4.780  20.118  0.00  0.00    +0.000 A 
ATOM      8  C   UNL     1       1.455   4.044  19.190  0.00  0.00    +0.000 A 
ATOM      9  C   UNL     1       0.953   2.911  19.873  0.00  0.00    +0.000 A 
ATOM     10  C   UNL     1       1.374   3.024  21.180  0.00  0.00    +0.000 A 
ATOM     11  C   UNL     1       1.169   2.192  22.384  0.00  0.00    +0.000 C 
ATOM     12  O   UNL     1       2.109   4.160  21.337  0.00  0.00    +0.000 OA
ENDBRANCH   6   7
BRANCH   1  13
ATOM     13  C   UNL     1       5.124   5.586  18.694  0.00  0.00    +0.000 C 
ATOM     14  O   UNL     1       5.820   5.199  19.632  0.00  0.00    +0.000 OA
BRANCH  13  19
ATOM     15  C   UNL     1       5.715   4.713  15.127  0.00  0.00    +0.000 A 
ATOM     16  N   UNL     1       6.475   5.836  15.342  0.00  0.00    +0.000 N 
ATOM     17  C   UNL     1       6.565   6.078  16.686  0.00  0.00    +0.000 A 
ATOM     18  C   UNL     1       7.656   6.935  17.223  0.00  0.00    +0.000 C 
ATOM     19  C   UNL     1       5.518   5.394  17.301  0.00  0.00    +0.000 A 
ATOM     20  C   UNL     1       5.127   4.385  16.348  0.00  0.00    +0.000 A 
ATOM     21  C   UNL     1       4.299   3.167  16.607  0.00  0.00    +0.000 C 
ATOM     22  H   UNL     1       7.018   6.293  14.619  0.00  0.00    +0.000 HD
BRANCH  15  23
ATOM     23  C   UNL     1       5.652   4.118  13.815  0.00  0.00    +0.000 C 
ATOM     24  O   UNL     1       4.617   3.890  13.211  0.00  0.00    +0.000 OA
BRANCH  23  25
ATOM     25  O   UNL     1       6.906   3.830  13.377  0.00  0.00    +0.000 OA
BRANCH  25  27
ATOM     26  C   UNL     1       7.172   2.491  11.434  0.00  0.00    +0.000 C 
ATOM     27  C   UNL     1       7.103   3.910  11.963  0.00  0.00    +0.000 C 
ENDBRANCH  25  27
ENDBRANCH  23  25
ENDBRANCH  15  23
ENDBRANCH  13  19
ENDBRANCH   1  13
BRANCH   2  28
ATOM     28  O   UNL     1       4.130   7.817  17.061  0.00  0.00    +0.000 OA
ATOM     29  H   UNL     1       5.098   7.757  17.216  0.00  0.00    +0.000 HD
ENDBRANCH   2  28
BRANCH   5  30
ATOM     30  C   UNL     1       0.823   7.475  20.737  0.00  0.00    +0.000 C 
BRANCH  30  31
ATOM     31  C   UNL     1       1.064   8.696  21.657  0.00  0.00    +0.000 C 
BRANCH  31  32
ATOM     32  N   UNL     1      -0.014   9.708  21.710  0.00  0.00    +0.000 NA
ATOM     33  C   UNL     1      -0.405  10.004  23.092  0.00  0.00    +0.000 C 
ATOM     34  C   UNL     1       0.437  10.947  21.066  0.00  0.00    +0.000 C 
ENDBRANCH  31  32
ENDBRANCH  30  31
ENDBRANCH   5  30
TORSDOF 10
ENDMDL
