MODEL 1
REMARK VINA RESULT:      -7.9      0.000      0.000
REMARK  Name = 
REMARK  6 active torsions:
REMARK  status: ('A' for Active; 'I' for Inactive)
REMARK    1  A    between atoms: C_1  and  N_2
REMARK    2  A    between atoms: N_2  and  C_3
REMARK    3  A    between atoms: N_6  and  C_7
REMARK    4  A    between atoms: C_11  and  C_12
REMARK    5  A    between atoms: C_21  and  O_22
REMARK    6  A    between atoms: O_22  and  C_23
REMARK                            x       y       z     vdW  Elec       q    Type
REMARK                         _______ _______ _______ _____ _____    ______ ____
ROOT
ATOM      1  C   UNL     1       2.456   6.060  18.983  0.00  0.00    +0.000 A 
ATOM      2  C   UNL     1       2.470   7.281  18.282  0.00  0.00    +0.000 A 
ATOM      3  C   UNL     1       1.985   8.471  18.837  0.00  0.00    +0.000 A 
ATOM      4 CL   UNL     1       2.104   9.883  17.844  0.00  0.00    +0.000 Cl
ATOM      5  C   UNL     1       1.446   8.455  20.124  0.00  0.00    +0.000 A 
ATOM      6  C   UNL     1       1.436   7.249  20.836  0.00  0.00    +0.000 A 
ATOM      7  C   UNL     1       1.915   6.056  20.274  0.00  0.00    +0.000 A 
ENDROOT
BRANCH   1  11
ATOM      8  C   UNL     1       5.959   6.133  16.704  0.00  0.00    +0.000 A 
ATOM      9  N   UNL     1       4.932   6.022  17.556  0.00  0.00    +0.000 NA
ATOM     10  C   UNL     1       4.122   4.951  17.509  0.00  0.00    +0.000 A 
ATOM     11  N   UNL     1       3.048   4.928  18.396  0.00  0.00    +0.000 N 
ATOM     12  N   UNL     1       4.291   3.935  16.657  0.00  0.00    +0.000 NA
ATOM     13  C   UNL     1       5.314   4.078  15.777  0.00  0.00    +0.000 A 
ATOM     14  C   UNL     1       6.179   5.155  15.750  0.00  0.00    +0.000 A 
ATOM     15 CL   UNL     1       7.443   5.234  14.592  0.00  0.00    +0.000 Cl
ATOM     16  H   UNL     1       2.549   4.053  18.422  0.00  0.00    +0.000 HD
BRANCH   8  18
ATOM     17  C   UNL     1       7.711   7.313  17.877  0.00  0.00    +0.000 C 
ATOM     18  N   UNL     1       6.757   7.288  16.774  0.00  0.00    +0.000 N 
ATOM     19  H   UNL     1       7.191   7.462  15.872  0.00  0.00    +0.000 HD
ENDBRANCH   8  18
ENDBRANCH   1  11
BRANCH   5  20
ATOM     20  C   UNL     1       0.972   9.711  20.755  0.00  0.00    +0.000 C 
ATOM     21  O   UNL     1       1.572  10.104  21.753  0.00  0.00    +0.000 OA
ATOM     22  N   UNL     1      -0.103  10.416  20.218  0.00  0.00    +0.000 N 
ATOM     23  C   UNL     1      -1.031   9.961  19.170  0.00  0.00    +0.000 C 
ATOM     24  C   UNL     1      -1.552  11.111  18.301  0.00  0.00    +0.000 C 
ATOM     25  O   UNL     1      -2.029  12.212  19.084  0.00  0.00    +0.000 OA
ATOM     26  C   UNL     1      -0.987  12.701  19.942  0.00  0.00    +0.000 C 
ATOM     27  C   UNL     1      -0.560  11.614  20.929  0.00  0.00    +0.000 C 
ENDBRANCH   5  20
BRANCH   7  28
ATOM     28  O   UNL     1       1.760   4.954  21.075  0.00  0.00    +0.000 OA
ATOM     29  C   UNL     1       0.936   3.924  20.536  0.00  0.00    +0.000 C 
ENDBRANCH   7  28
TORSDOF 4
ENDMDL
MODEL 2
REMARK VINA RESULT:      -7.8      2.716      7.741
REMARK  Name = 
REMARK  6 active torsions:
REMARK  status: ('A' for Active; 'I' for Inactive)
REMARK    1  A    between atoms: C_1  and  N_2
REMARK    2  A    between atoms: N_2  and  C_3
REMARK    3  A    between atoms: N_6  and  C_7
REMARK    4  A    between atoms: C_11  and  C_12
REMARK    5  A    between atoms: C_21  and  O_22
REMARK    6  A    between atoms: O_22  and  C_23
REMARK                            x       y       z     vdW  Elec       q    Type
REMARK                         _______ _______ _______ _____ _____    ______ ____
ROOT
ATOM      1  C   UNL     1       2.039   6.561  20.366  0.00  0.00    +0.000 A 
ATOM      2  C   UNL     1       2.563   7.179  19.215  0.00  0.00    +0.000 A 
ATOM      3  C   UNL     1       3.151   6.452  18.173  0.00  0.00    +0.000 A 
ATOM      4 CL   UNL     1       3.718   7.372  16.822  0.00  0.00    +0.000 Cl
ATOM      5  C   UNL     1       3.248   5.064  18.279  0.00  0.00    +0.000 A 
ATOM      6  C   UNL     1       2.722   4.436  19.415  0.00  0.00    +0.000 A 
ATOM      7  C   UNL     1       2.140   5.168  20.460  0.00  0.00    +0.000 A 
ENDROOT
BRANCH   1  11
ATOM      8  C   UNL     1       0.143  10.194  19.544  0.00  0.00    +0.000 A 
ATOM      9  N   UNL     1       0.588   8.965  19.836  0.00  0.00    +0.000 NA
ATOM     10  C   UNL     1       0.877   8.630  21.105  0.00  0.00    +0.000 A 
ATOM     11  N   UNL     1       1.379   7.349  21.325  0.00  0.00    +0.000 N 
ATOM     12  N   UNL     1       0.720   9.460  22.141  0.00  0.00    +0.000 NA
ATOM     13  C   UNL     1       0.302  10.711  21.826  0.00  0.00    +0.000 A 
ATOM     14  C   UNL     1       0.001  11.137  20.546  0.00  0.00    +0.000 A 
ATOM     15 CL   UNL     1      -0.521  12.747  20.259  0.00  0.00    +0.000 Cl
ATOM     16  H   UNL     1       1.453   7.093  22.296  0.00  0.00    +0.000 HD
BRANCH   8  18
ATOM     17  C   UNL     1      -1.476  10.229  17.751  0.00  0.00    +0.000 C 
ATOM     18  N   UNL     1      -0.115  10.503  18.198  0.00  0.00    +0.000 N 
ATOM     19  H   UNL     1       0.182  11.455  18.000  0.00  0.00    +0.000 HD
ENDBRANCH   8  18
ENDBRANCH   1  11
BRANCH   5  20
ATOM     20  C   UNL     1       3.821   4.266  17.167  0.00  0.00    +0.000 C 
ATOM     21  O   UNL     1       3.059   3.520  16.555  0.00  0.00    +0.000 OA
ATOM     22  N   UNL     1       5.169   4.376  16.833  0.00  0.00    +0.000 N 
ATOM     23  C   UNL     1       6.224   5.058  17.599  0.00  0.00    +0.000 C 
ATOM     24  C   UNL     1       7.315   5.656  16.703  0.00  0.00    +0.000 C 
ATOM     25  O   UNL     1       7.794   4.718  15.732  0.00  0.00    +0.000 OA
ATOM     26  C   UNL     1       6.711   4.252  14.913  0.00  0.00    +0.000 C 
ATOM     27  C   UNL     1       5.683   3.510  15.767  0.00  0.00    +0.000 C 
ENDBRANCH   5  20
BRANCH   7  28
ATOM     28  O   UNL     1       1.748   4.406  21.530  0.00  0.00    +0.000 OA
ATOM     29  C   UNL     1       1.533   3.027  21.247  0.00  0.00    +0.000 C 
ENDBRANCH   7  28
TORSDOF 4
ENDMDL
MODEL 3
REMARK VINA RESULT:      -7.7      2.996      8.277
REMARK  Name = 
REMARK  6 active torsions:
REMARK  status: ('A' for Active; 'I' for Inactive)
REMARK    1  A    between atoms: C_1  and  N_2
REMARK    2  A    between atoms: N_2  and  C_3
REMARK    3  A    between atoms: N_6  and  C_7
REMARK    4  A    between atoms: C_11  and  C_12
REMARK    5  A    between atoms: C_21  and  O_22
REMARK    6  A    between atoms: O_22  and  C_23
REMARK                            x       y       z     vdW  Elec       q    Type
REMARK                         _______ _______ _______ _____ _____    ______ ____
ROOT
ATOM      1  C   UNL     1       1.207   9.162  19.635  0.00  0.00    +0.000 A 
ATOM      2  C   UNL     1       1.384   7.966  20.356  0.00  0.00    +0.000 A 
ATOM      3  C   UNL     1       2.180   6.915  19.886  0.00  0.00    +0.000 A 
ATOM      4 CL   UNL     1       2.306   5.530  20.915  0.00  0.00    +0.000 Cl
ATOM      5  C   UNL     1       2.812   7.037  18.647  0.00  0.00    +0.000 A 
ATOM      6  C   UNL     1       2.653   8.227  17.925  0.00  0.00    +0.000 A 
ATOM      7  C   UNL     1       1.847   9.274  18.394  0.00  0.00    +0.000 A 
ENDROOT
BRANCH   1  11
ATOM      8  C   UNL     1      -2.588  10.370  18.369  0.00  0.00    +0.000 A 
ATOM      9  N   UNL     1      -1.452   9.925  18.922  0.00  0.00    +0.000 NA
ATOM     10  C   UNL     1      -0.721  10.726  19.715  0.00  0.00    +0.000 A 
ATOM     11  N   UNL     1       0.471  10.208  20.216  0.00  0.00    +0.000 N 
ATOM     12  N   UNL     1      -1.075  11.978  20.024  0.00  0.00    +0.000 NA
ATOM     13  C   UNL     1      -2.208  12.427  19.430  0.00  0.00    +0.000 A 
ATOM     14  C   UNL     1      -3.005  11.671  18.591  0.00  0.00    +0.000 A 
ATOM     15 CL   UNL     1      -4.421  12.340  17.890  0.00  0.00    +0.000 Cl
ATOM     16  H   UNL     1       0.916  10.787  20.909  0.00  0.00    +0.000 HD
BRANCH   8  18
ATOM     17  C   UNL     1      -3.026   9.667  16.100  0.00  0.00    +0.000 C 
ATOM     18  N   UNL     1      -3.298   9.502  17.523  0.00  0.00    +0.000 N 
ATOM     19  H   UNL     1      -3.184   8.542  17.838  0.00  0.00    +0.000 HD
ENDBRANCH   8  18
ENDBRANCH   1  11
BRANCH   5  20
ATOM     20  C   UNL     1       3.702   5.960  18.149  0.00  0.00    +0.000 C 
ATOM     21  O   UNL     1       4.894   6.228  18.018  0.00  0.00    +0.000 OA
ATOM     22  N   UNL     1       3.195   4.696  17.859  0.00  0.00    +0.000 N 
ATOM     23  C   UNL     1       1.780   4.302  17.771  0.00  0.00    +0.000 C 
ATOM     24  C   UNL     1       1.542   2.848  18.195  0.00  0.00    +0.000 C 
ATOM     25  O   UNL     1       2.454   1.942  17.563  0.00  0.00    +0.000 OA
ATOM     26  C   UNL     1       3.809   2.308  17.864  0.00  0.00    +0.000 C 
ATOM     27  C   UNL     1       4.118   3.698  17.309  0.00  0.00    +0.000 C 
ENDBRANCH   5  20
BRANCH   7  28
ATOM     28  O   UNL     1       1.737  10.332  17.529  0.00  0.00    +0.000 OA
ATOM     29  C   UNL     1       2.469  11.497  17.899  0.00  0.00    +0.000 C 
ENDBRANCH   7  28
TORSDOF 4
ENDMDL
MODEL 4
REMARK VINA RESULT:      -7.5      2.828      7.648
REMARK  Name = 
REMARK  6 active torsions:
REMARK  status: ('A' for Active; 'I' for Inactive)
REMARK    1  A    between atoms: C_1  and  N_2
REMARK    2  A    between atoms: N_2  and  C_3
REMARK    3  A    between atoms: N_6  and  C_7
REMARK    4  A    between atoms: C_11  and  C_12
REMARK    5  A    between atoms: C_21  and  O_22
REMARK    6  A    between atoms: O_22  and  C_23
REMARK                            x       y       z     vdW  Elec       q    Type
REMARK                         _______ _______ _______ _____ _____    ______ ____
ROOT
ATOM      1  C   UNL     1       1.307   9.304  18.582  0.00  0.00    +0.000 A 
ATOM      2  C   UNL     1       2.225   8.803  17.640  0.00  0.00    +0.000 A 
ATOM      3  C   UNL     1       2.998   7.661  17.877  0.00  0.00    +0.000 A 
ATOM      4 CL   UNL     1       4.056   7.172  16.599  0.00  0.00    +0.000 Cl
ATOM      5  C   UNL     1       2.878   6.996  19.099  0.00  0.00    +0.000 A 
ATOM      6  C   UNL     1       1.960   7.478  20.041  0.00  0.00    +0.000 A 
ATOM      7  C   UNL     1       1.193   8.628  19.803  0.00  0.00    +0.000 A 
ENDROOT
BRANCH   1  11
ATOM      8  C   UNL     1       1.711  13.146  20.177  0.00  0.00    +0.000 A 
ATOM      9  N   UNL     1       1.638  11.985  19.513  0.00  0.00    +0.000 NA
ATOM     10  C   UNL     1       0.514  11.642  18.862  0.00  0.00    +0.000 A 
ATOM     11  N   UNL     1       0.498  10.399  18.234  0.00  0.00    +0.000 N 
ATOM     12  N   UNL     1      -0.571  12.420  18.806  0.00  0.00    +0.000 NA
ATOM     13  C   UNL     1      -0.496  13.576  19.511  0.00  0.00    +0.000 A 
ATOM     14  C   UNL     1       0.616  13.992  20.218  0.00  0.00    +0.000 A 
ATOM     15 CL   UNL     1       0.604  15.477  21.078  0.00  0.00    +0.000 Cl
ATOM     16  H   UNL     1      -0.306  10.240  17.648  0.00  0.00    +0.000 HD
BRANCH   8  18
ATOM     17  C   UNL     1       3.791  14.375  20.186  0.00  0.00    +0.000 C 
ATOM     18  N   UNL     1       2.899  13.442  20.866  0.00  0.00    +0.000 N 
ATOM     19  H   UNL     1       2.683  13.725  21.819  0.00  0.00    +0.000 HD
ENDBRANCH   8  18
ENDBRANCH   1  11
BRANCH   5  20
ATOM     20  C   UNL     1       3.648   5.755  19.356  0.00  0.00    +0.000 C 
ATOM     21  O   UNL     1       4.800   5.878  19.766  0.00  0.00    +0.000 OA
ATOM     22  N   UNL     1       3.071   4.504  19.151  0.00  0.00    +0.000 N 
ATOM     23  C   UNL     1       1.795   4.211  18.477  0.00  0.00    +0.000 C 
ATOM     24  C   UNL     1       1.094   2.974  19.047  0.00  0.00    +0.000 C 
ATOM     25  O   UNL     1       1.978   1.853  19.163  0.00  0.00    +0.000 OA
ATOM     26  C   UNL     1       3.100   2.187  19.994  0.00  0.00    +0.000 C 
ATOM     27  C   UNL     1       3.909   3.320  19.362  0.00  0.00    +0.000 C 
ENDBRANCH   5  20
BRANCH   7  28
ATOM     28  O   UNL     1       0.404   9.007  20.858  0.00  0.00    +0.000 OA
ATOM     29  C   UNL     1       1.095   9.228  22.084  0.00  0.00    +0.000 C 
ENDBRANCH   7  28
TORSDOF 4
ENDMDL
MODEL 5
REMARK VINA RESULT:      -7.5      2.729      8.171
REMARK  Name = 
REMARK  6 active torsions:
REMARK  status: ('A' for Active; 'I' for Inactive)
REMARK    1  A    between atoms: C_1  and  N_2
REMARK    2  A    between atoms: N_2  and  C_3
REMARK    3  A    between atoms: N_6  and  C_7
REMARK    4  A    between atoms: C_11  and  C_12
REMARK    5  A    between atoms: C_21  and  O_22
REMARK    6  A    between atoms: O_22  and  C_23
REMARK                            x       y       z     vdW  Elec       q    Type
REMARK                         _______ _______ _______ _____ _____    ______ ____
ROOT
ATOM      1  C   UNL     1       1.740   7.373  20.514  0.00  0.00    +0.000 A 
ATOM      2  C   UNL     1       1.755   5.984  20.743  0.00  0.00    +0.000 A 
ATOM      3  C   UNL     1       2.266   5.074  19.811  0.00  0.00    +0.000 A 
ATOM      4 CL   UNL     1       2.229   3.406  20.269  0.00  0.00    +0.000 Cl
ATOM      5  C   UNL     1       2.764   5.547  18.595  0.00  0.00    +0.000 A 
ATOM      6  C   UNL     1       2.765   6.928  18.360  0.00  0.00    +0.000 A 
ATOM      7  C   UNL     1       2.244   7.837  19.292  0.00  0.00    +0.000 A 
ENDROOT
BRANCH   1  11
ATOM      8  C   UNL     1      -1.071  10.422  19.995  0.00  0.00    +0.000 A 
ATOM      9  N   UNL     1      -0.294   9.363  20.259  0.00  0.00    +0.000 NA
ATOM     10  C   UNL     1       0.484   9.345  21.354  0.00  0.00    +0.000 A 
ATOM     11  N   UNL     1       1.298   8.230  21.536  0.00  0.00    +0.000 N 
ATOM     12  N   UNL     1       0.520  10.338  22.249  0.00  0.00    +0.000 NA
ATOM     13  C   UNL     1      -0.246  11.418  21.951  0.00  0.00    +0.000 A 
ATOM     14  C   UNL     1      -1.059  11.519  20.839  0.00  0.00    +0.000 A 
ATOM     15 CL   UNL     1      -1.987  12.934  20.558  0.00  0.00    +0.000 Cl
ATOM     16  H   UNL     1       1.760   8.195  22.430  0.00  0.00    +0.000 HD
BRANCH   8  18
ATOM     17  C   UNL     1      -1.112  10.051  17.609  0.00  0.00    +0.000 C 
ATOM     18  N   UNL     1      -1.842  10.403  18.821  0.00  0.00    +0.000 N 
ATOM     19  H   UNL     1      -2.672   9.833  18.962  0.00  0.00    +0.000 HD
ENDBRANCH   8  18
ENDBRANCH   1  11
BRANCH   5  20
ATOM     20  C   UNL     1       3.358   4.609  17.612  0.00  0.00    +0.000 C 
ATOM     21  O   UNL     1       2.590   3.869  17.002  0.00  0.00    +0.000 OA
ATOM     22  N   UNL     1       4.733   4.588  17.389  0.00  0.00    +0.000 N 
ATOM     23  C   UNL     1       5.775   5.258  18.184  0.00  0.00    +0.000 C 
ATOM     24  C   UNL     1       6.980   5.688  17.340  0.00  0.00    +0.000 C 
ATOM     25  O   UNL     1       7.458   4.632  16.499  0.00  0.00    +0.000 OA
ATOM     26  C   UNL     1       6.411   4.173  15.631  0.00  0.00    +0.000 C 
ATOM     27  C   UNL     1       5.259   3.591  16.451  0.00  0.00    +0.000 C 
ENDBRANCH   5  20
BRANCH   7  28
ATOM     28  O   UNL     1       2.250   9.141  18.872  0.00  0.00    +0.000 OA
ATOM     29  C   UNL     1       2.339   9.323  17.461  0.00  0.00    +0.000 C 
ENDBRANCH   7  28
TORSDOF 4
ENDMDL
MODEL 6
REMARK VINA RESULT:      -7.3      2.818      8.330
REMARK  Name = 
REMARK  6 active torsions:
REMARK  status: ('A' for Active; 'I' for Inactive)
REMARK    1  A    between atoms: C_1  and  N_2
REMARK    2  A    between atoms: N_2  and  C_3
REMARK    3  A    between atoms: N_6  and  C_7
REMARK    4  A    between atoms: C_11  and  C_12
REMARK    5  A    between atoms: C_21  and  O_22
REMARK    6  A    between atoms: O_22  and  C_23
REMARK                            x       y       z     vdW  Elec       q    Type
REMARK                         _______ _______ _______ _____ _____    ______ ____
ROOT
ATOM      1  C   UNL     1       1.535   8.684  19.570  0.00  0.00    +0.000 A 
ATOM      2  C   UNL     1       1.725   7.457  20.233  0.00  0.00    +0.000 A 
ATOM      3  C   UNL     1       2.385   6.375  19.639  0.00  0.00    +0.000 A 
ATOM      4 CL   UNL     1       2.552   4.953  20.609  0.00  0.00    +0.000 Cl
ATOM      5  C   UNL     1       2.858   6.498  18.331  0.00  0.00    +0.000 A 
ATOM      6  C   UNL     1       2.685   7.717  17.664  0.00  0.00    +0.000 A 
ATOM      7  C   UNL     1       2.015   8.797  18.259  0.00  0.00    +0.000 A 
ENDROOT
BRANCH   1  11
ATOM      8  C   UNL     1      -2.202  10.327  18.671  0.00  0.00    +0.000 A 
ATOM      9  N   UNL     1      -1.080   9.740  19.108  0.00  0.00    +0.000 NA
ATOM     10  C   UNL     1      -0.219  10.415  19.889  0.00  0.00    +0.000 A 
ATOM     11  N   UNL     1       0.948   9.755  20.266  0.00  0.00    +0.000 N 
ATOM     12  N   UNL     1      -0.424  11.671  20.298  0.00  0.00    +0.000 NA
ATOM     13  C   UNL     1      -1.546  12.263  19.820  0.00  0.00    +0.000 A 
ATOM     14  C   UNL     1      -2.471  11.644  19.001  0.00  0.00    +0.000 A 
ATOM     15 CL   UNL     1      -3.860  12.488  18.452  0.00  0.00    +0.000 Cl
ATOM     16  H   UNL     1       1.497  10.242  20.956  0.00  0.00    +0.000 HD
BRANCH   8  18
ATOM     17  C   UNL     1      -2.800   9.745  16.404  0.00  0.00    +0.000 C 
ATOM     18  N   UNL     1      -3.052   9.588  17.832  0.00  0.00    +0.000 N 
ATOM     19  H   UNL     1      -3.067   8.615  18.126  0.00  0.00    +0.000 HD
ENDBRANCH   8  18
ENDBRANCH   1  11
BRANCH   5  20
ATOM     20  C   UNL     1       3.605   5.385  17.696  0.00  0.00    +0.000 C 
ATOM     21  O   UNL     1       2.954   4.421  17.299  0.00  0.00    +0.000 OA
ATOM     22  N   UNL     1       4.989   5.449  17.550  0.00  0.00    +0.000 N 
ATOM     23  C   UNL     1       5.904   6.429  18.156  0.00  0.00    +0.000 C 
ATOM     24  C   UNL     1       7.124   6.723  17.276  0.00  0.00    +0.000 C 
ATOM     25  O   UNL     1       7.757   5.526  16.807  0.00  0.00    +0.000 OA
ATOM     26  C   UNL     1       6.822   4.725  16.068  0.00  0.00    +0.000 C 
ATOM     27  C   UNL     1       5.670   4.286  16.973  0.00  0.00    +0.000 C 
ENDBRANCH   5  20
BRANCH   7  28
ATOM     28  O   UNL     1       1.864   9.886  17.441  0.00  0.00    +0.000 OA
ATOM     29  C   UNL     1       2.601  11.042  17.827  0.00  0.00    +0.000 C 
ENDBRANCH   7  28
TORSDOF 4
ENDMDL
MODEL 7
REMARK VINA RESULT:      -7.1      2.806      7.425
REMARK  Name = 
REMARK  6 active torsions:
REMARK  status: ('A' for Active; 'I' for Inactive)
REMARK    1  A    between atoms: C_1  and  N_2
REMARK    2  A    between atoms: N_2  and  C_3
REMARK    3  A    between atoms: N_6  and  C_7
REMARK    4  A    between atoms: C_11  and  C_12
REMARK    5  A    between atoms: C_21  and  O_22
REMARK    6  A    between atoms: O_22  and  C_23
REMARK                            x       y       z     vdW  Elec       q    Type
REMARK                         _______ _______ _______ _____ _____    ______ ____
ROOT
ATOM      1  C   UNL     1       1.017   9.171  19.282  0.00  0.00    +0.000 A 
ATOM      2  C   UNL     1       1.842   8.868  18.183  0.00  0.00    +0.000 A 
ATOM      3  C   UNL     1       2.704   7.765  18.171  0.00  0.00    +0.000 A 
ATOM      4 CL   UNL     1       3.626   7.528  16.726  0.00  0.00    +0.000 Cl
ATOM      5  C   UNL     1       2.773   6.940  19.295  0.00  0.00    +0.000 A 
ATOM      6  C   UNL     1       1.950   7.224  20.392  0.00  0.00    +0.000 A 
ATOM      7  C   UNL     1       1.093   8.335  20.403  0.00  0.00    +0.000 A 
ENDROOT
BRANCH   1  11
ATOM      8  C   UNL     1       2.079  13.098  18.325  0.00  0.00    +0.000 A 
ATOM      9  N   UNL     1       1.658  11.835  18.473  0.00  0.00    +0.000 NA
ATOM     10  C   UNL     1       0.457  11.578  19.018  0.00  0.00    +0.000 A 
ATOM     11  N   UNL     1       0.109  10.239  19.182  0.00  0.00    +0.000 N 
ATOM     12  N   UNL     1      -0.393  12.530  19.413  0.00  0.00    +0.000 NA
ATOM     13  C   UNL     1       0.060  13.803  19.289  0.00  0.00    +0.000 A 
ATOM     14  C   UNL     1       1.287  14.149  18.755  0.00  0.00    +0.000 A 
ATOM     15 CL   UNL     1       1.762  15.794  18.645  0.00  0.00    +0.000 Cl
ATOM     16  H   UNL     1      -0.846  10.090  19.465  0.00  0.00    +0.000 HD
BRANCH   8  18
ATOM     17  C   UNL     1       4.249  14.123  18.597  0.00  0.00    +0.000 C 
ATOM     18  N   UNL     1       3.355  13.313  17.778  0.00  0.00    +0.000 N 
ATOM     19  H   UNL     1       3.767  12.424  17.505  0.00  0.00    +0.000 HD
ENDBRANCH   8  18
ENDBRANCH   1  11
BRANCH   5  20
ATOM     20  C   UNL     1       3.640   5.736  19.290  0.00  0.00    +0.000 C 
ATOM     21  O   UNL     1       4.790   5.866  19.705  0.00  0.00    +0.000 OA
ATOM     22  N   UNL     1       3.154   4.511  18.841  0.00  0.00    +0.000 N 
ATOM     23  C   UNL     1       1.888   4.260  18.133  0.00  0.00    +0.000 C 
ATOM     24  C   UNL     1       1.296   2.882  18.449  0.00  0.00    +0.000 C 
ATOM     25  O   UNL     1       2.265   1.833  18.328  0.00  0.00    +0.000 OA
ATOM     26  C   UNL     1       3.378   2.081  19.200  0.00  0.00    +0.000 C 
ATOM     27  C   UNL     1       4.084   3.378  18.802  0.00  0.00    +0.000 C 
ENDBRANCH   5  20
BRANCH   7  28
ATOM     28  O   UNL     1       0.417   8.513  21.582  0.00  0.00    +0.000 OA
ATOM     29  C   UNL     1       1.096   9.298  22.558  0.00  0.00    +0.000 C 
ENDBRANCH   7  28
TORSDOF 4
ENDMDL
MODEL 8
REMARK VINA RESULT:      -6.9      3.012      7.830
REMARK  Name = 
REMARK  6 active torsions:
REMARK  status: ('A' for Active; 'I' for Inactive)
REMARK    1  A    between atoms: C_1  and  N_2
REMARK    2  A    between atoms: N_2  and  C_3
REMARK    3  A    between atoms: N_6  and  C_7
REMARK    4  A    between atoms: C_11  and  C_12
REMARK    5  A    between atoms: C_21  and  O_22
REMARK    6  A    between atoms: O_22  and  C_23
REMARK                            x       y       z     vdW  Elec       q    Type
REMARK                         _______ _______ _______ _____ _____    ______ ____
ROOT
ATOM      1  C   UNL     1       0.611   9.458  19.735  0.00  0.00    +0.000 A 
ATOM      2  C   UNL     1       1.441   9.188  18.631  0.00  0.00    +0.000 A 
ATOM      3  C   UNL     1       2.292   8.078  18.584  0.00  0.00    +0.000 A 
ATOM      4 CL   UNL     1       3.222   7.886  17.138  0.00  0.00    +0.000 Cl
ATOM      5  C   UNL     1       2.343   7.209  19.675  0.00  0.00    +0.000 A 
ATOM      6  C   UNL     1       1.514   7.461  20.776  0.00  0.00    +0.000 A 
ATOM      7  C   UNL     1       0.669   8.579  20.824  0.00  0.00    +0.000 A 
ENDROOT
BRANCH   1  11
ATOM      8  C   UNL     1       1.557  13.386  20.807  0.00  0.00    +0.000 A 
ATOM      9  N   UNL     1       1.245  12.187  20.296  0.00  0.00    +0.000 NA
ATOM     10  C   UNL     1      -0.040  11.818  20.164  0.00  0.00    +0.000 A 
ATOM     11  N   UNL     1      -0.285  10.539  19.669  0.00  0.00    +0.000 N 
ATOM     12  N   UNL     1      -1.071  12.603  20.494  0.00  0.00    +0.000 NA
ATOM     13  C   UNL     1      -0.740  13.799  21.041  0.00  0.00    +0.000 A 
ATOM     14  C   UNL     1       0.555  14.244  21.225  0.00  0.00    +0.000 A 
ATOM     15 CL   UNL     1       0.862  15.779  21.930  0.00  0.00    +0.000 Cl
ATOM     16  H   UNL     1      -1.252  10.353  19.459  0.00  0.00    +0.000 HD
BRANCH   8  18
ATOM     17  C   UNL     1       3.508  14.411  19.818  0.00  0.00    +0.000 C 
ATOM     18  N   UNL     1       2.916  13.711  20.952  0.00  0.00    +0.000 N 
ATOM     19  H   UNL     1       3.062  14.194  21.835  0.00  0.00    +0.000 HD
ENDBRANCH   8  18
ENDBRANCH   1  11
BRANCH   5  20
ATOM     20  C   UNL     1       3.197   5.998  19.631  0.00  0.00    +0.000 C 
ATOM     21  O   UNL     1       4.405   6.163  19.472  0.00  0.00    +0.000 OA
ATOM     22  N   UNL     1       2.641   4.729  19.778  0.00  0.00    +0.000 N 
ATOM     23  C   UNL     1       1.213   4.375  19.765  0.00  0.00    +0.000 C 
ATOM     24  C   UNL     1       0.892   3.173  20.659  0.00  0.00    +0.000 C 
ATOM     25  O   UNL     1       1.781   2.073  20.430  0.00  0.00    +0.000 OA
ATOM     26  C   UNL     1       3.140   2.477  20.649  0.00  0.00    +0.000 C 
ATOM     27  C   UNL     1       3.534   3.572  19.657  0.00  0.00    +0.000 C 
ENDBRANCH   5  20
BRANCH   7  28
ATOM     28  O   UNL     1      -0.015   8.719  22.004  0.00  0.00    +0.000 OA
ATOM     29  C   UNL     1       0.671   9.446  23.019  0.00  0.00    +0.000 C 
ENDBRANCH   7  28
TORSDOF 4
ENDMDL
MODEL 9
REMARK VINA RESULT:      -6.8      3.082      5.101
REMARK  Name = 
REMARK  6 active torsions:
REMARK  status: ('A' for Active; 'I' for Inactive)
REMARK    1  A    between atoms: C_1  and  N_2
REMARK    2  A    between atoms: N_2  and  C_3
REMARK    3  A    between atoms: N_6  and  C_7
REMARK    4  A    between atoms: C_11  and  C_12
REMARK    5  A    between atoms: C_21  and  O_22
REMARK    6  A    between atoms: O_22  and  C_23
REMARK                            x       y       z     vdW  Elec       q    Type
REMARK                         _______ _______ _______ _____ _____    ______ ____
ROOT
ATOM      1  C   UNL     1       0.731  10.738  18.788  0.00  0.00    +0.000 A 
ATOM      2  C   UNL     1       1.518  11.733  19.397  0.00  0.00    +0.000 A 
ATOM      3  C   UNL     1       1.046  12.526  20.449  0.00  0.00    +0.000 A 
ATOM      4 CL   UNL     1       2.159  13.683  21.095  0.00  0.00    +0.000 Cl
ATOM      5  C   UNL     1      -0.260  12.347  20.908  0.00  0.00    +0.000 A 
ATOM      6  C   UNL     1      -1.050  11.352  20.318  0.00  0.00    +0.000 A 
ATOM      7  C   UNL     1      -0.577  10.565  19.258  0.00  0.00    +0.000 A 
ENDROOT
BRANCH   1  11
ATOM      8  C   UNL     1       2.479   7.014  19.529  0.00  0.00    +0.000 A 
ATOM      9  N   UNL     1       1.791   8.118  19.207  0.00  0.00    +0.000 NA
ATOM     10  C   UNL     1       2.027   8.752  18.046  0.00  0.00    +0.000 A 
ATOM     11  N   UNL     1       1.306   9.918  17.802  0.00  0.00    +0.000 N 
ATOM     12  N   UNL     1       2.916   8.329  17.143  0.00  0.00    +0.000 NA
ATOM     13  C   UNL     1       3.629   7.231  17.498  0.00  0.00    +0.000 A 
ATOM     14  C   UNL     1       3.458   6.533  18.678  0.00  0.00    +0.000 A 
ATOM     15 CL   UNL     1       4.417   5.154  19.028  0.00  0.00    +0.000 Cl
ATOM     16  H   UNL     1       1.412  10.285  16.870  0.00  0.00    +0.000 HD
BRANCH   8  18
ATOM     17  C   UNL     1       1.449   5.168  20.698  0.00  0.00    +0.000 C 
ATOM     18  N   UNL     1       2.215   6.407  20.769  0.00  0.00    +0.000 N 
ATOM     19  H   UNL     1       3.079   6.308  21.295  0.00  0.00    +0.000 HD
ENDBRANCH   8  18
ENDBRANCH   1  11
BRANCH   5  20
ATOM     20  C   UNL     1      -0.767  13.138  22.055  0.00  0.00    +0.000 C 
ATOM     21  O   UNL     1      -0.656  12.645  23.176  0.00  0.00    +0.000 OA
ATOM     22  N   UNL     1      -1.334  14.395  21.858  0.00  0.00    +0.000 N 
ATOM     23  C   UNL     1      -1.716  15.008  20.575  0.00  0.00    +0.000 C 
ATOM     24  C   UNL     1      -1.573  16.535  20.583  0.00  0.00    +0.000 C 
ATOM     25  O   UNL     1      -2.180  17.132  21.734  0.00  0.00    +0.000 OA
ATOM     26  C   UNL     1      -1.605  16.596  22.935  0.00  0.00    +0.000 C 
ATOM     27  C   UNL     1      -1.874  15.094  23.028  0.00  0.00    +0.000 C 
ENDBRANCH   5  20
BRANCH   7  28
ATOM     28  O   UNL     1      -1.504   9.694  18.746  0.00  0.00    +0.000 OA
ATOM     29  C   UNL     1      -2.279  10.201  17.663  0.00  0.00    +0.000 C 
ENDBRANCH   7  28
TORSDOF 4
ENDMDL
