MODEL 1
REMARK VINA RESULT:      -7.1      0.000      0.000
REMARK  Name = 
REMARK  6 active torsions:
REMARK  status: ('A' for Active; 'I' for Inactive)
REMARK    1  A    between atoms: C_1  and  C_2
REMARK    2  A    between atoms: N_4  and  C_5
REMARK    3  A    between atoms: C_7  and  C_8
REMARK    4  A    between atoms: C_13  and  C_14
REMARK    5  A    between atoms: C_26  and  C_28
REMARK    6  A    between atoms: C_28  and  N_29
REMARK                            x       y       z     vdW  Elec       q    Type
REMARK                         _______ _______ _______ _____ _____    ______ ____
ROOT
ATOM      1  C   UNL     1       0.186  11.932  18.822  0.00  0.00    +0.000 A 
ATOM      2  S   UNL     1      -1.348  12.720  18.893  0.00  0.00    +0.000 S 
ATOM      3  C   UNL     1      -2.140  11.309  18.321  0.00  0.00    +0.000 A 
ATOM      4  N   UNL     1      -1.345  10.271  18.118  0.00  0.00    +0.000 NA
ATOM      5  C   UNL     1      -0.039  10.602  18.460  0.00  0.00    +0.000 A 
ENDROOT
BRANCH   5   6
ATOM      6  C   UNL     1       1.011   9.530  18.451  0.00  0.00    +0.000 A 
ATOM      7  N   UNL     1       1.926   9.343  17.519  0.00  0.00    +0.000 NA
ATOM      8  C   UNL     1       2.654   8.256  17.917  0.00  0.00    +0.000 A 
ATOM      9  C   UNL     1       3.743   7.637  17.287  0.00  0.00    +0.000 A 
ATOM     10  C   UNL     1       4.312   6.510  17.892  0.00  0.00    +0.000 A 
ATOM     11  C   UNL     1       3.801   6.012  19.093  0.00  0.00    +0.000 A 
ATOM     12  C   UNL     1       2.717   6.623  19.739  0.00  0.00    +0.000 A 
ATOM     13  C   UNL     1       2.176   7.753  19.120  0.00  0.00    +0.000 A 
ATOM     14  N   UNL     1       1.151   8.603  19.456  0.00  0.00    +0.000 N 
ATOM     15  H   UNL     1       0.564   8.557  20.273  0.00  0.00    +0.000 HD
ENDBRANCH   5   6
BRANCH   1  19
ATOM     16  C   UNL     1       1.713  15.599  18.623  0.00  0.00    +0.000 C 
ATOM     17  C   UNL     1       2.798  14.517  18.557  0.00  0.00    +0.000 C 
ATOM     18  C   UNL     1       2.209  13.171  18.052  0.00  0.00    +0.000 C 
ATOM     19  N   UNL     1       1.359  12.586  19.095  0.00  0.00    +0.000 N 
ATOM     20  C   UNL     1       2.066  12.346  20.368  0.00  0.00    +0.000 C 
ATOM     21  C   UNL     1       2.663  13.660  20.899  0.00  0.00    +0.000 C 
ATOM     22  N   UNL     1       3.469  14.348  19.874  0.00  0.00    +0.000 N 
ATOM     23  C   UNL     1       4.738  14.790  20.208  0.00  0.00    +0.000 C 
ATOM     24  O   UNL     1       5.218  14.598  21.331  0.00  0.00    +0.000 OA
BRANCH  23  25
ATOM     25  C   UNL     1       5.569  15.504  19.168  0.00  0.00    +0.000 C 
BRANCH  25  26
ATOM     26  N   UNL     1       6.680  14.684  18.732  0.00  0.00    +0.000 N 
ATOM     27  C   UNL     1       6.726  13.884  17.624  0.00  0.00    +0.000 A 
ATOM     28  C   UNL     1       7.961  13.278  17.637  0.00  0.00    +0.000 A 
ATOM     29  C   UNL     1       8.581  13.765  18.802  0.00  0.00    +0.000 A 
ATOM     30  N   UNL     1       7.809  14.624  19.471  0.00  0.00    +0.000 NA
ENDBRANCH  25  26
ENDBRANCH  23  25
ENDBRANCH   1  19
BRANCH   3  31
ATOM     31  C   UNL     1      -3.627  11.343  18.091  0.00  0.00    +0.000 C 
ATOM     32  F   UNL     1      -3.985  11.931  16.916  0.00  0.00    +0.000 F 
ATOM     33  F   UNL     1      -4.162  10.091  18.067  0.00  0.00    +0.000 F 
ATOM     34  F   UNL     1      -4.280  12.026  19.069  0.00  0.00    +0.000 F 
ENDBRANCH   3  31
TORSDOF 5
ENDMDL
MODEL 2
REMARK VINA RESULT:      -7.0      1.466      2.118
REMARK  Name = 
REMARK  6 active torsions:
REMARK  status: ('A' for Active; 'I' for Inactive)
REMARK    1  A    between atoms: C_1  and  C_2
REMARK    2  A    between atoms: N_4  and  C_5
REMARK    3  A    between atoms: C_7  and  C_8
REMARK    4  A    between atoms: C_13  and  C_14
REMARK    5  A    between atoms: C_26  and  C_28
REMARK    6  A    between atoms: C_28  and  N_29
REMARK                            x       y       z     vdW  Elec       q    Type
REMARK                         _______ _______ _______ _____ _____    ______ ____
ROOT
ATOM      1  C   UNL     1       0.297  12.904  19.781  0.00  0.00    +0.000 A 
ATOM      2  S   UNL     1      -0.967  13.981  20.252  0.00  0.00    +0.000 S 
ATOM      3  C   UNL     1      -2.132  12.728  20.119  0.00  0.00    +0.000 A 
ATOM      4  N   UNL     1      -1.641  11.545  19.787  0.00  0.00    +0.000 NA
ATOM      5  C   UNL     1      -0.259  11.628  19.657  0.00  0.00    +0.000 A 
ENDROOT
BRANCH   5   6
ATOM      6  C   UNL     1       0.529  10.371  19.429  0.00  0.00    +0.000 A 
ATOM      7  N   UNL     1       0.723   9.403  20.303  0.00  0.00    +0.000 NA
ATOM      8  C   UNL     1       1.500   8.473  19.671  0.00  0.00    +0.000 A 
ATOM      9  C   UNL     1       1.995   7.254  20.153  0.00  0.00    +0.000 A 
ATOM     10  C   UNL     1       2.798   6.477  19.308  0.00  0.00    +0.000 A 
ATOM     11  C   UNL     1       3.101   6.913  18.016  0.00  0.00    +0.000 A 
ATOM     12  C   UNL     1       2.608   8.127  17.516  0.00  0.00    +0.000 A 
ATOM     13  C   UNL     1       1.801   8.877  18.377  0.00  0.00    +0.000 A 
ATOM     14  N   UNL     1       1.141  10.072  18.236  0.00  0.00    +0.000 N 
ATOM     15  H   UNL     1       1.124  10.666  17.423  0.00  0.00    +0.000 HD
ENDBRANCH   5   6
BRANCH   1  19
ATOM     16  C   UNL     1       2.267  15.959  18.168  0.00  0.00    +0.000 C 
ATOM     17  C   UNL     1       3.115  14.682  18.209  0.00  0.00    +0.000 C 
ATOM     18  C   UNL     1       2.213  13.419  18.269  0.00  0.00    +0.000 C 
ATOM     19  N   UNL     1       1.587  13.326  19.593  0.00  0.00    +0.000 N 
ATOM     20  C   UNL     1       2.558  13.269  20.702  0.00  0.00    +0.000 C 
ATOM     21  C   UNL     1       3.470  14.507  20.674  0.00  0.00    +0.000 C 
ATOM     22  N   UNL     1       4.074  14.711  19.346  0.00  0.00    +0.000 N 
ATOM     23  C   UNL     1       5.439  14.928  19.258  0.00  0.00    +0.000 C 
ATOM     24  O   UNL     1       6.162  14.928  20.261  0.00  0.00    +0.000 OA
BRANCH  23  25
ATOM     25  C   UNL     1       6.067  15.147  17.901  0.00  0.00    +0.000 C 
BRANCH  25  26
ATOM     26  N   UNL     1       7.470  14.785  17.909  0.00  0.00    +0.000 N 
ATOM     27  C   UNL     1       8.538  15.637  17.948  0.00  0.00    +0.000 A 
ATOM     28  C   UNL     1       9.663  14.846  17.905  0.00  0.00    +0.000 A 
ATOM     29  C   UNL     1       9.168  13.531  17.824  0.00  0.00    +0.000 A 
ATOM     30  N   UNL     1       7.834  13.487  17.830  0.00  0.00    +0.000 NA
ENDBRANCH  25  26
ENDBRANCH  23  25
ENDBRANCH   1  19
BRANCH   3  31
ATOM     31  C   UNL     1      -3.582  13.043  20.373  0.00  0.00    +0.000 C 
ATOM     32  F   UNL     1      -4.077  12.467  21.504  0.00  0.00    +0.000 F 
ATOM     33  F   UNL     1      -3.792  14.381  20.506  0.00  0.00    +0.000 F 
ATOM     34  F   UNL     1      -4.381  12.624  19.355  0.00  0.00    +0.000 F 
ENDBRANCH   3  31
TORSDOF 5
ENDMDL
MODEL 3
REMARK VINA RESULT:      -7.0      1.532      1.934
REMARK  Name = 
REMARK  6 active torsions:
REMARK  status: ('A' for Active; 'I' for Inactive)
REMARK    1  A    between atoms: C_1  and  C_2
REMARK    2  A    between atoms: N_4  and  C_5
REMARK    3  A    between atoms: C_7  and  C_8
REMARK    4  A    between atoms: C_13  and  C_14
REMARK    5  A    between atoms: C_26  and  C_28
REMARK    6  A    between atoms: C_28  and  N_29
REMARK                            x       y       z     vdW  Elec       q    Type
REMARK                         _______ _______ _______ _____ _____    ______ ____
ROOT
ATOM      1  C   UNL     1       0.400  13.024  19.888  0.00  0.00    +0.000 A 
ATOM      2  S   UNL     1      -0.848  14.104  20.396  0.00  0.00    +0.000 S 
ATOM      3  C   UNL     1      -2.025  12.863  20.266  0.00  0.00    +0.000 A 
ATOM      4  N   UNL     1      -1.549  11.681  19.908  0.00  0.00    +0.000 NA
ATOM      5  C   UNL     1      -0.169  11.755  19.756  0.00  0.00    +0.000 A 
ENDROOT
BRANCH   5   6
ATOM      6  C   UNL     1       0.604  10.495  19.496  0.00  0.00    +0.000 A 
ATOM      7  N   UNL     1       1.201  10.165  18.368  0.00  0.00    +0.000 NA
ATOM      8  C   UNL     1       1.768   8.939  18.584  0.00  0.00    +0.000 A 
ATOM      9  C   UNL     1       2.516   8.140  17.710  0.00  0.00    +0.000 A 
ATOM     10  C   UNL     1       2.975   6.898  18.167  0.00  0.00    +0.000 A 
ATOM     11  C   UNL     1       2.687   6.466  19.464  0.00  0.00    +0.000 A 
ATOM     12  C   UNL     1       1.946   7.257  20.353  0.00  0.00    +0.000 A 
ATOM     13  C   UNL     1       1.510   8.496  19.875  0.00  0.00    +0.000 A 
ATOM     14  N   UNL     1       0.797   9.521  20.446  0.00  0.00    +0.000 N 
ATOM     15  H   UNL     1       0.433   9.561  21.385  0.00  0.00    +0.000 HD
ENDBRANCH   5   6
BRANCH   1  19
ATOM     16  C   UNL     1       2.367  16.046  18.212  0.00  0.00    +0.000 C 
ATOM     17  C   UNL     1       3.211  14.767  18.266  0.00  0.00    +0.000 C 
ATOM     18  C   UNL     1       2.305  13.508  18.353  0.00  0.00    +0.000 C 
ATOM     19  N   UNL     1       1.689  13.439  19.683  0.00  0.00    +0.000 N 
ATOM     20  C   UNL     1       2.668  13.395  20.786  0.00  0.00    +0.000 C 
ATOM     21  C   UNL     1       3.584  14.629  20.731  0.00  0.00    +0.000 C 
ATOM     22  N   UNL     1       4.179  14.810  19.395  0.00  0.00    +0.000 N 
ATOM     23  C   UNL     1       5.544  15.021  19.294  0.00  0.00    +0.000 C 
ATOM     24  O   UNL     1       6.275  15.034  20.291  0.00  0.00    +0.000 OA
BRANCH  23  25
ATOM     25  C   UNL     1       6.163  15.216  17.929  0.00  0.00    +0.000 C 
BRANCH  25  26
ATOM     26  N   UNL     1       7.550  14.799  17.918  0.00  0.00    +0.000 N 
ATOM     27  C   UNL     1       8.022  13.516  17.885  0.00  0.00    +0.000 A 
ATOM     28  C   UNL     1       9.394  13.610  17.921  0.00  0.00    +0.000 A 
ATOM     29  C   UNL     1       9.652  14.991  17.990  0.00  0.00    +0.000 A 
ATOM     30  N   UNL     1       8.534  15.721  17.985  0.00  0.00    +0.000 NA
ENDBRANCH  25  26
ENDBRANCH  23  25
ENDBRANCH   1  19
BRANCH   3  31
ATOM     31  C   UNL     1      -3.468  13.185  20.549  0.00  0.00    +0.000 C 
ATOM     32  F   UNL     1      -3.911  12.708  21.745  0.00  0.00    +0.000 F 
ATOM     33  F   UNL     1      -3.689  14.529  20.571  0.00  0.00    +0.000 F 
ATOM     34  F   UNL     1      -4.301  12.670  19.605  0.00  0.00    +0.000 F 
ENDBRANCH   3  31
TORSDOF 5
ENDMDL
MODEL 4
REMARK VINA RESULT:      -6.9      3.852      5.271
REMARK  Name = 
REMARK  6 active torsions:
REMARK  status: ('A' for Active; 'I' for Inactive)
REMARK    1  A    between atoms: C_1  and  C_2
REMARK    2  A    between atoms: N_4  and  C_5
REMARK    3  A    between atoms: C_7  and  C_8
REMARK    4  A    between atoms: C_13  and  C_14
REMARK    5  A    between atoms: C_26  and  C_28
REMARK    6  A    between atoms: C_28  and  N_29
REMARK                            x       y       z     vdW  Elec       q    Type
REMARK                         _______ _______ _______ _____ _____    ______ ____
ROOT
ATOM      1  C   UNL     1      -1.449  13.523  21.508  0.00  0.00    +0.000 A 
ATOM      2  S   UNL     1      -1.662  13.885  23.182  0.00  0.00    +0.000 S 
ATOM      3  C   UNL     1      -3.214  13.153  23.180  0.00  0.00    +0.000 A 
ATOM      4  N   UNL     1      -3.574  12.617  22.025  0.00  0.00    +0.000 NA
ATOM      5  C   UNL     1      -2.551  12.769  21.095  0.00  0.00    +0.000 A 
ENDROOT
BRANCH   5   6
ATOM      6  C   UNL     1      -2.678  12.105  19.755  0.00  0.00    +0.000 A 
ATOM      7  N   UNL     1      -1.842  11.227  19.237  0.00  0.00    +0.000 NA
ATOM      8  C   UNL     1      -2.346  10.904  18.008  0.00  0.00    +0.000 A 
ATOM      9  C   UNL     1      -1.842  10.018  17.046  0.00  0.00    +0.000 A 
ATOM     10  C   UNL     1      -2.540   9.873  15.841  0.00  0.00    +0.000 A 
ATOM     11  C   UNL     1      -3.708  10.600  15.602  0.00  0.00    +0.000 A 
ATOM     12  C   UNL     1      -4.229  11.486  16.557  0.00  0.00    +0.000 A 
ATOM     13  C   UNL     1      -3.519  11.603  17.755  0.00  0.00    +0.000 A 
ATOM     14  N   UNL     1      -3.728  12.334  18.898  0.00  0.00    +0.000 N 
ATOM     15  H   UNL     1      -4.489  12.966  19.087  0.00  0.00    +0.000 HD
ENDBRANCH   5   6
BRANCH   1  19
ATOM     16  C   UNL     1       1.342  12.033  19.098  0.00  0.00    +0.000 C 
ATOM     17  C   UNL     1       1.816  13.303  19.815  0.00  0.00    +0.000 C 
ATOM     18  C   UNL     1       1.016  13.530  21.127  0.00  0.00    +0.000 C 
ATOM     19  N   UNL     1      -0.354  13.944  20.801  0.00  0.00    +0.000 N 
ATOM     20  C   UNL     1      -0.422  15.172  19.985  0.00  0.00    +0.000 C 
ATOM     21  C   UNL     1       0.361  14.982  18.675  0.00  0.00    +0.000 C 
ATOM     22  N   UNL     1       1.728  14.489  18.921  0.00  0.00    +0.000 N 
ATOM     23  C   UNL     1       2.790  15.130  18.306  0.00  0.00    +0.000 C 
ATOM     24  O   UNL     1       2.622  16.117  17.581  0.00  0.00    +0.000 OA
BRANCH  23  25
ATOM     25  C   UNL     1       4.195  14.627  18.545  0.00  0.00    +0.000 C 
BRANCH  25  26
ATOM     26  N   UNL     1       4.878  15.430  19.537  0.00  0.00    +0.000 N 
ATOM     27  C   UNL     1       5.534  16.612  19.328  0.00  0.00    +0.000 A 
ATOM     28  C   UNL     1       6.051  16.987  20.547  0.00  0.00    +0.000 A 
ATOM     29  C   UNL     1       5.665  15.957  21.425  0.00  0.00    +0.000 A 
ATOM     30  N   UNL     1       4.949  15.009  20.818  0.00  0.00    +0.000 NA
ENDBRANCH  25  26
ENDBRANCH  23  25
ENDBRANCH   1  19
BRANCH   3  31
ATOM     31  C   UNL     1      -4.038  13.172  24.439  0.00  0.00    +0.000 C 
ATOM     32  F   UNL     1      -3.460  13.862  25.461  0.00  0.00    +0.000 F 
ATOM     33  F   UNL     1      -5.257  13.744  24.236  0.00  0.00    +0.000 F 
ATOM     34  F   UNL     1      -4.272  11.919  24.915  0.00  0.00    +0.000 F 
ENDBRANCH   3  31
TORSDOF 5
ENDMDL
MODEL 5
REMARK VINA RESULT:      -6.9      3.494      7.578
REMARK  Name = 
REMARK  6 active torsions:
REMARK  status: ('A' for Active; 'I' for Inactive)
REMARK    1  A    between atoms: C_1  and  C_2
REMARK    2  A    between atoms: N_4  and  C_5
REMARK    3  A    between atoms: C_7  and  C_8
REMARK    4  A    between atoms: C_13  and  C_14
REMARK    5  A    between atoms: C_26  and  C_28
REMARK    6  A    between atoms: C_28  and  N_29
REMARK                            x       y       z     vdW  Elec       q    Type
REMARK                         _______ _______ _______ _____ _____    ______ ____
ROOT
ATOM      1  C   UNL     1      -0.227  12.133  21.713  0.00  0.00    +0.000 A 
ATOM      2  S   UNL     1      -1.641  11.864  22.665  0.00  0.00    +0.000 S 
ATOM      3  C   UNL     1      -1.685  13.515  23.130  0.00  0.00    +0.000 A 
ATOM      4  N   UNL     1      -0.740  14.269  22.592  0.00  0.00    +0.000 NA
ATOM      5  C   UNL     1       0.047  13.503  21.740  0.00  0.00    +0.000 A 
ENDROOT
BRANCH   5   6
ATOM      6  C   UNL     1       1.092  14.182  20.904  0.00  0.00    +0.000 A 
ATOM      7  N   UNL     1       0.872  14.997  19.892  0.00  0.00    +0.000 NA
ATOM      8  C   UNL     1       2.104  15.366  19.427  0.00  0.00    +0.000 A 
ATOM      9  C   UNL     1       2.435  16.217  18.364  0.00  0.00    +0.000 A 
ATOM     10  C   UNL     1       3.788  16.421  18.068  0.00  0.00    +0.000 A 
ATOM     11  C   UNL     1       4.784  15.785  18.813  0.00  0.00    +0.000 A 
ATOM     12  C   UNL     1       4.470  14.936  19.884  0.00  0.00    +0.000 A 
ATOM     13  C   UNL     1       3.112  14.758  20.164  0.00  0.00    +0.000 A 
ATOM     14  N   UNL     1       2.442  14.038  21.121  0.00  0.00    +0.000 N 
ATOM     15  H   UNL     1       2.843  13.464  21.845  0.00  0.00    +0.000 HD
ENDBRANCH   5   6
BRANCH   1  19
ATOM     16  C   UNL     1      -0.346   8.167  21.442  0.00  0.00    +0.000 C 
ATOM     17  C   UNL     1       1.049   8.725  21.137  0.00  0.00    +0.000 C 
ATOM     18  C   UNL     1       1.244  10.120  21.792  0.00  0.00    +0.000 C 
ATOM     19  N   UNL     1       0.434  11.114  21.078  0.00  0.00    +0.000 N 
ATOM     20  C   UNL     1       0.754  11.215  19.642  0.00  0.00    +0.000 C 
ATOM     21  C   UNL     1       0.572   9.849  18.959  0.00  0.00    +0.000 C 
ATOM     22  N   UNL     1       1.296   8.781  19.671  0.00  0.00    +0.000 N 
ATOM     23  C   UNL     1       2.107   7.926  18.945  0.00  0.00    +0.000 C 
ATOM     24  O   UNL     1       2.259   8.053  17.725  0.00  0.00    +0.000 OA
BRANCH  23  25
ATOM     25  C   UNL     1       2.848   6.822  19.664  0.00  0.00    +0.000 C 
BRANCH  25  26
ATOM     26  N   UNL     1       2.159   5.555  19.529  0.00  0.00    +0.000 N 
ATOM     27  C   UNL     1       2.072   4.782  18.405  0.00  0.00    +0.000 A 
ATOM     28  C   UNL     1       1.297   3.697  18.742  0.00  0.00    +0.000 A 
ATOM     29  C   UNL     1       0.952   3.914  20.089  0.00  0.00    +0.000 A 
ATOM     30  N   UNL     1       1.476   5.041  20.575  0.00  0.00    +0.000 NA
ENDBRANCH  25  26
ENDBRANCH  23  25
ENDBRANCH   1  19
BRANCH   3  31
ATOM     31  C   UNL     1      -2.749  13.981  24.088  0.00  0.00    +0.000 C 
ATOM     32  F   UNL     1      -3.637  14.854  23.536  0.00  0.00    +0.000 F 
ATOM     33  F   UNL     1      -3.486  12.942  24.567  0.00  0.00    +0.000 F 
ATOM     34  F   UNL     1      -2.221  14.615  25.170  0.00  0.00    +0.000 F 
ENDBRANCH   3  31
TORSDOF 5
ENDMDL
MODEL 6
REMARK VINA RESULT:      -6.8      1.718      2.129
REMARK  Name = 
REMARK  6 active torsions:
REMARK  status: ('A' for Active; 'I' for Inactive)
REMARK    1  A    between atoms: C_1  and  C_2
REMARK    2  A    between atoms: N_4  and  C_5
REMARK    3  A    between atoms: C_7  and  C_8
REMARK    4  A    between atoms: C_13  and  C_14
REMARK    5  A    between atoms: C_26  and  C_28
REMARK    6  A    between atoms: C_28  and  N_29
REMARK                            x       y       z     vdW  Elec       q    Type
REMARK                         _______ _______ _______ _____ _____    ______ ____
ROOT
ATOM      1  C   UNL     1       0.300  12.976  19.856  0.00  0.00    +0.000 A 
ATOM      2  S   UNL     1      -0.986  14.021  20.339  0.00  0.00    +0.000 S 
ATOM      3  C   UNL     1      -2.132  12.757  20.154  0.00  0.00    +0.000 A 
ATOM      4  N   UNL     1      -1.619  11.591  19.795  0.00  0.00    +0.000 NA
ATOM      5  C   UNL     1      -0.236  11.696  19.687  0.00  0.00    +0.000 A 
ENDROOT
BRANCH   5   6
ATOM      6  C   UNL     1       0.572  10.457  19.435  0.00  0.00    +0.000 A 
ATOM      7  N   UNL     1       1.191  10.146  18.313  0.00  0.00    +0.000 NA
ATOM      8  C   UNL     1       1.786   8.935  18.533  0.00  0.00    +0.000 A 
ATOM      9  C   UNL     1       2.565   8.157  17.667  0.00  0.00    +0.000 A 
ATOM     10  C   UNL     1       3.050   6.926  18.126  0.00  0.00    +0.000 A 
ATOM     11  C   UNL     1       2.757   6.483  19.418  0.00  0.00    +0.000 A 
ATOM     12  C   UNL     1       1.984   7.252  20.300  0.00  0.00    +0.000 A 
ATOM     13  C   UNL     1       1.523   8.481  19.820  0.00  0.00    +0.000 A 
ATOM     14  N   UNL     1       0.777   9.486  20.385  0.00  0.00    +0.000 N 
ATOM     15  H   UNL     1       0.401   9.514  21.318  0.00  0.00    +0.000 HD
ENDBRANCH   5   6
BRANCH   1  19
ATOM     16  C   UNL     1       2.250  16.082  18.320  0.00  0.00    +0.000 C 
ATOM     17  C   UNL     1       3.118  14.818  18.360  0.00  0.00    +0.000 C 
ATOM     18  C   UNL     1       2.235  13.541  18.387  0.00  0.00    +0.000 C 
ATOM     19  N   UNL     1       1.586  13.420  19.698  0.00  0.00    +0.000 N 
ATOM     20  C   UNL     1       2.536  13.364  20.825  0.00  0.00    +0.000 C 
ATOM     21  C   UNL     1       3.429  14.617  20.830  0.00  0.00    +0.000 C 
ATOM     22  N   UNL     1       4.055  14.847  19.516  0.00  0.00    +0.000 N 
ATOM     23  C   UNL     1       5.417  15.088  19.458  0.00  0.00    +0.000 C 
ATOM     24  O   UNL     1       6.121  15.086  20.474  0.00  0.00    +0.000 OA
BRANCH  23  25
ATOM     25  C   UNL     1       6.068  15.334  18.116  0.00  0.00    +0.000 C 
BRANCH  25  26
ATOM     26  N   UNL     1       7.262  16.142  18.253  0.00  0.00    +0.000 N 
ATOM     27  C   UNL     1       8.558  15.717  18.150  0.00  0.00    +0.000 A 
ATOM     28  C   UNL     1       9.345  16.820  18.386  0.00  0.00    +0.000 A 
ATOM     29  C   UNL     1       8.430  17.859  18.637  0.00  0.00    +0.000 A 
ATOM     30  N   UNL     1       7.161  17.454  18.554  0.00  0.00    +0.000 NA
ENDBRANCH  25  26
ENDBRANCH  23  25
ENDBRANCH   1  19
BRANCH   3  31
ATOM     31  C   UNL     1      -3.589  13.044  20.396  0.00  0.00    +0.000 C 
ATOM     32  F   UNL     1      -4.085  12.450  21.517  0.00  0.00    +0.000 F 
ATOM     33  F   UNL     1      -3.823  14.378  20.539  0.00  0.00    +0.000 F 
ATOM     34  F   UNL     1      -4.371  12.621  19.367  0.00  0.00    +0.000 F 
ENDBRANCH   3  31
TORSDOF 5
ENDMDL
MODEL 7
REMARK VINA RESULT:      -6.8      1.670      2.252
REMARK  Name = 
REMARK  6 active torsions:
REMARK  status: ('A' for Active; 'I' for Inactive)
REMARK    1  A    between atoms: C_1  and  C_2
REMARK    2  A    between atoms: N_4  and  C_5
REMARK    3  A    between atoms: C_7  and  C_8
REMARK    4  A    between atoms: C_13  and  C_14
REMARK    5  A    between atoms: C_26  and  C_28
REMARK    6  A    between atoms: C_28  and  N_29
REMARK                            x       y       z     vdW  Elec       q    Type
REMARK                         _______ _______ _______ _____ _____    ______ ____
ROOT
ATOM      1  C   UNL     1       0.026  11.401  18.695  0.00  0.00    +0.000 A 
ATOM      2  S   UNL     1      -1.543  12.094  18.500  0.00  0.00    +0.000 S 
ATOM      3  C   UNL     1      -2.069  10.738  17.590  0.00  0.00    +0.000 A 
ATOM      4  N   UNL     1      -1.169   9.778  17.453  0.00  0.00    +0.000 NA
ATOM      5  C   UNL     1      -0.004  10.123  18.131  0.00  0.00    +0.000 A 
ENDROOT
BRANCH   5   6
ATOM      6  C   UNL     1       1.104   9.116  18.237  0.00  0.00    +0.000 A 
ATOM      7  N   UNL     1       2.080   8.937  17.369  0.00  0.00    +0.000 NA
ATOM      8  C   UNL     1       2.844   7.917  17.864  0.00  0.00    +0.000 A 
ATOM      9  C   UNL     1       4.000   7.332  17.329  0.00  0.00    +0.000 A 
ATOM     10  C   UNL     1       4.596   6.273  18.025  0.00  0.00    +0.000 A 
ATOM     11  C   UNL     1       4.045   5.808  19.221  0.00  0.00    +0.000 A 
ATOM     12  C   UNL     1       2.893   6.386  19.773  0.00  0.00    +0.000 A 
ATOM     13  C   UNL     1       2.325   7.448  19.064  0.00  0.00    +0.000 A 
ATOM     14  N   UNL     1       1.237   8.252  19.297  0.00  0.00    +0.000 N 
ATOM     15  H   UNL     1       0.607   8.213  20.082  0.00  0.00    +0.000 HD
ENDBRANCH   5   6
BRANCH   1  19
ATOM     16  C   UNL     1       1.790  14.964  18.610  0.00  0.00    +0.000 C 
ATOM     17  C   UNL     1       2.730  13.866  19.122  0.00  0.00    +0.000 C 
ATOM     18  C   UNL     1       2.278  12.469  18.616  0.00  0.00    +0.000 C 
ATOM     19  N   UNL     1       1.050  12.069  19.313  0.00  0.00    +0.000 N 
ATOM     20  C   UNL     1       1.193  12.018  20.780  0.00  0.00    +0.000 C 
ATOM     21  C   UNL     1       1.640  13.388  21.317  0.00  0.00    +0.000 C 
ATOM     22  N   UNL     1       2.828  13.893  20.607  0.00  0.00    +0.000 N 
ATOM     23  C   UNL     1       3.901  14.360  21.347  0.00  0.00    +0.000 C 
ATOM     24  O   UNL     1       3.897  14.337  22.583  0.00  0.00    +0.000 OA
BRANCH  23  25
ATOM     25  C   UNL     1       5.121  14.888  20.628  0.00  0.00    +0.000 C 
BRANCH  25  26
ATOM     26  N   UNL     1       5.336  16.290  20.921  0.00  0.00    +0.000 N 
ATOM     27  C   UNL     1       6.345  16.828  21.669  0.00  0.00    +0.000 A 
ATOM     28  C   UNL     1       6.122  18.185  21.698  0.00  0.00    +0.000 A 
ATOM     29  C   UNL     1       4.944  18.366  20.950  0.00  0.00    +0.000 A 
ATOM     30  N   UNL     1       4.462  17.217  20.471  0.00  0.00    +0.000 NA
ENDBRANCH  25  26
ENDBRANCH  23  25
ENDBRANCH   1  19
BRANCH   3  31
ATOM     31  C   UNL     1      -3.464  10.729  17.023  0.00  0.00    +0.000 C 
ATOM     32  F   UNL     1      -4.002  11.971  16.876  0.00  0.00    +0.000 F 
ATOM     33  F   UNL     1      -3.503  10.148  15.792  0.00  0.00    +0.000 F 
ATOM     34  F   UNL     1      -4.329  10.033  17.809  0.00  0.00    +0.000 F 
ENDBRANCH   3  31
TORSDOF 5
ENDMDL
MODEL 8
REMARK VINA RESULT:      -6.8      3.067      3.814
REMARK  Name = 
REMARK  6 active torsions:
REMARK  status: ('A' for Active; 'I' for Inactive)
REMARK    1  A    between atoms: C_1  and  C_2
REMARK    2  A    between atoms: N_4  and  C_5
REMARK    3  A    between atoms: C_7  and  C_8
REMARK    4  A    between atoms: C_13  and  C_14
REMARK    5  A    between atoms: C_26  and  C_28
REMARK    6  A    between atoms: C_28  and  N_29
REMARK                            x       y       z     vdW  Elec       q    Type
REMARK                         _______ _______ _______ _____ _____    ______ ____
ROOT
ATOM      1  C   UNL     1      -1.094  13.866  21.705  0.00  0.00    +0.000 A 
ATOM      2  S   UNL     1      -2.223  14.564  22.809  0.00  0.00    +0.000 S 
ATOM      3  C   UNL     1      -3.085  13.084  22.918  0.00  0.00    +0.000 A 
ATOM      4  N   UNL     1      -2.568  12.087  22.220  0.00  0.00    +0.000 NA
ATOM      5  C   UNL     1      -1.406  12.510  21.583  0.00  0.00    +0.000 A 
ENDROOT
BRANCH   5   6
ATOM      6  C   UNL     1      -0.567  11.503  20.851  0.00  0.00    +0.000 A 
ATOM      7  N   UNL     1      -0.279  11.516  19.565  0.00  0.00    +0.000 NA
ATOM      8  C   UNL     1       0.495  10.411  19.339  0.00  0.00    +0.000 A 
ATOM      9  C   UNL     1       1.067   9.956  18.144  0.00  0.00    +0.000 A 
ATOM     10  C   UNL     1       1.811   8.770  18.168  0.00  0.00    +0.000 A 
ATOM     11  C   UNL     1       1.973   8.055  19.357  0.00  0.00    +0.000 A 
ATOM     12  C   UNL     1       1.413   8.501  20.563  0.00  0.00    +0.000 A 
ATOM     13  C   UNL     1       0.685   9.693  20.513  0.00  0.00    +0.000 A 
ATOM     14  N   UNL     1       0.028  10.428  21.468  0.00  0.00    +0.000 N 
ATOM     15  H   UNL     1      -0.053  10.219  22.450  0.00  0.00    +0.000 HD
ENDBRANCH   5   6
BRANCH   1  19
ATOM     16  C   UNL     1       2.636  13.401  20.406  0.00  0.00    +0.000 C 
ATOM     17  C   UNL     1       2.329  14.858  20.773  0.00  0.00    +0.000 C 
ATOM     18  C   UNL     1       1.156  14.940  21.787  0.00  0.00    +0.000 C 
ATOM     19  N   UNL     1      -0.101  14.600  21.111  0.00  0.00    +0.000 N 
ATOM     20  C   UNL     1      -0.407  15.471  19.960  0.00  0.00    +0.000 C 
ATOM     21  C   UNL     1       0.736  15.414  18.932  0.00  0.00    +0.000 C 
ATOM     22  N   UNL     1       2.046  15.669  19.558  0.00  0.00    +0.000 N 
ATOM     23  C   UNL     1       2.895  16.595  18.976  0.00  0.00    +0.000 C 
ATOM     24  O   UNL     1       2.571  17.230  17.966  0.00  0.00    +0.000 OA
BRANCH  23  25
ATOM     25  C   UNL     1       4.245  16.857  19.604  0.00  0.00    +0.000 C 
BRANCH  25  26
ATOM     26  N   UNL     1       5.297  16.157  18.897  0.00  0.00    +0.000 N 
ATOM     27  C   UNL     1       5.197  14.953  18.257  0.00  0.00    +0.000 A 
ATOM     28  C   UNL     1       6.451  14.674  17.764  0.00  0.00    +0.000 A 
ATOM     29  C   UNL     1       7.242  15.764  18.172  0.00  0.00    +0.000 A 
ATOM     30  N   UNL     1       6.545  16.671  18.859  0.00  0.00    +0.000 NA
ENDBRANCH  25  26
ENDBRANCH  23  25
ENDBRANCH   1  19
BRANCH   3  31
ATOM     31  C   UNL     1      -4.329  13.019  23.764  0.00  0.00    +0.000 C 
ATOM     32  F   UNL     1      -5.447  12.678  23.065  0.00  0.00    +0.000 F 
ATOM     33  F   UNL     1      -4.212  12.102  24.763  0.00  0.00    +0.000 F 
ATOM     34  F   UNL     1      -4.604  14.211  24.360  0.00  0.00    +0.000 F 
ENDBRANCH   3  31
TORSDOF 5
ENDMDL
MODEL 9
REMARK VINA RESULT:      -6.8      4.252      7.724
REMARK  Name = 
REMARK  6 active torsions:
REMARK  status: ('A' for Active; 'I' for Inactive)
REMARK    1  A    between atoms: C_1  and  C_2
REMARK    2  A    between atoms: N_4  and  C_5
REMARK    3  A    between atoms: C_7  and  C_8
REMARK    4  A    between atoms: C_13  and  C_14
REMARK    5  A    between atoms: C_26  and  C_28
REMARK    6  A    between atoms: C_28  and  N_29
REMARK                            x       y       z     vdW  Elec       q    Type
REMARK                         _______ _______ _______ _____ _____    ______ ____
ROOT
ATOM      1  C   UNL     1       1.165  12.948  19.103  0.00  0.00    +0.000 A 
ATOM      2  S   UNL     1       2.380  14.161  19.285  0.00  0.00    +0.000 S 
ATOM      3  C   UNL     1       1.264  15.394  18.864  0.00  0.00    +0.000 A 
ATOM      4  N   UNL     1       0.031  14.973  18.636  0.00  0.00    +0.000 NA
ATOM      5  C   UNL     1      -0.042  13.598  18.832  0.00  0.00    +0.000 A 
ENDROOT
BRANCH   5   6
ATOM      6  C   UNL     1      -1.381  12.922  18.772  0.00  0.00    +0.000 A 
ATOM      7  N   UNL     1      -1.746  11.991  17.914  0.00  0.00    +0.000 NA
ATOM      8  C   UNL     1      -3.041  11.678  18.224  0.00  0.00    +0.000 A 
ATOM      9  C   UNL     1      -3.900  10.750  17.620  0.00  0.00    +0.000 A 
ATOM     10  C   UNL     1      -5.205  10.627  18.113  0.00  0.00    +0.000 A 
ATOM     11  C   UNL     1      -5.639  11.416  19.180  0.00  0.00    +0.000 A 
ATOM     12  C   UNL     1      -4.791  12.344  19.801  0.00  0.00    +0.000 A 
ATOM     13  C   UNL     1      -3.491  12.439  19.295  0.00  0.00    +0.000 A 
ATOM     14  N   UNL     1      -2.403  13.198  19.649  0.00  0.00    +0.000 N 
ATOM     15  H   UNL     1      -2.348  13.875  20.392  0.00  0.00    +0.000 HD
ENDBRANCH   5   6
BRANCH   1  19
ATOM     16  C   UNL     1      -0.629   9.595  20.266  0.00  0.00    +0.000 C 
ATOM     17  C   UNL     1       0.896   9.512  20.403  0.00  0.00    +0.000 C 
ATOM     18  C   UNL     1       1.520  10.929  20.522  0.00  0.00    +0.000 C 
ATOM     19  N   UNL     1       1.439  11.612  19.226  0.00  0.00    +0.000 N 
ATOM     20  C   UNL     1       2.114  10.887  18.133  0.00  0.00    +0.000 C 
ATOM     21  C   UNL     1       1.520   9.476  17.985  0.00  0.00    +0.000 C 
ATOM     22  N   UNL     1       1.495   8.755  19.270  0.00  0.00    +0.000 N 
ATOM     23  C   UNL     1       1.994   7.465  19.322  0.00  0.00    +0.000 C 
ATOM     24  O   UNL     1       2.482   6.916  18.327  0.00  0.00    +0.000 OA
BRANCH  23  25
ATOM     25  C   UNL     1       1.965   6.713  20.633  0.00  0.00    +0.000 C 
BRANCH  25  26
ATOM     26  N   UNL     1       2.001   5.281  20.417  0.00  0.00    +0.000 N 
ATOM     27  C   UNL     1       0.931   4.432  20.362  0.00  0.00    +0.000 A 
ATOM     28  C   UNL     1       1.449   3.172  20.174  0.00  0.00    +0.000 A 
ATOM     29  C   UNL     1       2.843   3.363  20.145  0.00  0.00    +0.000 A 
ATOM     30  N   UNL     1       3.185   4.645  20.289  0.00  0.00    +0.000 NA
ENDBRANCH  25  26
ENDBRANCH  23  25
ENDBRANCH   1  19
BRANCH   3  31
ATOM     31  C   UNL     1       1.740  16.820  18.779  0.00  0.00    +0.000 C 
ATOM     32  F   UNL     1       2.610  17.165  19.769  0.00  0.00    +0.000 F 
ATOM     33  F   UNL     1       2.383  17.067  17.605  0.00  0.00    +0.000 F 
ATOM     34  F   UNL     1       0.712  17.707  18.853  0.00  0.00    +0.000 F 
ENDBRANCH   3  31
TORSDOF 5
ENDMDL
