MODEL 1
REMARK VINA RESULT:      -8.1      0.000      0.000
REMARK  Name = 
REMARK  5 active torsions:
REMARK  status: ('A' for Active; 'I' for Inactive)
REMARK    1  A    between atoms: C_1  and  N_2
REMARK    2  A    between atoms: C_4  and  S_5
REMARK    3  A    between atoms: S_5  and  N_8
REMARK    4  A    between atoms: C_9  and  C_11
REMARK    5  A    between atoms: C_11  and  C_12
REMARK                            x       y       z     vdW  Elec       q    Type
REMARK                         _______ _______ _______ _____ _____    ______ ____
ROOT
ATOM      1  N   UNL     1       5.526   4.609  17.080  0.00  0.00    +0.000 N 
ATOM      2  C   UNL     1       5.346   4.530  18.470  0.00  0.00    +0.000 C 
ATOM      3  O   UNL     1       6.217   4.852  19.269  0.00  0.00    +0.000 OA
ATOM      4  H   UNL     1       4.845   4.192  16.453  0.00  0.00    +0.000 HD
ENDROOT
BRANCH   2   5
ATOM      5  C   UNL     1       3.883   4.015  18.844  0.00  0.00    +0.000 C 
ATOM      6  C   UNL     1       3.267   2.960  17.849  0.00  0.00    +0.000 C 
ATOM      7  C   UNL     1       2.725   2.202  19.074  0.00  0.00    +0.000 C 
ATOM      8  C   UNL     1       3.867   2.830  19.884  0.00  0.00    +0.000 C 
BRANCH   5   9
ATOM      9  C   UNL     1       3.006   5.339  19.132  0.00  0.00    +0.000 A 
ATOM     10  C   UNL     1       3.025   6.425  18.228  0.00  0.00    +0.000 A 
ATOM     11  C   UNL     1       2.460   7.664  18.543  0.00  0.00    +0.000 A 
ATOM     12  C   UNL     1       1.831   7.847  19.768  0.00  0.00    +0.000 A 
ATOM     13  C   UNL     1       1.713   6.776  20.645  0.00  0.00    +0.000 A 
ATOM     14  C   UNL     1       2.281   5.539  20.323  0.00  0.00    +0.000 A 
ENDBRANCH   5   9
ENDBRANCH   2   5
BRANCH   1  15
ATOM     15  S   UNL     1       6.912   5.068  16.296  0.00  0.00    +0.000 S 
ATOM     16  O   UNL     1       7.951   4.216  16.839  0.00  0.00    +0.000 OA
ATOM     17  O   UNL     1       7.038   6.506  16.305  0.00  0.00    +0.000 OA
BRANCH  15  21
ATOM     18  C   UNL     1       5.814   2.798  11.727  0.00  0.00    +0.000 C 
ATOM     19  N   UNL     1       6.336   3.678  12.743  0.00  0.00    +0.000 N 
ATOM     20  C   UNL     1       5.946   3.741  14.047  0.00  0.00    +0.000 A 
ATOM     21  C   UNL     1       6.817   4.623  14.648  0.00  0.00    +0.000 A 
ATOM     22  C   UNL     1       7.647   5.084  13.616  0.00  0.00    +0.000 A 
ATOM     23  N   UNL     1       7.361   4.502  12.446  0.00  0.00    +0.000 NA
ENDBRANCH  15  21
ENDBRANCH   1  15
TORSDOF 4
ENDMDL
MODEL 2
REMARK VINA RESULT:      -8.0      0.870      1.471
REMARK  Name = 
REMARK  5 active torsions:
REMARK  status: ('A' for Active; 'I' for Inactive)
REMARK    1  A    between atoms: C_1  and  N_2
REMARK    2  A    between atoms: C_4  and  S_5
REMARK    3  A    between atoms: S_5  and  N_8
REMARK    4  A    between atoms: C_9  and  C_11
REMARK    5  A    between atoms: C_11  and  C_12
REMARK                            x       y       z     vdW  Elec       q    Type
REMARK                         _______ _______ _______ _____ _____    ______ ____
ROOT
ATOM      1  N   UNL     1       5.354   5.239  17.019  0.00  0.00    +0.000 N 
ATOM      2  C   UNL     1       5.034   5.389  18.378  0.00  0.00    +0.000 C 
ATOM      3  O   UNL     1       5.875   5.647  19.230  0.00  0.00    +0.000 OA
ATOM      4  H   UNL     1       4.663   4.876  16.369  0.00  0.00    +0.000 HD
ENDROOT
BRANCH   2   5
ATOM      5  C   UNL     1       3.468   5.219  18.634  0.00  0.00    +0.000 C 
ATOM      6  C   UNL     1       2.721   4.268  17.623  0.00  0.00    +0.000 C 
ATOM      7  C   UNL     1       1.929   3.709  18.818  0.00  0.00    +0.000 C 
ATOM      8  C   UNL     1       3.110   4.121  19.707  0.00  0.00    +0.000 C 
BRANCH   5   9
ATOM      9  C   UNL     1       2.880   6.713  18.796  0.00  0.00    +0.000 A 
ATOM     10  C   UNL     1       2.244   7.109  19.994  0.00  0.00    +0.000 A 
ATOM     11  C   UNL     1       1.533   8.308  20.097  0.00  0.00    +0.000 A 
ATOM     12  C   UNL     1       1.462   9.166  19.006  0.00  0.00    +0.000 A 
ATOM     13  C   UNL     1       2.151   8.853  17.841  0.00  0.00    +0.000 A 
ATOM     14  C   UNL     1       2.860   7.651  17.746  0.00  0.00    +0.000 A 
ENDBRANCH   5   9
ENDBRANCH   2   5
BRANCH   1  15
ATOM     15  S   UNL     1       6.870   5.311  16.355  0.00  0.00    +0.000 S 
ATOM     16  O   UNL     1       7.629   4.282  17.037  0.00  0.00    +0.000 OA
ATOM     17  O   UNL     1       7.331   6.679  16.311  0.00  0.00    +0.000 OA
BRANCH  15  21
ATOM     18  C   UNL     1       5.912   2.805  11.880  0.00  0.00    +0.000 C 
ATOM     19  N   UNL     1       6.392   3.746  12.862  0.00  0.00    +0.000 N 
ATOM     20  C   UNL     1       5.980   3.855  14.156  0.00  0.00    +0.000 A 
ATOM     21  C   UNL     1       6.815   4.790  14.728  0.00  0.00    +0.000 A 
ATOM     22  C   UNL     1       7.646   5.230  13.688  0.00  0.00    +0.000 A 
ATOM     23  N   UNL     1       7.396   4.587  12.542  0.00  0.00    +0.000 NA
ENDBRANCH  15  21
ENDBRANCH   1  15
TORSDOF 4
ENDMDL
MODEL 3
REMARK VINA RESULT:      -7.9      0.435      1.108
REMARK  Name = 
REMARK  5 active torsions:
REMARK  status: ('A' for Active; 'I' for Inactive)
REMARK    1  A    between atoms: C_1  and  N_2
REMARK    2  A    between atoms: C_4  and  S_5
REMARK    3  A    between atoms: S_5  and  N_8
REMARK    4  A    between atoms: C_9  and  C_11
REMARK    5  A    between atoms: C_11  and  C_12
REMARK                            x       y       z     vdW  Elec       q    Type
REMARK                         _______ _______ _______ _____ _____    ______ ____
ROOT
ATOM      1  N   UNL     1       5.555   4.528  16.965  0.00  0.00    +0.000 N 
ATOM      2  C   UNL     1       5.423   4.327  18.348  0.00  0.00    +0.000 C 
ATOM      3  O   UNL     1       6.326   4.563  19.140  0.00  0.00    +0.000 OA
ATOM      4  H   UNL     1       4.845   4.180  16.328  0.00  0.00    +0.000 HD
ENDROOT
BRANCH   2   5
ATOM      5  C   UNL     1       3.964   3.803  18.728  0.00  0.00    +0.000 C 
ATOM      6  C   UNL     1       3.197   3.054  17.572  0.00  0.00    +0.000 C 
ATOM      7  C   UNL     1       2.708   2.044  18.626  0.00  0.00    +0.000 C 
ATOM      8  C   UNL     1       3.954   2.401  19.448  0.00  0.00    +0.000 C 
BRANCH   5   9
ATOM      9  C   UNL     1       3.206   5.054  19.409  0.00  0.00    +0.000 A 
ATOM     10  C   UNL     1       2.402   4.870  20.557  0.00  0.00    +0.000 A 
ATOM     11  C   UNL     1       1.561   5.875  21.044  0.00  0.00    +0.000 A 
ATOM     12  C   UNL     1       1.521   7.111  20.411  0.00  0.00    +0.000 A 
ATOM     13  C   UNL     1       2.364   7.359  19.336  0.00  0.00    +0.000 A 
ATOM     14  C   UNL     1       3.203   6.349  18.853  0.00  0.00    +0.000 A 
ENDBRANCH   5   9
ENDBRANCH   2   5
BRANCH   1  15
ATOM     15  S   UNL     1       6.921   5.034  16.175  0.00  0.00    +0.000 S 
ATOM     16  O   UNL     1       7.991   4.217  16.712  0.00  0.00    +0.000 OA
ATOM     17  O   UNL     1       6.999   6.475  16.186  0.00  0.00    +0.000 OA
BRANCH  15  21
ATOM     18  C   UNL     1       5.886   2.729  11.609  0.00  0.00    +0.000 C 
ATOM     19  N   UNL     1       6.379   3.628  12.624  0.00  0.00    +0.000 N 
ATOM     20  C   UNL     1       5.995   3.673  13.930  0.00  0.00    +0.000 A 
ATOM     21  C   UNL     1       6.834   4.588  14.527  0.00  0.00    +0.000 A 
ATOM     22  C   UNL     1       7.639   5.083  13.491  0.00  0.00    +0.000 A 
ATOM     23  N   UNL     1       7.369   4.492  12.322  0.00  0.00    +0.000 NA
ENDBRANCH  15  21
ENDBRANCH   1  15
TORSDOF 4
ENDMDL
MODEL 4
REMARK VINA RESULT:      -7.8      2.493      3.648
REMARK  Name = 
REMARK  5 active torsions:
REMARK  status: ('A' for Active; 'I' for Inactive)
REMARK    1  A    between atoms: C_1  and  N_2
REMARK    2  A    between atoms: C_4  and  S_5
REMARK    3  A    between atoms: S_5  and  N_8
REMARK    4  A    between atoms: C_9  and  C_11
REMARK    5  A    between atoms: C_11  and  C_12
REMARK                            x       y       z     vdW  Elec       q    Type
REMARK                         _______ _______ _______ _____ _____    ______ ____
ROOT
ATOM      1  N   UNL     1       5.423   4.733  17.054  0.00  0.00    +0.000 N 
ATOM      2  C   UNL     1       5.043   4.339  18.346  0.00  0.00    +0.000 C 
ATOM      3  O   UNL     1       5.831   4.298  19.283  0.00  0.00    +0.000 OA
ATOM      4  H   UNL     1       4.785   4.608  16.274  0.00  0.00    +0.000 HD
ENDROOT
BRANCH   2   5
ATOM      5  C   UNL     1       3.486   4.000  18.422  0.00  0.00    +0.000 C 
ATOM      6  C   UNL     1       2.885   3.309  17.139  0.00  0.00    +0.000 C 
ATOM      7  C   UNL     1       2.075   2.396  18.077  0.00  0.00    +0.000 C 
ATOM      8  C   UNL     1       3.161   2.632  19.135  0.00  0.00    +0.000 C 
BRANCH   5   9
ATOM      9  C   UNL     1       2.762   5.352  18.925  0.00  0.00    +0.000 A 
ATOM     10  C   UNL     1       2.794   6.522  18.135  0.00  0.00    +0.000 A 
ATOM     11  C   UNL     1       2.374   7.762  18.625  0.00  0.00    +0.000 A 
ATOM     12  C   UNL     1       1.879   7.863  19.919  0.00  0.00    +0.000 A 
ATOM     13  C   UNL     1       1.746   6.718  20.694  0.00  0.00    +0.000 A 
ATOM     14  C   UNL     1       2.169   5.481  20.197  0.00  0.00    +0.000 A 
ENDBRANCH   5   9
ENDBRANCH   2   5
BRANCH   1  15
ATOM     15  S   UNL     1       6.954   5.134  16.562  0.00  0.00    +0.000 S 
ATOM     16  O   UNL     1       6.800   5.608  15.201  0.00  0.00    +0.000 OA
ATOM     17  O   UNL     1       7.877   4.073  16.887  0.00  0.00    +0.000 OA
BRANCH  15  21
ATOM     18  C   UNL     1       8.379   9.919  18.078  0.00  0.00    +0.000 C 
ATOM     19  N   UNL     1       8.075   8.509  18.055  0.00  0.00    +0.000 N 
ATOM     20  C   UNL     1       7.434   7.829  17.064  0.00  0.00    +0.000 A 
ATOM     21  C   UNL     1       7.500   6.502  17.428  0.00  0.00    +0.000 A 
ATOM     22  C   UNL     1       8.138   6.493  18.677  0.00  0.00    +0.000 A 
ATOM     23  N   UNL     1       8.500   7.721  19.063  0.00  0.00    +0.000 NA
ENDBRANCH  15  21
ENDBRANCH   1  15
TORSDOF 4
ENDMDL
MODEL 5
REMARK VINA RESULT:      -7.7      3.092      4.042
REMARK  Name = 
REMARK  5 active torsions:
REMARK  status: ('A' for Active; 'I' for Inactive)
REMARK    1  A    between atoms: C_1  and  N_2
REMARK    2  A    between atoms: C_4  and  S_5
REMARK    3  A    between atoms: S_5  and  N_8
REMARK    4  A    between atoms: C_9  and  C_11
REMARK    5  A    between atoms: C_11  and  C_12
REMARK                            x       y       z     vdW  Elec       q    Type
REMARK                         _______ _______ _______ _____ _____    ______ ____
ROOT
ATOM      1  N   UNL     1       5.427   5.085  18.755  0.00  0.00    +0.000 N 
ATOM      2  C   UNL     1       4.674   3.976  19.172  0.00  0.00    +0.000 C 
ATOM      3  O   UNL     1       5.174   3.015  19.743  0.00  0.00    +0.000 OA
ATOM      4  H   UNL     1       5.010   5.789  18.153  0.00  0.00    +0.000 HD
ENDROOT
BRANCH   2   5
ATOM      5  C   UNL     1       3.125   4.161  18.840  0.00  0.00    +0.000 C 
ATOM      6  C   UNL     1       2.631   3.454  17.520  0.00  0.00    +0.000 C 
ATOM      7  C   UNL     1       1.359   3.042  18.282  0.00  0.00    +0.000 C 
ATOM      8  C   UNL     1       2.184   3.130  19.573  0.00  0.00    +0.000 C 
BRANCH   5   9
ATOM      9  C   UNL     1       2.828   5.742  18.971  0.00  0.00    +0.000 A 
ATOM     10  C   UNL     1       2.292   6.277  20.164  0.00  0.00    +0.000 A 
ATOM     11  C   UNL     1       1.819   7.590  20.244  0.00  0.00    +0.000 A 
ATOM     12  C   UNL     1       1.896   8.421  19.133  0.00  0.00    +0.000 A 
ATOM     13  C   UNL     1       2.500   7.960  17.971  0.00  0.00    +0.000 A 
ATOM     14  C   UNL     1       2.970   6.644  17.898  0.00  0.00    +0.000 A 
ENDBRANCH   5   9
ENDBRANCH   2   5
BRANCH   1  15
ATOM     15  S   UNL     1       7.069   5.262  18.891  0.00  0.00    +0.000 S 
ATOM     16  O   UNL     1       7.627   4.363  17.901  0.00  0.00    +0.000 OA
ATOM     17  O   UNL     1       7.466   5.192  20.277  0.00  0.00    +0.000 OA
BRANCH  15  21
ATOM     18  C   UNL     1       9.058  10.064  18.426  0.00  0.00    +0.000 C 
ATOM     19  N   UNL     1       8.381   8.817  18.167  0.00  0.00    +0.000 N 
ATOM     20  C   UNL     1       8.439   7.685  18.923  0.00  0.00    +0.000 A 
ATOM     21  C   UNL     1       7.529   6.819  18.357  0.00  0.00    +0.000 A 
ATOM     22  C   UNL     1       7.028   7.493  17.234  0.00  0.00    +0.000 A 
ATOM     23  N   UNL     1       7.541   8.722  17.117  0.00  0.00    +0.000 NA
ENDBRANCH  15  21
ENDBRANCH   1  15
TORSDOF 4
ENDMDL
MODEL 6
REMARK VINA RESULT:      -7.7      2.997      3.783
REMARK  Name = 
REMARK  5 active torsions:
REMARK  status: ('A' for Active; 'I' for Inactive)
REMARK    1  A    between atoms: C_1  and  N_2
REMARK    2  A    between atoms: C_4  and  S_5
REMARK    3  A    between atoms: S_5  and  N_8
REMARK    4  A    between atoms: C_9  and  C_11
REMARK    5  A    between atoms: C_11  and  C_12
REMARK                            x       y       z     vdW  Elec       q    Type
REMARK                         _______ _______ _______ _____ _____    ______ ____
ROOT
ATOM      1  N   UNL     1       5.788   4.622  19.053  0.00  0.00    +0.000 N 
ATOM      2  C   UNL     1       5.034   4.185  17.952  0.00  0.00    +0.000 C 
ATOM      3  O   UNL     1       5.514   4.050  16.834  0.00  0.00    +0.000 OA
ATOM      4  H   UNL     1       5.326   4.868  19.923  0.00  0.00    +0.000 HD
ENDROOT
BRANCH   2   5
ATOM      5  C   UNL     1       3.526   3.864  18.365  0.00  0.00    +0.000 C 
ATOM      6  C   UNL     1       2.729   2.958  17.350  0.00  0.00    +0.000 C 
ATOM      7  C   UNL     1       2.128   2.224  18.562  0.00  0.00    +0.000 C 
ATOM      8  C   UNL     1       3.377   2.642  19.350  0.00  0.00    +0.000 C 
BRANCH   5   9
ATOM      9  C   UNL     1       2.859   5.282  18.750  0.00  0.00    +0.000 A 
ATOM     10  C   UNL     1       2.980   6.392  17.884  0.00  0.00    +0.000 A 
ATOM     11  C   UNL     1       2.611   7.683  18.274  0.00  0.00    +0.000 A 
ATOM     12  C   UNL     1       2.081   7.898  19.540  0.00  0.00    +0.000 A 
ATOM     13  C   UNL     1       1.863   6.818  20.385  0.00  0.00    +0.000 A 
ATOM     14  C   UNL     1       2.234   5.529  19.988  0.00  0.00    +0.000 A 
ENDBRANCH   5   9
ENDBRANCH   2   5
BRANCH   1  15
ATOM     15  S   UNL     1       7.380   5.083  19.029  0.00  0.00    +0.000 S 
ATOM     16  O   UNL     1       8.007   4.215  18.053  0.00  0.00    +0.000 OA
ATOM     17  O   UNL     1       7.888   5.189  20.376  0.00  0.00    +0.000 OA
BRANCH  15  21
ATOM     18  C   UNL     1       8.590  10.053  18.000  0.00  0.00    +0.000 C 
ATOM     19  N   UNL     1       8.047   8.719  17.927  0.00  0.00    +0.000 N 
ATOM     20  C   UNL     1       8.398   7.652  18.698  0.00  0.00    +0.000 A 
ATOM     21  C   UNL     1       7.519   6.648  18.357  0.00  0.00    +0.000 A 
ATOM     22  C   UNL     1       6.725   7.184  17.332  0.00  0.00    +0.000 A 
ATOM     23  N   UNL     1       7.040   8.457  17.069  0.00  0.00    +0.000 NA
ENDBRANCH  15  21
ENDBRANCH   1  15
TORSDOF 4
ENDMDL
MODEL 7
REMARK VINA RESULT:      -7.6      2.944      4.061
REMARK  Name = 
REMARK  5 active torsions:
REMARK  status: ('A' for Active; 'I' for Inactive)
REMARK    1  A    between atoms: C_1  and  N_2
REMARK    2  A    between atoms: C_4  and  S_5
REMARK    3  A    between atoms: S_5  and  N_8
REMARK    4  A    between atoms: C_9  and  C_11
REMARK    5  A    between atoms: C_11  and  C_12
REMARK                            x       y       z     vdW  Elec       q    Type
REMARK                         _______ _______ _______ _____ _____    ______ ____
ROOT
ATOM      1  N   UNL     1       4.990   5.437  17.398  0.00  0.00    +0.000 N 
ATOM      2  C   UNL     1       4.552   5.325  18.727  0.00  0.00    +0.000 C 
ATOM      3  O   UNL     1       5.323   5.306  19.678  0.00  0.00    +0.000 OA
ATOM      4  H   UNL     1       4.338   5.295  16.632  0.00  0.00    +0.000 HD
ENDROOT
BRANCH   2   5
ATOM      5  C   UNL     1       2.960   5.267  18.816  0.00  0.00    +0.000 C 
ATOM      6  C   UNL     1       2.253   4.424  17.687  0.00  0.00    +0.000 C 
ATOM      7  C   UNL     1       1.303   3.877  18.767  0.00  0.00    +0.000 C 
ATOM      8  C   UNL     1       2.413   4.154  19.790  0.00  0.00    +0.000 C 
BRANCH   5   9
ATOM      9  C   UNL     1       2.469   6.794  18.997  0.00  0.00    +0.000 A 
ATOM     10  C   UNL     1       2.017   7.260  20.252  0.00  0.00    +0.000 A 
ATOM     11  C   UNL     1       1.383   8.498  20.401  0.00  0.00    +0.000 A 
ATOM     12  C   UNL     1       1.208   9.323  19.297  0.00  0.00    +0.000 A 
ATOM     13  C   UNL     1       1.722   8.938  18.064  0.00  0.00    +0.000 A 
ATOM     14  C   UNL     1       2.354   7.698  17.923  0.00  0.00    +0.000 A 
ENDBRANCH   5   9
ENDBRANCH   2   5
BRANCH   1  15
ATOM     15  S   UNL     1       6.565   5.493  16.886  0.00  0.00    +0.000 S 
ATOM     16  O   UNL     1       6.494   5.874  15.490  0.00  0.00    +0.000 OA
ATOM     17  O   UNL     1       7.268   4.304  17.305  0.00  0.00    +0.000 OA
BRANCH  15  21
ATOM     18  C   UNL     1       8.682  10.104  18.104  0.00  0.00    +0.000 C 
ATOM     19  N   UNL     1       8.236   8.733  18.147  0.00  0.00    +0.000 N 
ATOM     20  C   UNL     1       7.387   8.124  17.273  0.00  0.00    +0.000 A 
ATOM     21  C   UNL     1       7.372   6.797  17.641  0.00  0.00    +0.000 A 
ATOM     22  C   UNL     1       8.188   6.720  18.780  0.00  0.00    +0.000 A 
ATOM     23  N   UNL     1       8.727   7.904  19.090  0.00  0.00    +0.000 NA
ENDBRANCH  15  21
ENDBRANCH   1  15
TORSDOF 4
ENDMDL
MODEL 8
REMARK VINA RESULT:      -7.6      1.221      2.974
REMARK  Name = 
REMARK  5 active torsions:
REMARK  status: ('A' for Active; 'I' for Inactive)
REMARK    1  A    between atoms: C_1  and  N_2
REMARK    2  A    between atoms: C_4  and  S_5
REMARK    3  A    between atoms: S_5  and  N_8
REMARK    4  A    between atoms: C_9  and  C_11
REMARK    5  A    between atoms: C_11  and  C_12
REMARK                            x       y       z     vdW  Elec       q    Type
REMARK                         _______ _______ _______ _____ _____    ______ ____
ROOT
ATOM      1  N   UNL     1       5.097   5.887  17.126  0.00  0.00    +0.000 N 
ATOM      2  C   UNL     1       4.606   5.820  18.439  0.00  0.00    +0.000 C 
ATOM      3  O   UNL     1       5.295   5.461  19.385  0.00  0.00    +0.000 OA
ATOM      4  H   UNL     1       4.460   6.040  16.350  0.00  0.00    +0.000 HD
ENDROOT
BRANCH   2   5
ATOM      5  C   UNL     1       3.086   6.299  18.522  0.00  0.00    +0.000 C 
ATOM      6  C   UNL     1       2.819   7.528  19.472  0.00  0.00    +0.000 C 
ATOM      7  C   UNL     1       1.852   8.073  18.405  0.00  0.00    +0.000 C 
ATOM      8  C   UNL     1       2.660   7.283  17.366  0.00  0.00    +0.000 C 
BRANCH   5   9
ATOM      9  C   UNL     1       2.215   4.968  18.795  0.00  0.00    +0.000 A 
ATOM     10  C   UNL     1       1.629   4.739  20.060  0.00  0.00    +0.000 A 
ATOM     11  C   UNL     1       1.058   3.510  20.404  0.00  0.00    +0.000 A 
ATOM     12  C   UNL     1       1.031   2.476  19.476  0.00  0.00    +0.000 A 
ATOM     13  C   UNL     1       1.515   2.694  18.192  0.00  0.00    +0.000 A 
ATOM     14  C   UNL     1       2.086   3.926  17.856  0.00  0.00    +0.000 A 
ENDBRANCH   5   9
ENDBRANCH   2   5
BRANCH   1  15
ATOM     15  S   UNL     1       6.614   5.447  16.623  0.00  0.00    +0.000 S 
ATOM     16  O   UNL     1       6.935   4.261  17.391  0.00  0.00    +0.000 OA
ATOM     17  O   UNL     1       7.489   6.595  16.614  0.00  0.00    +0.000 OA
BRANCH  15  21
ATOM     18  C   UNL     1       5.456   3.036  12.143  0.00  0.00    +0.000 C 
ATOM     19  N   UNL     1       6.046   3.902  13.135  0.00  0.00    +0.000 N 
ATOM     20  C   UNL     1       5.593   4.117  14.402  0.00  0.00    +0.000 A 
ATOM     21  C   UNL     1       6.551   4.902  15.005  0.00  0.00    +0.000 A 
ATOM     22  C   UNL     1       7.502   5.157  14.006  0.00  0.00    +0.000 A 
ATOM     23  N   UNL     1       7.201   4.540  12.859  0.00  0.00    +0.000 NA
ENDBRANCH  15  21
ENDBRANCH   1  15
TORSDOF 4
ENDMDL
MODEL 9
REMARK VINA RESULT:      -7.5      1.276      1.981
REMARK  Name = 
REMARK  5 active torsions:
REMARK  status: ('A' for Active; 'I' for Inactive)
REMARK    1  A    between atoms: C_1  and  N_2
REMARK    2  A    between atoms: C_4  and  S_5
REMARK    3  A    between atoms: S_5  and  N_8
REMARK    4  A    between atoms: C_9  and  C_11
REMARK    5  A    between atoms: C_11  and  C_12
REMARK                            x       y       z     vdW  Elec       q    Type
REMARK                         _______ _______ _______ _____ _____    ______ ____
ROOT
ATOM      1  N   UNL     1       4.901   5.510  17.500  0.00  0.00    +0.000 N 
ATOM      2  C   UNL     1       4.559   5.508  18.862  0.00  0.00    +0.000 C 
ATOM      3  O   UNL     1       5.395   5.586  19.753  0.00  0.00    +0.000 OA
ATOM      4  H   UNL     1       4.202   5.290  16.798  0.00  0.00    +0.000 HD
ENDROOT
BRANCH   2   5
ATOM      5  C   UNL     1       2.979   5.429  19.069  0.00  0.00    +0.000 C 
ATOM      6  C   UNL     1       2.216   4.476  18.072  0.00  0.00    +0.000 C 
ATOM      7  C   UNL     1       1.357   4.010  19.260  0.00  0.00    +0.000 C 
ATOM      8  C   UNL     1       2.528   4.398  20.173  0.00  0.00    +0.000 C 
BRANCH   5   9
ATOM      9  C   UNL     1       2.465   6.957  19.149  0.00  0.00    +0.000 A 
ATOM     10  C   UNL     1       1.915   7.470  20.345  0.00  0.00    +0.000 A 
ATOM     11  C   UNL     1       1.263   8.705  20.394  0.00  0.00    +0.000 A 
ATOM     12  C   UNL     1       1.167   9.483  19.246  0.00  0.00    +0.000 A 
ATOM     13  C   UNL     1       1.775   9.053  18.074  0.00  0.00    +0.000 A 
ATOM     14  C   UNL     1       2.425   7.815  18.032  0.00  0.00    +0.000 A 
ENDBRANCH   5   9
ENDBRANCH   2   5
BRANCH   1  15
ATOM     15  S   UNL     1       6.436   5.549  16.876  0.00  0.00    +0.000 S 
ATOM     16  O   UNL     1       7.188   4.597  17.667  0.00  0.00    +0.000 OA
ATOM     17  O   UNL     1       6.878   6.915  16.723  0.00  0.00    +0.000 OA
BRANCH  15  21
ATOM     18  C   UNL     1       7.372   4.406  11.871  0.00  0.00    +0.000 C 
ATOM     19  N   UNL     1       6.849   4.403  13.215  0.00  0.00    +0.000 N 
ATOM     20  C   UNL     1       7.340   5.094  14.283  0.00  0.00    +0.000 A 
ATOM     21  C   UNL     1       6.436   4.885  15.301  0.00  0.00    +0.000 A 
ATOM     22  C   UNL     1       5.478   4.008  14.771  0.00  0.00    +0.000 A 
ATOM     23  N   UNL     1       5.722   3.715  13.489  0.00  0.00    +0.000 NA
ENDBRANCH  15  21
ENDBRANCH   1  15
TORSDOF 4
ENDMDL
