MODEL 1
REMARK VINA RESULT:      -8.8      0.000      0.000
REMARK  Name = 
REMARK  6 active torsions:
REMARK  status: ('A' for Active; 'I' for Inactive)
REMARK    1  A    between atoms: C_1  and  C_2
REMARK    2  A    between atoms: N_10  and  C_11
REMARK    3  A    between atoms: C_11  and  C_12
REMARK    4  A    between atoms: C_12  and  C_13
REMARK    5  A    between atoms: C_13  and  C_14
REMARK    6  A    between atoms: C_14  and  C_16
REMARK                            x       y       z     vdW  Elec       q    Type
REMARK                         _______ _______ _______ _____ _____    ______ ____
ROOT
ATOM      1  C   UNL     1       4.397   2.650  11.196  0.00  0.00    +0.000 C 
ATOM      2  C   UNL     1       5.323   3.400  12.111  0.00  0.00    +0.000 A 
ATOM      3  C   UNL     1       6.660   3.648  11.717  0.00  0.00    +0.000 A 
ATOM      4  C   UNL     1       7.534   4.351  12.560  0.00  0.00    +0.000 A 
ATOM      5  C   UNL     1       7.053   4.789  13.789  0.00  0.00    +0.000 A 
ATOM      6  C   UNL     1       5.755   4.545  14.188  0.00  0.00    +0.000 A 
ATOM      7  C   UNL     1       4.858   3.868  13.361  0.00  0.00    +0.000 A 
ATOM      8  C   UNL     1       5.557   5.247  15.489  0.00  0.00    +0.000 C 
ATOM      9  C   UNL     1       4.693   4.729  16.642  0.00  0.00    +0.000 C 
ATOM     10  N   UNL     1       4.785   5.675  17.799  0.00  0.00    +0.000 NA
ATOM     11  C   UNL     1       6.195   5.870  18.240  0.00  0.00    +0.000 C 
ATOM     12  C   UNL     1       7.131   6.343  17.091  0.00  0.00    +0.000 C 
ATOM     13  C   UNL     1       7.005   5.313  15.979  0.00  0.00    +0.000 C 
ATOM     14  N   UNL     1       7.777   5.489  14.778  0.00  0.00    +0.000 N 
ATOM     15  H   UNL     1       8.798   5.616  14.746  0.00  0.00    +0.000 HD
ENDROOT
BRANCH  10  16
ATOM     16  C   UNL     1       4.108   6.988  17.609  0.00  0.00    +0.000 C 
BRANCH  16  17
ATOM     17  C   UNL     1       2.650   7.001  18.094  0.00  0.00    +0.000 C 
BRANCH  17  18
ATOM     18  C   UNL     1       2.570   6.839  19.617  0.00  0.00    +0.000 C 
BRANCH  18  19
ATOM     19  C   UNL     1       1.937   5.535  20.052  0.00  0.00    +0.000 C 
ATOM     20  O   UNL     1       0.975   5.550  20.805  0.00  0.00    +0.000 OA
BRANCH  19  21
ATOM     21  C   UNL     1       2.456   4.234  19.544  0.00  0.00    +0.000 A 
ATOM     22  C   UNL     1       1.770   3.512  18.545  0.00  0.00    +0.000 A 
ATOM     23  C   UNL     1       2.257   2.280  18.099  0.00  0.00    +0.000 A 
ATOM     24  C   UNL     1       3.429   1.752  18.639  0.00  0.00    +0.000 A 
ATOM     25  F   UNL     1       3.892   0.552  18.209  0.00  0.00    +0.000 F 
ATOM     26  C   UNL     1       4.120   2.457  19.625  0.00  0.00    +0.000 A 
ATOM     27  C   UNL     1       3.642   3.690  20.076  0.00  0.00    +0.000 A 
ENDBRANCH  19  21
ENDBRANCH  18  19
ENDBRANCH  17  18
ENDBRANCH  16  17
ENDBRANCH  10  16
TORSDOF 5
ENDMDL
MODEL 2
REMARK VINA RESULT:      -8.2      5.228      8.542
REMARK  Name = 
REMARK  6 active torsions:
REMARK  status: ('A' for Active; 'I' for Inactive)
REMARK    1  A    between atoms: C_1  and  C_2
REMARK    2  A    between atoms: N_10  and  C_11
REMARK    3  A    between atoms: C_11  and  C_12
REMARK    4  A    between atoms: C_12  and  C_13
REMARK    5  A    between atoms: C_13  and  C_14
REMARK    6  A    between atoms: C_14  and  C_16
REMARK                            x       y       z     vdW  Elec       q    Type
REMARK                         _______ _______ _______ _____ _____    ______ ____
ROOT
ATOM      1  C   UNL     1       1.707   2.772  21.698  0.00  0.00    +0.000 C 
ATOM      2  C   UNL     1       2.109   3.066  20.281  0.00  0.00    +0.000 A 
ATOM      3  C   UNL     1       1.257   2.699  19.212  0.00  0.00    +0.000 A 
ATOM      4  C   UNL     1       1.619   2.972  17.884  0.00  0.00    +0.000 A 
ATOM      5  C   UNL     1       2.835   3.605  17.650  0.00  0.00    +0.000 A 
ATOM      6  C   UNL     1       3.679   3.959  18.683  0.00  0.00    +0.000 A 
ATOM      7  C   UNL     1       3.334   3.720  20.014  0.00  0.00    +0.000 A 
ATOM      8  C   UNL     1       4.819   4.708  18.081  0.00  0.00    +0.000 C 
ATOM      9  C   UNL     1       6.266   4.646  18.573  0.00  0.00    +0.000 C 
ATOM     10  N   UNL     1       7.133   5.485  17.686  0.00  0.00    +0.000 NA
ATOM     11  C   UNL     1       7.039   5.058  16.261  0.00  0.00    +0.000 C 
ATOM     12  C   UNL     1       5.579   5.049  15.725  0.00  0.00    +0.000 C 
ATOM     13  C   UNL     1       4.782   4.149  16.656  0.00  0.00    +0.000 C 
ATOM     14  N   UNL     1       3.382   3.944  16.394  0.00  0.00    +0.000 N 
ATOM     15  H   UNL     1       2.992   3.613  15.500  0.00  0.00    +0.000 HD
ENDROOT
BRANCH  10  16
ATOM     16  C   UNL     1       6.939   6.957  17.807  0.00  0.00    +0.000 C 
BRANCH  16  17
ATOM     17  C   UNL     1       8.237   7.723  18.106  0.00  0.00    +0.000 C 
BRANCH  17  18
ATOM     18  C   UNL     1       8.074   9.222  17.823  0.00  0.00    +0.000 C 
BRANCH  18  19
ATOM     19  C   UNL     1       8.908  10.100  18.731  0.00  0.00    +0.000 C 
ATOM     20  O   UNL     1       9.129   9.747  19.880  0.00  0.00    +0.000 OA
BRANCH  19  21
ATOM     21  C   UNL     1       9.490  11.375  18.227  0.00  0.00    +0.000 A 
ATOM     22  C   UNL     1       8.710  12.546  18.124  0.00  0.00    +0.000 A 
ATOM     23  C   UNL     1       9.264  13.727  17.623  0.00  0.00    +0.000 A 
ATOM     24  C   UNL     1      10.598  13.759  17.220  0.00  0.00    +0.000 A 
ATOM     25  F   UNL     1      11.129  14.906  16.725  0.00  0.00    +0.000 F 
ATOM     26  C   UNL     1      11.384  12.610  17.319  0.00  0.00    +0.000 A 
ATOM     27  C   UNL     1      10.838  11.425  17.820  0.00  0.00    +0.000 A 
ENDBRANCH  19  21
ENDBRANCH  18  19
ENDBRANCH  17  18
ENDBRANCH  16  17
ENDBRANCH  10  16
TORSDOF 5
ENDMDL
MODEL 3
REMARK VINA RESULT:      -7.8      3.694      5.099
REMARK  Name = 
REMARK  6 active torsions:
REMARK  status: ('A' for Active; 'I' for Inactive)
REMARK    1  A    between atoms: C_1  and  C_2
REMARK    2  A    between atoms: N_10  and  C_11
REMARK    3  A    between atoms: C_11  and  C_12
REMARK    4  A    between atoms: C_12  and  C_13
REMARK    5  A    between atoms: C_13  and  C_14
REMARK    6  A    between atoms: C_14  and  C_16
REMARK                            x       y       z     vdW  Elec       q    Type
REMARK                         _______ _______ _______ _____ _____    ______ ____
ROOT
ATOM      1  C   UNL     1       5.634   2.480  11.404  0.00  0.00    +0.000 C 
ATOM      2  C   UNL     1       6.116   3.414  12.477  0.00  0.00    +0.000 A 
ATOM      3  C   UNL     1       7.287   4.183  12.273  0.00  0.00    +0.000 A 
ATOM      4  C   UNL     1       7.746   5.063  13.266  0.00  0.00    +0.000 A 
ATOM      5  C   UNL     1       7.023   5.152  14.451  0.00  0.00    +0.000 A 
ATOM      6  C   UNL     1       5.887   4.400  14.665  0.00  0.00    +0.000 A 
ATOM      7  C   UNL     1       5.395   3.534  13.688  0.00  0.00    +0.000 A 
ATOM      8  C   UNL     1       5.317   4.831  15.975  0.00  0.00    +0.000 C 
ATOM      9  C   UNL     1       4.615   3.906  16.971  0.00  0.00    +0.000 C 
ATOM     10  N   UNL     1       4.232   4.684  18.192  0.00  0.00    +0.000 NA
ATOM     11  C   UNL     1       5.415   5.339  18.820  0.00  0.00    +0.000 C 
ATOM     12  C   UNL     1       6.200   6.249  17.833  0.00  0.00    +0.000 C 
ATOM     13  C   UNL     1       6.580   5.375  16.648  0.00  0.00    +0.000 C 
ATOM     14  N   UNL     1       7.331   5.957  15.568  0.00  0.00    +0.000 N 
ATOM     15  H   UNL     1       8.226   6.457  15.675  0.00  0.00    +0.000 HD
ENDROOT
BRANCH  10  16
ATOM     16  C   UNL     1       3.126   5.663  18.008  0.00  0.00    +0.000 C 
BRANCH  16  17
ATOM     17  C   UNL     1       2.714   6.375  19.305  0.00  0.00    +0.000 C 
BRANCH  17  18
ATOM     18  C   UNL     1       2.267   7.816  19.031  0.00  0.00    +0.000 C 
BRANCH  18  19
ATOM     19  C   UNL     1       1.512   8.442  20.183  0.00  0.00    +0.000 C 
ATOM     20  O   UNL     1       1.697   8.036  21.321  0.00  0.00    +0.000 OA
BRANCH  19  21
ATOM     21  C   UNL     1       0.568   9.570  19.947  0.00  0.00    +0.000 A 
ATOM     22  C   UNL     1      -0.002  10.285  21.022  0.00  0.00    +0.000 A 
ATOM     23  C   UNL     1      -0.906  11.324  20.783  0.00  0.00    +0.000 A 
ATOM     24  C   UNL     1      -1.254  11.665  19.477  0.00  0.00    +0.000 A 
ATOM     25  F   UNL     1      -2.139  12.667  19.250  0.00  0.00    +0.000 F 
ATOM     26  C   UNL     1      -0.695  10.969  18.404  0.00  0.00    +0.000 A 
ATOM     27  C   UNL     1       0.212   9.930  18.633  0.00  0.00    +0.000 A 
ENDBRANCH  19  21
ENDBRANCH  18  19
ENDBRANCH  17  18
ENDBRANCH  16  17
ENDBRANCH  10  16
TORSDOF 5
ENDMDL
MODEL 4
REMARK VINA RESULT:      -7.8      3.509      4.858
REMARK  Name = 
REMARK  6 active torsions:
REMARK  status: ('A' for Active; 'I' for Inactive)
REMARK    1  A    between atoms: C_1  and  C_2
REMARK    2  A    between atoms: N_10  and  C_11
REMARK    3  A    between atoms: C_11  and  C_12
REMARK    4  A    between atoms: C_12  and  C_13
REMARK    5  A    between atoms: C_13  and  C_14
REMARK    6  A    between atoms: C_14  and  C_16
REMARK                            x       y       z     vdW  Elec       q    Type
REMARK                         _______ _______ _______ _____ _____    ______ ____
ROOT
ATOM      1  C   UNL     1       4.453   2.760  11.150  0.00  0.00    +0.000 C 
ATOM      2  C   UNL     1       5.338   3.465  12.138  0.00  0.00    +0.000 A 
ATOM      3  C   UNL     1       6.683   3.753  11.804  0.00  0.00    +0.000 A 
ATOM      4  C   UNL     1       7.519   4.416  12.716  0.00  0.00    +0.000 A 
ATOM      5  C   UNL     1       6.992   4.774  13.952  0.00  0.00    +0.000 A 
ATOM      6  C   UNL     1       5.685   4.490  14.292  0.00  0.00    +0.000 A 
ATOM      7  C   UNL     1       4.825   3.852  13.397  0.00  0.00    +0.000 A 
ATOM      8  C   UNL     1       5.435   5.112  15.625  0.00  0.00    +0.000 C 
ATOM      9  C   UNL     1       4.541   4.516  16.715  0.00  0.00    +0.000 C 
ATOM     10  N   UNL     1       4.581   5.393  17.928  0.00  0.00    +0.000 NA
ATOM     11  C   UNL     1       5.974   5.579  18.427  0.00  0.00    +0.000 C 
ATOM     12  C   UNL     1       6.939   6.131  17.339  0.00  0.00    +0.000 C 
ATOM     13  C   UNL     1       6.865   5.167  16.166  0.00  0.00    +0.000 C 
ATOM     14  N   UNL     1       7.673   5.424  15.003  0.00  0.00    +0.000 N 
ATOM     15  H   UNL     1       8.693   5.565  15.013  0.00  0.00    +0.000 HD
ENDROOT
BRANCH  10  16
ATOM     16  C   UNL     1       3.892   6.706  17.794  0.00  0.00    +0.000 C 
BRANCH  16  17
ATOM     17  C   UNL     1       3.021   7.068  19.006  0.00  0.00    +0.000 C 
BRANCH  17  18
ATOM     18  C   UNL     1       1.706   7.726  18.568  0.00  0.00    +0.000 C 
BRANCH  18  19
ATOM     19  C   UNL     1       1.600   9.183  18.965  0.00  0.00    +0.000 C 
ATOM     20  O   UNL     1       2.107  10.041  18.258  0.00  0.00    +0.000 OA
BRANCH  19  21
ATOM     21  C   UNL     1       0.857   9.582  20.192  0.00  0.00    +0.000 A 
ATOM     22  C   UNL     1       0.970   8.845  21.390  0.00  0.00    +0.000 A 
ATOM     23  C   UNL     1       0.244   9.217  22.524  0.00  0.00    +0.000 A 
ATOM     24  C   UNL     1      -0.600  10.326  22.484  0.00  0.00    +0.000 A 
ATOM     25  F   UNL     1      -1.310  10.679  23.585  0.00  0.00    +0.000 F 
ATOM     26  C   UNL     1      -0.719  11.068  21.308  0.00  0.00    +0.000 A 
ATOM     27  C   UNL     1       0.004  10.703  20.168  0.00  0.00    +0.000 A 
ENDBRANCH  19  21
ENDBRANCH  18  19
ENDBRANCH  17  18
ENDBRANCH  16  17
ENDBRANCH  10  16
TORSDOF 5
ENDMDL
MODEL 5
REMARK VINA RESULT:      -7.8      3.223      4.499
REMARK  Name = 
REMARK  6 active torsions:
REMARK  status: ('A' for Active; 'I' for Inactive)
REMARK    1  A    between atoms: C_1  and  C_2
REMARK    2  A    between atoms: N_10  and  C_11
REMARK    3  A    between atoms: C_11  and  C_12
REMARK    4  A    between atoms: C_12  and  C_13
REMARK    5  A    between atoms: C_13  and  C_14
REMARK    6  A    between atoms: C_14  and  C_16
REMARK                            x       y       z     vdW  Elec       q    Type
REMARK                         _______ _______ _______ _____ _____    ______ ____
ROOT
ATOM      1  C   UNL     1       4.426   2.801  11.294  0.00  0.00    +0.000 C 
ATOM      2  C   UNL     1       5.365   3.500  12.234  0.00  0.00    +0.000 A 
ATOM      3  C   UNL     1       6.628   3.944  11.774  0.00  0.00    +0.000 A 
ATOM      4  C   UNL     1       7.514   4.602  12.642  0.00  0.00    +0.000 A 
ATOM      5  C   UNL     1       7.118   4.799  13.960  0.00  0.00    +0.000 A 
ATOM      6  C   UNL     1       5.895   4.361  14.423  0.00  0.00    +0.000 A 
ATOM      7  C   UNL     1       4.985   3.724  13.578  0.00  0.00    +0.000 A 
ATOM      8  C   UNL     1       5.763   4.837  15.831  0.00  0.00    +0.000 C 
ATOM      9  C   UNL     1       5.069   4.065  16.955  0.00  0.00    +0.000 C 
ATOM     10  N   UNL     1       5.188   4.832  18.236  0.00  0.00    +0.000 NA
ATOM     11  C   UNL     1       6.611   5.108  18.582  0.00  0.00    +0.000 C 
ATOM     12  C   UNL     1       7.380   5.843  17.447  0.00  0.00    +0.000 C 
ATOM     13  C   UNL     1       7.241   4.982  16.202  0.00  0.00    +0.000 C 
ATOM     14  N   UNL     1       7.869   5.417  14.983  0.00  0.00    +0.000 N 
ATOM     15  H   UNL     1       8.867   5.654  14.886  0.00  0.00    +0.000 HD
ENDROOT
BRANCH  10  16
ATOM     16  C   UNL     1       4.378   6.079  18.314  0.00  0.00    +0.000 C 
BRANCH  16  17
ATOM     17  C   UNL     1       2.921   5.893  17.863  0.00  0.00    +0.000 C 
BRANCH  17  18
ATOM     18  C   UNL     1       1.945   6.521  18.866  0.00  0.00    +0.000 C 
BRANCH  18  19
ATOM     19  C   UNL     1       1.896   8.032  18.793  0.00  0.00    +0.000 C 
ATOM     20  O   UNL     1       2.350   8.606  17.815  0.00  0.00    +0.000 OA
BRANCH  19  21
ATOM     21  C   UNL     1       1.269   8.824  19.887  0.00  0.00    +0.000 A 
ATOM     22  C   UNL     1       0.698  10.090  19.641  0.00  0.00    +0.000 A 
ATOM     23  C   UNL     1       0.138  10.832  20.685  0.00  0.00    +0.000 A 
ATOM     24  C   UNL     1       0.137  10.325  21.983  0.00  0.00    +0.000 A 
ATOM     25  F   UNL     1      -0.399  11.053  22.995  0.00  0.00    +0.000 F 
ATOM     26  C   UNL     1       0.695   9.072  22.242  0.00  0.00    +0.000 A 
ATOM     27  C   UNL     1       1.256   8.323  21.204  0.00  0.00    +0.000 A 
ENDBRANCH  19  21
ENDBRANCH  18  19
ENDBRANCH  17  18
ENDBRANCH  16  17
ENDBRANCH  10  16
TORSDOF 5
ENDMDL
MODEL 6
REMARK VINA RESULT:      -7.7      0.404      1.035
REMARK  Name = 
REMARK  6 active torsions:
REMARK  status: ('A' for Active; 'I' for Inactive)
REMARK    1  A    between atoms: C_1  and  C_2
REMARK    2  A    between atoms: N_10  and  C_11
REMARK    3  A    between atoms: C_11  and  C_12
REMARK    4  A    between atoms: C_12  and  C_13
REMARK    5  A    between atoms: C_13  and  C_14
REMARK    6  A    between atoms: C_14  and  C_16
REMARK                            x       y       z     vdW  Elec       q    Type
REMARK                         _______ _______ _______ _____ _____    ______ ____
ROOT
ATOM      1  C   UNL     1       4.006   2.740  11.013  0.00  0.00    +0.000 C 
ATOM      2  C   UNL     1       5.011   3.393  11.916  0.00  0.00    +0.000 A 
ATOM      3  C   UNL     1       6.335   3.611  11.463  0.00  0.00    +0.000 A 
ATOM      4  C   UNL     1       7.283   4.224  12.296  0.00  0.00    +0.000 A 
ATOM      5  C   UNL     1       6.889   4.603  13.574  0.00  0.00    +0.000 A 
ATOM      6  C   UNL     1       5.605   4.387  14.031  0.00  0.00    +0.000 A 
ATOM      7  C   UNL     1       4.636   3.800  13.217  0.00  0.00    +0.000 A 
ATOM      8  C   UNL     1       5.509   5.014  15.381  0.00  0.00    +0.000 C 
ATOM      9  C   UNL     1       4.687   4.461  16.548  0.00  0.00    +0.000 C 
ATOM     10  N   UNL     1       4.883   5.328  17.753  0.00  0.00    +0.000 NA
ATOM     11  C   UNL     1       6.323   5.438  18.124  0.00  0.00    +0.000 C 
ATOM     12  C   UNL     1       7.214   5.944  16.953  0.00  0.00    +0.000 C 
ATOM     13  C   UNL     1       6.983   4.990  15.791  0.00  0.00    +0.000 C 
ATOM     14  N   UNL     1       7.695   5.211  14.560  0.00  0.00    +0.000 N 
ATOM     15  H   UNL     1       8.718   5.298  14.478  0.00  0.00    +0.000 HD
ENDROOT
BRANCH  10  16
ATOM     16  C   UNL     1       4.254   6.676  17.681  0.00  0.00    +0.000 C 
BRANCH  16  17
ATOM     17  C   UNL     1       3.627   7.130  19.008  0.00  0.00    +0.000 C 
BRANCH  17  18
ATOM     18  C   UNL     1       2.137   6.771  19.069  0.00  0.00    +0.000 C 
BRANCH  18  19
ATOM     19  C   UNL     1       1.846   5.550  19.916  0.00  0.00    +0.000 C 
ATOM     20  O   UNL     1       1.154   5.659  20.917  0.00  0.00    +0.000 OA
BRANCH  19  21
ATOM     21  C   UNL     1       2.370   4.212  19.523  0.00  0.00    +0.000 A 
ATOM     22  C   UNL     1       3.504   3.656  20.152  0.00  0.00    +0.000 A 
ATOM     23  C   UNL     1       3.999   2.412  19.752  0.00  0.00    +0.000 A 
ATOM     24  C   UNL     1       3.373   1.705  18.727  0.00  0.00    +0.000 A 
ATOM     25  F   UNL     1       3.862   0.501  18.336  0.00  0.00    +0.000 F 
ATOM     26  C   UNL     1       2.247   2.240  18.098  0.00  0.00    +0.000 A 
ATOM     27  C   UNL     1       1.745   3.484  18.492  0.00  0.00    +0.000 A 
ENDBRANCH  19  21
ENDBRANCH  18  19
ENDBRANCH  17  18
ENDBRANCH  16  17
ENDBRANCH  10  16
TORSDOF 5
ENDMDL
MODEL 7
REMARK VINA RESULT:      -7.6      5.267      8.349
REMARK  Name = 
REMARK  6 active torsions:
REMARK  status: ('A' for Active; 'I' for Inactive)
REMARK    1  A    between atoms: C_1  and  C_2
REMARK    2  A    between atoms: N_10  and  C_11
REMARK    3  A    between atoms: C_11  and  C_12
REMARK    4  A    between atoms: C_12  and  C_13
REMARK    5  A    between atoms: C_13  and  C_14
REMARK    6  A    between atoms: C_14  and  C_16
REMARK                            x       y       z     vdW  Elec       q    Type
REMARK                         _______ _______ _______ _____ _____    ______ ____
ROOT
ATOM      1  C   UNL     1      -3.538  10.040  14.323  0.00  0.00    +0.000 C 
ATOM      2  C   UNL     1      -3.405  10.538  15.733  0.00  0.00    +0.000 A 
ATOM      3  C   UNL     1      -4.441  11.311  16.312  0.00  0.00    +0.000 A 
ATOM      4  C   UNL     1      -4.330  11.779  17.631  0.00  0.00    +0.000 A 
ATOM      5  C   UNL     1      -3.179  11.468  18.345  0.00  0.00    +0.000 A 
ATOM      6  C   UNL     1      -2.159  10.724  17.789  0.00  0.00    +0.000 A 
ATOM      7  C   UNL     1      -2.251  10.227  16.488  0.00  0.00    +0.000 A 
ATOM      8  C   UNL     1      -1.151  10.491  18.863  0.00  0.00    +0.000 C 
ATOM      9  C   UNL     1       0.363  10.434  18.645  0.00  0.00    +0.000 C 
ATOM     10  N   UNL     1       1.051  10.241  19.962  0.00  0.00    +0.000 NA
ATOM     11  C   UNL     1       0.694  11.316  20.931  0.00  0.00    +0.000 C 
ATOM     12  C   UNL     1      -0.840  11.455  21.147  0.00  0.00    +0.000 C 
ATOM     13  C   UNL     1      -1.451  11.684  19.773  0.00  0.00    +0.000 C 
ATOM     14  N   UNL     1      -2.874  11.860  19.666  0.00  0.00    +0.000 N 
ATOM     15  H   UNL     1      -3.424  12.557  20.189  0.00  0.00    +0.000 HD
ENDROOT
BRANCH  10  16
ATOM     16  C   UNL     1       0.882   8.898  20.582  0.00  0.00    +0.000 C 
BRANCH  16  17
ATOM     17  C   UNL     1       2.007   7.914  20.228  0.00  0.00    +0.000 C 
BRANCH  17  18
ATOM     18  C   UNL     1       2.236   7.855  18.713  0.00  0.00    +0.000 C 
BRANCH  18  19
ATOM     19  C   UNL     1       3.099   6.689  18.278  0.00  0.00    +0.000 C 
ATOM     20  O   UNL     1       4.141   6.898  17.675  0.00  0.00    +0.000 OA
BRANCH  19  21
ATOM     21  C   UNL     1       2.705   5.291  18.608  0.00  0.00    +0.000 A 
ATOM     22  C   UNL     1       1.803   4.573  17.795  0.00  0.00    +0.000 A 
ATOM     23  C   UNL     1       1.423   3.272  18.133  0.00  0.00    +0.000 A 
ATOM     24  C   UNL     1       1.935   2.668  19.281  0.00  0.00    +0.000 A 
ATOM     25  F   UNL     1       1.556   1.408  19.611  0.00  0.00    +0.000 F 
ATOM     26  C   UNL     1       2.831   3.364  20.093  0.00  0.00    +0.000 A 
ATOM     27  C   UNL     1       3.218   4.665  19.761  0.00  0.00    +0.000 A 
ENDBRANCH  19  21
ENDBRANCH  18  19
ENDBRANCH  17  18
ENDBRANCH  16  17
ENDBRANCH  10  16
TORSDOF 5
ENDMDL
MODEL 8
REMARK VINA RESULT:      -7.6      5.343      8.508
REMARK  Name = 
REMARK  6 active torsions:
REMARK  status: ('A' for Active; 'I' for Inactive)
REMARK    1  A    between atoms: C_1  and  C_2
REMARK    2  A    between atoms: N_10  and  C_11
REMARK    3  A    between atoms: C_11  and  C_12
REMARK    4  A    between atoms: C_12  and  C_13
REMARK    5  A    between atoms: C_13  and  C_14
REMARK    6  A    between atoms: C_14  and  C_16
REMARK                            x       y       z     vdW  Elec       q    Type
REMARK                         _______ _______ _______ _____ _____    ______ ____
ROOT
ATOM      1  C   UNL     1      -3.293   9.890  14.339  0.00  0.00    +0.000 C 
ATOM      2  C   UNL     1      -3.283  10.470  15.724  0.00  0.00    +0.000 A 
ATOM      3  C   UNL     1      -4.335  11.319  16.144  0.00  0.00    +0.000 A 
ATOM      4  C   UNL     1      -4.339  11.865  17.437  0.00  0.00    +0.000 A 
ATOM      5  C   UNL     1      -3.284  11.552  18.287  0.00  0.00    +0.000 A 
ATOM      6  C   UNL     1      -2.248  10.733  17.886  0.00  0.00    +0.000 A 
ATOM      7  C   UNL     1      -2.229  10.160  16.614  0.00  0.00    +0.000 A 
ATOM      8  C   UNL     1      -1.368  10.527  19.072  0.00  0.00    +0.000 C 
ATOM      9  C   UNL     1       0.155  10.394  19.021  0.00  0.00    +0.000 C 
ATOM     10  N   UNL     1       0.693  10.256  20.411  0.00  0.00    +0.000 NA
ATOM     11  C   UNL     1       0.290  11.404  21.273  0.00  0.00    +0.000 C 
ATOM     12  C   UNL     1      -1.250  11.619  21.316  0.00  0.00    +0.000 C 
ATOM     13  C   UNL     1      -1.704  11.787  19.875  0.00  0.00    +0.000 C 
ATOM     14  N   UNL     1      -3.099  12.013  19.608  0.00  0.00    +0.000 N 
ATOM     15  H   UNL     1      -3.666  12.764  20.028  0.00  0.00    +0.000 HD
ENDROOT
BRANCH  10  16
ATOM     16  C   UNL     1       0.398   8.963  21.088  0.00  0.00    +0.000 C 
BRANCH  16  17
ATOM     17  C   UNL     1       1.621   8.040  21.206  0.00  0.00    +0.000 C 
BRANCH  17  18
ATOM     18  C   UNL     1       2.070   7.536  19.829  0.00  0.00    +0.000 C 
BRANCH  18  19
ATOM     19  C   UNL     1       2.388   6.056  19.804  0.00  0.00    +0.000 C 
ATOM     20  O   UNL     1       2.003   5.339  20.716  0.00  0.00    +0.000 OA
BRANCH  19  21
ATOM     21  C   UNL     1       3.137   5.460  18.663  0.00  0.00    +0.000 A 
ATOM     22  C   UNL     1       2.910   4.130  18.253  0.00  0.00    +0.000 A 
ATOM     23  C   UNL     1       3.641   3.577  17.198  0.00  0.00    +0.000 A 
ATOM     24  C   UNL     1       4.603   4.340  16.536  0.00  0.00    +0.000 A 
ATOM     25  F   UNL     1       5.316   3.797  15.518  0.00  0.00    +0.000 F 
ATOM     26  C   UNL     1       4.835   5.659  16.927  0.00  0.00    +0.000 A 
ATOM     27  C   UNL     1       4.108   6.220  17.981  0.00  0.00    +0.000 A 
ENDBRANCH  19  21
ENDBRANCH  18  19
ENDBRANCH  17  18
ENDBRANCH  16  17
ENDBRANCH  10  16
TORSDOF 5
ENDMDL
MODEL 9
REMARK VINA RESULT:      -7.5      1.539      1.760
REMARK  Name = 
REMARK  6 active torsions:
REMARK  status: ('A' for Active; 'I' for Inactive)
REMARK    1  A    between atoms: C_1  and  C_2
REMARK    2  A    between atoms: N_10  and  C_11
REMARK    3  A    between atoms: C_11  and  C_12
REMARK    4  A    between atoms: C_12  and  C_13
REMARK    5  A    between atoms: C_13  and  C_14
REMARK    6  A    between atoms: C_14  and  C_16
REMARK                            x       y       z     vdW  Elec       q    Type
REMARK                         _______ _______ _______ _____ _____    ______ ____
ROOT
ATOM      1  C   UNL     1       4.309   2.650  11.155  0.00  0.00    +0.000 C 
ATOM      2  C   UNL     1       5.259   3.380  12.059  0.00  0.00    +0.000 A 
ATOM      3  C   UNL     1       6.575   3.667  11.620  0.00  0.00    +0.000 A 
ATOM      4  C   UNL     1       7.472   4.353  12.454  0.00  0.00    +0.000 A 
ATOM      5  C   UNL     1       7.035   4.734  13.719  0.00  0.00    +0.000 A 
ATOM      6  C   UNL     1       5.760   4.450  14.161  0.00  0.00    +0.000 A 
ATOM      7  C   UNL     1       4.839   3.790  13.346  0.00  0.00    +0.000 A 
ATOM      8  C   UNL     1       5.605   5.098  15.496  0.00  0.00    +0.000 C 
ATOM      9  C   UNL     1       4.799   4.520  16.662  0.00  0.00    +0.000 C 
ATOM     10  N   UNL     1       4.923   5.422  17.851  0.00  0.00    +0.000 NA
ATOM     11  C   UNL     1       6.348   5.625  18.241  0.00  0.00    +0.000 C 
ATOM     12  C   UNL     1       7.226   6.159  17.073  0.00  0.00    +0.000 C 
ATOM     13  C   UNL     1       7.071   5.171  15.928  0.00  0.00    +0.000 C 
ATOM     14  N   UNL     1       7.788   5.408  14.703  0.00  0.00    +0.000 N 
ATOM     15  H   UNL     1       8.805   5.554  14.634  0.00  0.00    +0.000 HD
ENDROOT
BRANCH  10  16
ATOM     16  C   UNL     1       4.217   6.728  17.742  0.00  0.00    +0.000 C 
BRANCH  16  17
ATOM     17  C   UNL     1       3.042   6.873  18.720  0.00  0.00    +0.000 C 
BRANCH  17  18
ATOM     18  C   UNL     1       1.706   6.565  18.033  0.00  0.00    +0.000 C 
BRANCH  18  19
ATOM     19  C   UNL     1       1.422   5.083  17.906  0.00  0.00    +0.000 C 
ATOM     20  O   UNL     1       1.087   4.622  16.826  0.00  0.00    +0.000 OA
BRANCH  19  21
ATOM     21  C   UNL     1       1.578   4.178  19.079  0.00  0.00    +0.000 A 
ATOM     22  C   UNL     1       1.557   2.776  18.929  0.00  0.00    +0.000 A 
ATOM     23  C   UNL     1       1.677   1.941  20.044  0.00  0.00    +0.000 A 
ATOM     24  C   UNL     1       1.822   2.489  21.317  0.00  0.00    +0.000 A 
ATOM     25  F   UNL     1       1.930   1.675  22.398  0.00  0.00    +0.000 F 
ATOM     26  C   UNL     1       1.850   3.874  21.481  0.00  0.00    +0.000 A 
ATOM     27  C   UNL     1       1.731   4.717  20.372  0.00  0.00    +0.000 A 
ENDBRANCH  19  21
ENDBRANCH  18  19
ENDBRANCH  17  18
ENDBRANCH  16  17
ENDBRANCH  10  16
TORSDOF 5
ENDMDL
