MODEL 1
REMARK VINA RESULT:      -7.8      0.000      0.000
REMARK  Name = 
REMARK  7 active torsions:
REMARK  status: ('A' for Active; 'I' for Inactive)
REMARK    1  A    between atoms: C_1  and  O_2
REMARK    2  A    between atoms: O_2  and  C_3
REMARK    3  A    between atoms: C_7  and  N_8
REMARK    4  A    between atoms: N_8  and  C_9
REMARK    5  A    between atoms: C_12  and  N_13
REMARK    6  A    between atoms: CA_18  and  C_19
REMARK    7  A    between atoms: C_19  and  OXT_21
REMARK                            x       y       z     vdW  Elec       q    Type
REMARK                         _______ _______ _______ _____ _____    ______ ____
ROOT
ATOM      1  C   UNL     1       2.135   6.302  20.118  0.00  0.00    +0.000 A 
ATOM      2  C   UNL     1       1.224   5.372  20.667  0.00  0.00    +0.000 A 
ATOM      3  C   UNL     1       1.034   4.104  20.120  0.00  0.00    +0.000 A 
ATOM      4  C   UNL     1       1.750   3.708  18.984  0.00  0.00    +0.000 A 
ATOM      5  C   UNL     1       2.676   4.621  18.447  0.00  0.00    +0.000 A 
ATOM      6  N   UNL     1       3.505   4.493  17.357  0.00  0.00    +0.000 N 
ATOM      7  CA  UNL     1       4.248   5.628  17.145  0.00  0.00    +0.000 A 
ATOM      8  C   UNL     1       3.868   6.520  18.138  0.00  0.00    +0.000 A 
ATOM      9  C   UNL     1       2.890   5.893  18.982  0.00  0.00    +0.000 A 
ATOM     10  H   UNL     1       3.558   3.665  16.771  0.00  0.00    +0.000 HD
ENDROOT
BRANCH   4  11
ATOM     11  N   UNL     1       1.501   2.384  18.398  0.00  0.00    +0.000 N 
ATOM     12  O   UNL     1       0.342   1.948  18.412  0.00  0.00    +0.000 OA
ATOM     13  O   UNL     1       2.476   1.787  17.918  0.00  0.00    +0.000 OA
ENDBRANCH   4  11
BRANCH   1  14
ATOM     14  N   UNL     1       2.210   7.569  20.737  0.00  0.00    +0.000 N 
ATOM     15  H   UNL     1       2.991   7.659  21.378  0.00  0.00    +0.000 HD
BRANCH  14  20
ATOM     16  C   UNL     1      -0.288  10.035  21.992  0.00  0.00    +0.000 A 
ATOM     17  C   UNL     1      -0.568  10.726  20.811  0.00  0.00    +0.000 A 
ATOM     18  C   UNL     1       0.076  10.385  19.624  0.00  0.00    +0.000 A 
ATOM     19  C   UNL     1       0.995   9.335  19.611  0.00  0.00    +0.000 A 
ATOM     20  C   UNL     1       1.287   8.626  20.783  0.00  0.00    +0.000 A 
ATOM     21  C   UNL     1       0.653   9.003  21.973  0.00  0.00    +0.000 A 
BRANCH  16  23
ATOM     22  C   UNL     1      -1.476  11.787  23.074  0.00  0.00    +0.000 C 
ATOM     23  O   UNL     1      -1.007  10.444  23.082  0.00  0.00    +0.000 OA
ENDBRANCH  16  23
ENDBRANCH  14  20
ENDBRANCH   1  14
BRANCH   7  24
ATOM     24  C   UNL     1       5.175   5.677  16.038  0.00  0.00    +0.000 C 
ATOM     25  O   UNL     1       5.917   4.760  15.730  0.00  0.00    +0.000 OA
BRANCH  24  26
ATOM     26  OXT UNL     1       5.155   6.848  15.367  0.00  0.00    +0.000 OA
ATOM     27  HXT UNL     1       6.005   7.320  15.375  0.00  0.00    +0.000 HD
ENDBRANCH  24  26
ENDBRANCH   7  24
TORSDOF 6
ENDMDL
MODEL 2
REMARK VINA RESULT:      -7.8      2.350      4.442
REMARK  Name = 
REMARK  7 active torsions:
REMARK  status: ('A' for Active; 'I' for Inactive)
REMARK    1  A    between atoms: C_1  and  O_2
REMARK    2  A    between atoms: O_2  and  C_3
REMARK    3  A    between atoms: C_7  and  N_8
REMARK    4  A    between atoms: N_8  and  C_9
REMARK    5  A    between atoms: C_12  and  N_13
REMARK    6  A    between atoms: CA_18  and  C_19
REMARK    7  A    between atoms: C_19  and  OXT_21
REMARK                            x       y       z     vdW  Elec       q    Type
REMARK                         _______ _______ _______ _____ _____    ______ ____
ROOT
ATOM      1  C   UNL     1       3.491   6.245  17.749  0.00  0.00    +0.000 A 
ATOM      2  C   UNL     1       4.392   6.775  16.797  0.00  0.00    +0.000 A 
ATOM      3  C   UNL     1       5.669   6.249  16.607  0.00  0.00    +0.000 A 
ATOM      4  C   UNL     1       6.109   5.162  17.373  0.00  0.00    +0.000 A 
ATOM      5  C   UNL     1       5.208   4.616  18.305  0.00  0.00    +0.000 A 
ATOM      6  N   UNL     1       5.372   3.560  19.171  0.00  0.00    +0.000 N 
ATOM      7  CA  UNL     1       4.254   3.352  19.941  0.00  0.00    +0.000 A 
ATOM      8  C   UNL     1       3.343   4.324  19.554  0.00  0.00    +0.000 A 
ATOM      9  C   UNL     1       3.921   5.120  18.508  0.00  0.00    +0.000 A 
ATOM     10  H   UNL     1       6.219   3.003  19.243  0.00  0.00    +0.000 HD
ENDROOT
BRANCH   4  11
ATOM     11  N   UNL     1       7.474   4.653  17.188  0.00  0.00    +0.000 N 
ATOM     12  O   UNL     1       7.887   4.498  16.030  0.00  0.00    +0.000 OA
ATOM     13  O   UNL     1       8.131   4.413  18.211  0.00  0.00    +0.000 OA
ENDBRANCH   4  11
BRANCH   1  14
ATOM     14  N   UNL     1       2.241   6.889  17.876  0.00  0.00    +0.000 N 
ATOM     15  H   UNL     1       1.553   6.571  17.201  0.00  0.00    +0.000 HD
BRANCH  14  20
ATOM     16  C   UNL     1       1.304   9.104  20.723  0.00  0.00    +0.000 A 
ATOM     17  C   UNL     1       1.069  10.299  20.041  0.00  0.00    +0.000 A 
ATOM     18  C   UNL     1       1.235  10.366  18.659  0.00  0.00    +0.000 A 
ATOM     19  C   UNL     1       1.623   9.229  17.951  0.00  0.00    +0.000 A 
ATOM     20  C   UNL     1       1.860   8.019  18.616  0.00  0.00    +0.000 A 
ATOM     21  C   UNL     1       1.718   7.978  20.009  0.00  0.00    +0.000 A 
BRANCH  16  23
ATOM     22  C   UNL     1      -0.280   9.150  22.496  0.00  0.00    +0.000 C 
ATOM     23  O   UNL     1       1.077   9.159  22.072  0.00  0.00    +0.000 OA
ENDBRANCH  16  23
ENDBRANCH  14  20
ENDBRANCH   1  14
BRANCH   7  24
ATOM     24  C   UNL     1       4.246   2.283  20.913  0.00  0.00    +0.000 C 
ATOM     25  O   UNL     1       5.157   1.483  21.053  0.00  0.00    +0.000 OA
BRANCH  24  26
ATOM     26  OXT UNL     1       3.122   2.238  21.658  0.00  0.00    +0.000 OA
ATOM     27  HXT UNL     1       2.646   3.084  21.705  0.00  0.00    +0.000 HD
ENDBRANCH  24  26
ENDBRANCH   7  24
TORSDOF 6
ENDMDL
MODEL 3
REMARK VINA RESULT:      -7.8      1.933      4.307
REMARK  Name = 
REMARK  7 active torsions:
REMARK  status: ('A' for Active; 'I' for Inactive)
REMARK    1  A    between atoms: C_1  and  O_2
REMARK    2  A    between atoms: O_2  and  C_3
REMARK    3  A    between atoms: C_7  and  N_8
REMARK    4  A    between atoms: N_8  and  C_9
REMARK    5  A    between atoms: C_12  and  N_13
REMARK    6  A    between atoms: CA_18  and  C_19
REMARK    7  A    between atoms: C_19  and  OXT_21
REMARK                            x       y       z     vdW  Elec       q    Type
REMARK                         _______ _______ _______ _____ _____    ______ ____
ROOT
ATOM      1  C   UNL     1       3.615   6.783  17.565  0.00  0.00    +0.000 A 
ATOM      2  C   UNL     1       4.809   7.450  17.209  0.00  0.00    +0.000 A 
ATOM      3  C   UNL     1       6.023   6.779  17.070  0.00  0.00    +0.000 A 
ATOM      4  C   UNL     1       6.099   5.398  17.288  0.00  0.00    +0.000 A 
ATOM      5  C   UNL     1       4.908   4.725  17.619  0.00  0.00    +0.000 A 
ATOM      6  N   UNL     1       4.695   3.391  17.876  0.00  0.00    +0.000 N 
ATOM      7  CA  UNL     1       3.382   3.134  18.187  0.00  0.00    +0.000 A 
ATOM      8  C   UNL     1       2.734   4.360  18.133  0.00  0.00    +0.000 A 
ATOM      9  C   UNL     1       3.679   5.373  17.757  0.00  0.00    +0.000 A 
ATOM     10  H   UNL     1       5.419   2.679  17.851  0.00  0.00    +0.000 HD
ENDROOT
BRANCH   4  11
ATOM     11  N   UNL     1       7.396   4.718  17.179  0.00  0.00    +0.000 N 
ATOM     12  O   UNL     1       7.868   4.540  16.047  0.00  0.00    +0.000 OA
ATOM     13  O   UNL     1       7.942   4.369  18.236  0.00  0.00    +0.000 OA
ENDBRANCH   4  11
BRANCH   1  14
ATOM     14  N   UNL     1       2.457   7.577  17.714  0.00  0.00    +0.000 N 
ATOM     15  H   UNL     1       2.049   7.865  16.831  0.00  0.00    +0.000 HD
BRANCH  14  20
ATOM     16  C   UNL     1       0.803  10.088  19.918  0.00  0.00    +0.000 A 
ATOM     17  C   UNL     1       0.863   9.420  21.143  0.00  0.00    +0.000 A 
ATOM     18  C   UNL     1       1.430   8.151  21.227  0.00  0.00    +0.000 A 
ATOM     19  C   UNL     1       1.957   7.550  20.083  0.00  0.00    +0.000 A 
ATOM     20  C   UNL     1       1.911   8.204  18.846  0.00  0.00    +0.000 A 
ATOM     21  C   UNL     1       1.310   9.466  18.775  0.00  0.00    +0.000 A 
BRANCH  16  23
ATOM     22  C   UNL     1      -0.246  11.767  21.234  0.00  0.00    +0.000 C 
ATOM     23  O   UNL     1       0.250  11.339  19.972  0.00  0.00    +0.000 OA
ENDBRANCH  16  23
ENDBRANCH  14  20
ENDBRANCH   1  14
BRANCH   7  24
ATOM     24  C   UNL     1       2.972   1.782  18.491  0.00  0.00    +0.000 C 
ATOM     25  O   UNL     1       3.749   0.856  18.659  0.00  0.00    +0.000 OA
BRANCH  24  26
ATOM     26  OXT UNL     1       1.634   1.626  18.567  0.00  0.00    +0.000 OA
ATOM     27  HXT UNL     1       1.135   2.456  18.475  0.00  0.00    +0.000 HD
ENDBRANCH  24  26
ENDBRANCH   7  24
TORSDOF 6
ENDMDL
MODEL 4
REMARK VINA RESULT:      -7.8      3.308      5.891
REMARK  Name = 
REMARK  7 active torsions:
REMARK  status: ('A' for Active; 'I' for Inactive)
REMARK    1  A    between atoms: C_1  and  O_2
REMARK    2  A    between atoms: O_2  and  C_3
REMARK    3  A    between atoms: C_7  and  N_8
REMARK    4  A    between atoms: N_8  and  C_9
REMARK    5  A    between atoms: C_12  and  N_13
REMARK    6  A    between atoms: CA_18  and  C_19
REMARK    7  A    between atoms: C_19  and  OXT_21
REMARK                            x       y       z     vdW  Elec       q    Type
REMARK                         _______ _______ _______ _____ _____    ______ ____
ROOT
ATOM      1  C   UNL     1       5.552   3.956  17.797  0.00  0.00    +0.000 A 
ATOM      2  C   UNL     1       5.377   3.123  16.668  0.00  0.00    +0.000 A 
ATOM      3  C   UNL     1       5.923   3.433  15.423  0.00  0.00    +0.000 A 
ATOM      4  C   UNL     1       6.670   4.604  15.248  0.00  0.00    +0.000 A 
ATOM      5  C   UNL     1       6.867   5.424  16.374  0.00  0.00    +0.000 A 
ATOM      6  N   UNL     1       7.554   6.611  16.487  0.00  0.00    +0.000 N 
ATOM      7  CA  UNL     1       7.492   7.117  17.762  0.00  0.00    +0.000 A 
ATOM      8  C   UNL     1       6.725   6.217  18.489  0.00  0.00    +0.000 A 
ATOM      9  C   UNL     1       6.338   5.132  17.632  0.00  0.00    +0.000 A 
ATOM     10  H   UNL     1       8.041   7.067  15.721  0.00  0.00    +0.000 HD
ENDROOT
BRANCH   4  11
ATOM     11  N   UNL     1       7.198   4.933  13.917  0.00  0.00    +0.000 N 
ATOM     12  O   UNL     1       8.168   5.700  13.849  0.00  0.00    +0.000 OA
ATOM     13  O   UNL     1       6.636   4.413  12.942  0.00  0.00    +0.000 OA
ENDBRANCH   4  11
BRANCH   1  14
ATOM     14  N   UNL     1       4.918   3.556  18.993  0.00  0.00    +0.000 N 
ATOM     15  H   UNL     1       5.427   2.839  19.499  0.00  0.00    +0.000 HD
BRANCH  14  20
ATOM     16  C   UNL     1       1.955   5.331  20.394  0.00  0.00    +0.000 A 
ATOM     17  C   UNL     1       1.047   4.274  20.475  0.00  0.00    +0.000 A 
ATOM     18  C   UNL     1       1.414   2.997  20.056  0.00  0.00    +0.000 A 
ATOM     19  C   UNL     1       2.700   2.770  19.567  0.00  0.00    +0.000 A 
ATOM     20  C   UNL     1       3.627   3.816  19.481  0.00  0.00    +0.000 A 
ATOM     21  C   UNL     1       3.232   5.099  19.879  0.00  0.00    +0.000 A 
BRANCH  16  23
ATOM     22  C   UNL     1       1.864   7.694  20.143  0.00  0.00    +0.000 C 
ATOM     23  O   UNL     1       1.486   6.528  20.864  0.00  0.00    +0.000 OA
ENDBRANCH  16  23
ENDBRANCH  14  20
ENDBRANCH   1  14
BRANCH   7  24
ATOM     24  C   UNL     1       8.155   8.363  18.068  0.00  0.00    +0.000 C 
ATOM     25  O   UNL     1       8.027   9.383  17.409  0.00  0.00    +0.000 OA
BRANCH  24  26
ATOM     26  OXT UNL     1       8.950   8.301  19.157  0.00  0.00    +0.000 OA
ATOM     27  HXT UNL     1       8.662   8.874  19.887  0.00  0.00    +0.000 HD
ENDBRANCH  24  26
ENDBRANCH   7  24
TORSDOF 6
ENDMDL
MODEL 5
REMARK VINA RESULT:      -7.7      2.033      4.256
REMARK  Name = 
REMARK  7 active torsions:
REMARK  status: ('A' for Active; 'I' for Inactive)
REMARK    1  A    between atoms: C_1  and  O_2
REMARK    2  A    between atoms: O_2  and  C_3
REMARK    3  A    between atoms: C_7  and  N_8
REMARK    4  A    between atoms: N_8  and  C_9
REMARK    5  A    between atoms: C_12  and  N_13
REMARK    6  A    between atoms: CA_18  and  C_19
REMARK    7  A    between atoms: C_19  and  OXT_21
REMARK                            x       y       z     vdW  Elec       q    Type
REMARK                         _______ _______ _______ _____ _____    ______ ____
ROOT
ATOM      1  C   UNL     1       3.536   6.701  17.544  0.00  0.00    +0.000 A 
ATOM      2  C   UNL     1       4.719   7.389  17.194  0.00  0.00    +0.000 A 
ATOM      3  C   UNL     1       5.959   6.755  17.134  0.00  0.00    +0.000 A 
ATOM      4  C   UNL     1       6.073   5.392  17.431  0.00  0.00    +0.000 A 
ATOM      5  C   UNL     1       4.894   4.696  17.757  0.00  0.00    +0.000 A 
ATOM      6  N   UNL     1       4.716   3.371  18.081  0.00  0.00    +0.000 N 
ATOM      7  CA  UNL     1       3.402   3.085  18.360  0.00  0.00    +0.000 A 
ATOM      8  C   UNL     1       2.716   4.283  18.215  0.00  0.00    +0.000 A 
ATOM      9  C   UNL     1       3.640   5.307  17.816  0.00  0.00    +0.000 A 
ATOM     10  H   UNL     1       5.465   2.685  18.121  0.00  0.00    +0.000 HD
ENDROOT
BRANCH   4  11
ATOM     11  N   UNL     1       7.395   4.753  17.406  0.00  0.00    +0.000 N 
ATOM     12  O   UNL     1       7.923   4.463  18.489  0.00  0.00    +0.000 OA
ATOM     13  O   UNL     1       7.899   4.541  16.293  0.00  0.00    +0.000 OA
ENDBRANCH   4  11
BRANCH   1  14
ATOM     14  N   UNL     1       2.348   7.461  17.608  0.00  0.00    +0.000 N 
ATOM     15  H   UNL     1       1.815   7.452  16.744  0.00  0.00    +0.000 HD
BRANCH  14  20
ATOM     16  C   UNL     1       1.299   8.961  20.855  0.00  0.00    +0.000 A 
ATOM     17  C   UNL     1       0.959  10.249  20.436  0.00  0.00    +0.000 A 
ATOM     18  C   UNL     1       1.092  10.612  19.098  0.00  0.00    +0.000 A 
ATOM     19  C   UNL     1       1.553   9.679  18.168  0.00  0.00    +0.000 A 
ATOM     20  C   UNL     1       1.895   8.381  18.567  0.00  0.00    +0.000 A 
ATOM     21  C   UNL     1       1.784   8.043  19.922  0.00  0.00    +0.000 A 
BRANCH  16  23
ATOM     22  C   UNL     1      -0.013   9.368  22.796  0.00  0.00    +0.000 C 
ATOM     23  O   UNL     1       1.095   8.718  22.187  0.00  0.00    +0.000 OA
ENDBRANCH  16  23
ENDBRANCH  14  20
ENDBRANCH   1  14
BRANCH   7  24
ATOM     24  C   UNL     1       3.027   1.739  18.725  0.00  0.00    +0.000 C 
ATOM     25  O   UNL     1       1.996   1.455  19.313  0.00  0.00    +0.000 OA
BRANCH  24  26
ATOM     26  OXT UNL     1       3.933   0.807  18.362  0.00  0.00    +0.000 OA
ATOM     27  HXT UNL     1       4.162   0.183  19.071  0.00  0.00    +0.000 HD
ENDBRANCH  24  26
ENDBRANCH   7  24
TORSDOF 6
ENDMDL
MODEL 6
REMARK VINA RESULT:      -7.7      2.001      2.369
REMARK  Name = 
REMARK  7 active torsions:
REMARK  status: ('A' for Active; 'I' for Inactive)
REMARK    1  A    between atoms: C_1  and  O_2
REMARK    2  A    between atoms: O_2  and  C_3
REMARK    3  A    between atoms: C_7  and  N_8
REMARK    4  A    between atoms: N_8  and  C_9
REMARK    5  A    between atoms: C_12  and  N_13
REMARK    6  A    between atoms: CA_18  and  C_19
REMARK    7  A    between atoms: C_19  and  OXT_21
REMARK                            x       y       z     vdW  Elec       q    Type
REMARK                         _______ _______ _______ _____ _____    ______ ____
ROOT
ATOM      1  C   UNL     1       3.028   6.538  18.906  0.00  0.00    +0.000 A 
ATOM      2  C   UNL     1       2.165   5.953  19.860  0.00  0.00    +0.000 A 
ATOM      3  C   UNL     1       2.408   4.696  20.412  0.00  0.00    +0.000 A 
ATOM      4  C   UNL     1       3.532   3.957  20.025  0.00  0.00    +0.000 A 
ATOM      5  C   UNL     1       4.408   4.545  19.093  0.00  0.00    +0.000 A 
ATOM      6  N   UNL     1       5.572   4.054  18.550  0.00  0.00    +0.000 N 
ATOM      7  CA  UNL     1       6.127   4.931  17.650  0.00  0.00    +0.000 A 
ATOM      8  C   UNL     1       5.272   6.024  17.613  0.00  0.00    +0.000 A 
ATOM      9  C   UNL     1       4.191   5.805  18.532  0.00  0.00    +0.000 A 
ATOM     10  H   UNL     1       5.974   3.148  18.777  0.00  0.00    +0.000 HD
ENDROOT
BRANCH   4  11
ATOM     11  N   UNL     1       3.745   2.617  20.585  0.00  0.00    +0.000 N 
ATOM     12  O   UNL     1       3.166   2.327  21.641  0.00  0.00    +0.000 OA
ATOM     13  O   UNL     1       4.493   1.853  19.956  0.00  0.00    +0.000 OA
ENDBRANCH   4  11
BRANCH   1  14
ATOM     14  N   UNL     1       2.654   7.798  18.392  0.00  0.00    +0.000 N 
ATOM     15  H   UNL     1       3.318   8.174  17.722  0.00  0.00    +0.000 HD
BRANCH  14  20
ATOM     16  C   UNL     1       0.456   9.915  20.532  0.00  0.00    +0.000 A 
ATOM     17  C   UNL     1      -0.370  10.479  19.558  0.00  0.00    +0.000 A 
ATOM     18  C   UNL     1      -0.186  10.169  18.212  0.00  0.00    +0.000 A 
ATOM     19  C   UNL     1       0.819   9.278  17.837  0.00  0.00    +0.000 A 
ATOM     20  C   UNL     1       1.657   8.698  18.798  0.00  0.00    +0.000 A 
ATOM     21  C   UNL     1       1.477   9.045  20.143  0.00  0.00    +0.000 A 
BRANCH  16  23
ATOM     22  C   UNL     1       0.377   9.296  22.826  0.00  0.00    +0.000 C 
ATOM     23  O   UNL     1       0.156  10.274  21.818  0.00  0.00    +0.000 OA
ENDBRANCH  16  23
ENDBRANCH  14  20
ENDBRANCH   1  14
BRANCH   7  24
ATOM     24  C   UNL     1       7.355   4.581  16.976  0.00  0.00    +0.000 C 
ATOM     25  O   UNL     1       7.549   4.748  15.783  0.00  0.00    +0.000 OA
BRANCH  24  26
ATOM     26  OXT UNL     1       8.282   4.035  17.790  0.00  0.00    +0.000 OA
ATOM     27  HXT UNL     1       7.913   3.637  18.597  0.00  0.00    +0.000 HD
ENDBRANCH  24  26
ENDBRANCH   7  24
TORSDOF 6
ENDMDL
MODEL 7
REMARK VINA RESULT:      -7.7      3.749      8.406
REMARK  Name = 
REMARK  7 active torsions:
REMARK  status: ('A' for Active; 'I' for Inactive)
REMARK    1  A    between atoms: C_1  and  O_2
REMARK    2  A    between atoms: O_2  and  C_3
REMARK    3  A    between atoms: C_7  and  N_8
REMARK    4  A    between atoms: N_8  and  C_9
REMARK    5  A    between atoms: C_12  and  N_13
REMARK    6  A    between atoms: CA_18  and  C_19
REMARK    7  A    between atoms: C_19  and  OXT_21
REMARK                            x       y       z     vdW  Elec       q    Type
REMARK                         _______ _______ _______ _____ _____    ______ ____
ROOT
ATOM      1  C   UNL     1       4.971   5.147  16.715  0.00  0.00    +0.000 A 
ATOM      2  C   UNL     1       5.166   6.545  16.649  0.00  0.00    +0.000 A 
ATOM      3  C   UNL     1       4.291   7.448  17.251  0.00  0.00    +0.000 A 
ATOM      4  C   UNL     1       3.167   6.989  17.948  0.00  0.00    +0.000 A 
ATOM      5  C   UNL     1       2.981   5.597  18.037  0.00  0.00    +0.000 A 
ATOM      6  N   UNL     1       1.982   4.882  18.656  0.00  0.00    +0.000 N 
ATOM      7  CA  UNL     1       2.147   3.528  18.494  0.00  0.00    +0.000 A 
ATOM      8  C   UNL     1       3.297   3.376  17.732  0.00  0.00    +0.000 A 
ATOM      9  C   UNL     1       3.847   4.672  17.450  0.00  0.00    +0.000 A 
ATOM     10  H   UNL     1       1.208   5.300  19.165  0.00  0.00    +0.000 HD
ENDROOT
BRANCH   4  11
ATOM     11  N   UNL     1       2.234   7.958  18.536  0.00  0.00    +0.000 N 
ATOM     12  O   UNL     1       1.797   8.862  17.809  0.00  0.00    +0.000 OA
ATOM     13  O   UNL     1       1.938   7.805  19.730  0.00  0.00    +0.000 OA
ENDBRANCH   4  11
BRANCH   1  14
ATOM     14  N   UNL     1       5.904   4.337  16.032  0.00  0.00    +0.000 N 
ATOM     15  H   UNL     1       6.536   3.840  16.651  0.00  0.00    +0.000 HD
BRANCH  14  20
ATOM     16  C   UNL     1       5.859   3.432  12.416  0.00  0.00    +0.000 A 
ATOM     17  C   UNL     1       6.973   4.146  11.968  0.00  0.00    +0.000 A 
ATOM     18  C   UNL     1       7.713   4.926  12.854  0.00  0.00    +0.000 A 
ATOM     19  C   UNL     1       7.350   4.981  14.200  0.00  0.00    +0.000 A 
ATOM     20  C   UNL     1       6.240   4.269  14.670  0.00  0.00    +0.000 A 
ATOM     21  C   UNL     1       5.489   3.515  13.760  0.00  0.00    +0.000 A 
BRANCH  16  23
ATOM     22  C   UNL     1       3.925   3.087  11.077  0.00  0.00    +0.000 C 
ATOM     23  O   UNL     1       5.234   2.682  11.457  0.00  0.00    +0.000 OA
ENDBRANCH  16  23
ENDBRANCH  14  20
ENDBRANCH   1  14
BRANCH   7  24
ATOM     24  C   UNL     1       1.189   2.618  19.076  0.00  0.00    +0.000 C 
ATOM     25  O   UNL     1       0.285   2.088  18.449  0.00  0.00    +0.000 OA
BRANCH  24  26
ATOM     26  OXT UNL     1       1.374   2.406  20.396  0.00  0.00    +0.000 OA
ATOM     27  HXT UNL     1       0.547   2.349  20.905  0.00  0.00    +0.000 HD
ENDBRANCH  24  26
ENDBRANCH   7  24
TORSDOF 6
ENDMDL
MODEL 8
REMARK VINA RESULT:      -7.7      2.315      2.928
REMARK  Name = 
REMARK  7 active torsions:
REMARK  status: ('A' for Active; 'I' for Inactive)
REMARK    1  A    between atoms: C_1  and  O_2
REMARK    2  A    between atoms: O_2  and  C_3
REMARK    3  A    between atoms: C_7  and  N_8
REMARK    4  A    between atoms: N_8  and  C_9
REMARK    5  A    between atoms: C_12  and  N_13
REMARK    6  A    between atoms: CA_18  and  C_19
REMARK    7  A    between atoms: C_19  and  OXT_21
REMARK                            x       y       z     vdW  Elec       q    Type
REMARK                         _______ _______ _______ _____ _____    ______ ____
ROOT
ATOM      1  C   UNL     1       3.014   6.327  19.009  0.00  0.00    +0.000 A 
ATOM      2  C   UNL     1       2.202   5.689  19.974  0.00  0.00    +0.000 A 
ATOM      3  C   UNL     1       2.524   4.444  20.513  0.00  0.00    +0.000 A 
ATOM      4  C   UNL     1       3.682   3.772  20.102  0.00  0.00    +0.000 A 
ATOM      5  C   UNL     1       4.506   4.413  19.159  0.00  0.00    +0.000 A 
ATOM      6  N   UNL     1       5.687   3.992  18.593  0.00  0.00    +0.000 N 
ATOM      7  CA  UNL     1       6.175   4.904  17.690  0.00  0.00    +0.000 A 
ATOM      8  C   UNL     1       5.260   5.947  17.675  0.00  0.00    +0.000 A 
ATOM      9  C   UNL     1       4.209   5.663  18.611  0.00  0.00    +0.000 A 
ATOM     10  H   UNL     1       6.142   3.109  18.807  0.00  0.00    +0.000 HD
ENDROOT
BRANCH   4  11
ATOM     11  N   UNL     1       3.979   2.442  20.649  0.00  0.00    +0.000 N 
ATOM     12  O   UNL     1       3.431   2.112  21.710  0.00  0.00    +0.000 OA
ATOM     13  O   UNL     1       4.761   1.728  20.005  0.00  0.00    +0.000 OA
ENDBRANCH   4  11
BRANCH   1  14
ATOM     14  N   UNL     1       2.561   7.567  18.510  0.00  0.00    +0.000 N 
ATOM     15  H   UNL     1       3.118   7.919  17.738  0.00  0.00    +0.000 HD
BRANCH  14  20
ATOM     16  C   UNL     1      -0.092  10.177  18.721  0.00  0.00    +0.000 A 
ATOM     17  C   UNL     1      -0.199  10.311  20.107  0.00  0.00    +0.000 A 
ATOM     18  C   UNL     1       0.589   9.534  20.953  0.00  0.00    +0.000 A 
ATOM     19  C   UNL     1       1.502   8.628  20.412  0.00  0.00    +0.000 A 
ATOM     20  C   UNL     1       1.628   8.481  19.025  0.00  0.00    +0.000 A 
ATOM     21  C   UNL     1       0.806   9.248  18.190  0.00  0.00    +0.000 A 
BRANCH  16  23
ATOM     22  C   UNL     1      -1.964  10.417  17.275  0.00  0.00    +0.000 C 
ATOM     23  O   UNL     1      -0.897  11.016  17.999  0.00  0.00    +0.000 OA
ENDBRANCH  16  23
ENDBRANCH  14  20
ENDBRANCH   1  14
BRANCH   7  24
ATOM     24  C   UNL     1       7.410   4.627  16.993  0.00  0.00    +0.000 C 
ATOM     25  O   UNL     1       7.608   4.907  15.822  0.00  0.00    +0.000 OA
BRANCH  24  26
ATOM     26  OXT UNL     1       8.337   4.013  17.757  0.00  0.00    +0.000 OA
ATOM     27  HXT UNL     1       8.271   4.226  18.704  0.00  0.00    +0.000 HD
ENDBRANCH  24  26
ENDBRANCH   7  24
TORSDOF 6
ENDMDL
MODEL 9
REMARK VINA RESULT:      -7.7      1.063      1.788
REMARK  Name = 
REMARK  7 active torsions:
REMARK  status: ('A' for Active; 'I' for Inactive)
REMARK    1  A    between atoms: C_1  and  O_2
REMARK    2  A    between atoms: O_2  and  C_3
REMARK    3  A    between atoms: C_7  and  N_8
REMARK    4  A    between atoms: N_8  and  C_9
REMARK    5  A    between atoms: C_12  and  N_13
REMARK    6  A    between atoms: CA_18  and  C_19
REMARK    7  A    between atoms: C_19  and  OXT_21
REMARK                            x       y       z     vdW  Elec       q    Type
REMARK                         _______ _______ _______ _____ _____    ______ ____
ROOT
ATOM      1  C   UNL     1       2.133   6.293  20.085  0.00  0.00    +0.000 A 
ATOM      2  C   UNL     1       1.215   5.358  20.614  0.00  0.00    +0.000 A 
ATOM      3  C   UNL     1       1.031   4.095  20.051  0.00  0.00    +0.000 A 
ATOM      4  C   UNL     1       1.761   3.711  18.920  0.00  0.00    +0.000 A 
ATOM      5  C   UNL     1       2.693   4.629  18.404  0.00  0.00    +0.000 A 
ATOM      6  N   UNL     1       3.536   4.513  17.323  0.00  0.00    +0.000 N 
ATOM      7  CA  UNL     1       4.282   5.650  17.131  0.00  0.00    +0.000 A 
ATOM      8  C   UNL     1       3.890   6.531  18.129  0.00  0.00    +0.000 A 
ATOM      9  C   UNL     1       2.901   5.896  18.954  0.00  0.00    +0.000 A 
ATOM     10  H   UNL     1       3.596   3.691  16.728  0.00  0.00    +0.000 HD
ENDROOT
BRANCH   4  11
ATOM     11  N   UNL     1       1.519   2.394  18.317  0.00  0.00    +0.000 N 
ATOM     12  O   UNL     1       2.468   1.826  17.758  0.00  0.00    +0.000 OA
ATOM     13  O   UNL     1       0.374   1.930  18.411  0.00  0.00    +0.000 OA
ENDBRANCH   4  11
BRANCH   1  14
ATOM     14  N   UNL     1       2.200   7.553  20.719  0.00  0.00    +0.000 N 
ATOM     15  H   UNL     1       2.964   7.631  21.383  0.00  0.00    +0.000 HD
BRANCH  14  20
ATOM     16  C   UNL     1       0.097  10.443  19.660  0.00  0.00    +0.000 A 
ATOM     17  C   UNL     1      -0.527  10.752  20.871  0.00  0.00    +0.000 A 
ATOM     18  C   UNL     1      -0.262  10.000  22.013  0.00  0.00    +0.000 A 
ATOM     19  C   UNL     1       0.645   8.941  21.951  0.00  0.00    +0.000 A 
ATOM     20  C   UNL     1       1.286   8.617  20.749  0.00  0.00    +0.000 A 
ATOM     21  C   UNL     1       0.984   9.365  19.603  0.00  0.00    +0.000 A 
BRANCH  16  23
ATOM     22  C   UNL     1      -1.607  11.452  18.345  0.00  0.00    +0.000 C 
ATOM     23  O   UNL     1      -0.223  11.273  18.621  0.00  0.00    +0.000 OA
ENDBRANCH  16  23
ENDBRANCH  14  20
ENDBRANCH   1  14
BRANCH   7  24
ATOM     24  C   UNL     1       5.221   5.711  16.036  0.00  0.00    +0.000 C 
ATOM     25  O   UNL     1       6.028   4.831  15.781  0.00  0.00    +0.000 OA
BRANCH  24  26
ATOM     26  OXT UNL     1       5.137   6.847  15.312  0.00  0.00    +0.000 OA
ATOM     27  HXT UNL     1       4.250   7.019  14.952  0.00  0.00    +0.000 HD
ENDBRANCH  24  26
ENDBRANCH   7  24
TORSDOF 6
ENDMDL
