MODEL 1
REMARK VINA RESULT:      -8.8      0.000      0.000
REMARK  Name = 
REMARK  5 active torsions:
REMARK  status: ('A' for Active; 'I' for Inactive)
REMARK    1  A    between atoms: C_2  and  C_11
REMARK    2  A    between atoms: N_3  and  C_4
REMARK    3  A    between atoms: C_13  and  C_14
REMARK    4  A    between atoms: C_14  and  O_15
REMARK    5  A    between atoms: O_15  and  C_16
REMARK                            x       y       z     vdW  Elec       q    Type
REMARK                         _______ _______ _______ _____ _____    ______ ____
ROOT
ATOM      1  C   UNL     1       6.778   5.895  17.766  0.00  0.00    +0.000 A 
ATOM      2  C   UNL     1       6.705   7.213  17.252  0.00  0.00    +0.000 A 
ATOM      3  C   UNL     1       7.696   7.901  17.911  0.00  0.00    +0.000 A 
ATOM      4  O   UNL     1       8.310   7.065  18.790  0.00  0.00    +0.000 OA
ATOM      5  N   UNL     1       7.740   5.804  18.705  0.00  0.00    +0.000 NA
ENDROOT
BRANCH   1   7
ATOM      6  O   UNL     1       6.260   4.023  16.417  0.00  0.00    +0.000 OA
ATOM      7  C   UNL     1       5.966   4.741  17.369  0.00  0.00    +0.000 C 
ATOM      8  N   UNL     1       4.849   4.552  18.152  0.00  0.00    +0.000 N 
ATOM      9  H   UNL     1       4.741   5.191  18.934  0.00  0.00    +0.000 HD
BRANCH   8  10
ATOM     10  C   UNL     1       3.875   3.506  17.924  0.00  0.00    +0.000 C 
ATOM     11  C   UNL     1       3.875   2.462  19.062  0.00  0.00    +0.000 C 
ATOM     12  C   UNL     1       2.436   2.537  19.597  0.00  0.00    +0.000 C 
ATOM     13  C   UNL     1       2.228   3.892  20.301  0.00  0.00    +0.000 C 
ATOM     14  C   UNL     1       2.103   4.875  19.130  0.00  0.00    +0.000 C 
ATOM     15  C   UNL     1       2.399   3.987  17.910  0.00  0.00    +0.000 C 
ATOM     16  C   UNL     1       1.645   2.713  18.303  0.00  0.00    +0.000 C 
ENDBRANCH   8  10
ENDBRANCH   1   7
BRANCH   3  17
ATOM     17  C   UNL     1       8.244   9.273  17.784  0.00  0.00    +0.000 C 
BRANCH  17  18
ATOM     18  O   UNL     1       8.962   9.577  18.978  0.00  0.00    +0.000 OA
BRANCH  18  19
ATOM     19  C   UNL     1       9.650  10.779  18.985  0.00  0.00    +0.000 A 
ATOM     20  C   UNL     1      10.401  11.225  17.884  0.00  0.00    +0.000 A 
ATOM     21  C   UNL     1      11.035  12.462  17.918  0.00  0.00    +0.000 A 
ATOM     22  C   UNL     1      10.916  13.267  19.041  0.00  0.00    +0.000 A 
ATOM     23  C   UNL     1      10.163  12.839  20.145  0.00  0.00    +0.000 A 
ATOM     24  C   UNL     1      10.041  13.658  21.275  0.00  0.00    +0.000 A 
ATOM     25  C   UNL     1       9.296  13.229  22.363  0.00  0.00    +0.000 A 
ATOM     26  C   UNL     1       8.696  11.990  22.282  0.00  0.00    +0.000 A 
ATOM     27  N   UNL     1       8.789  11.175  21.207  0.00  0.00    +0.000 NA
ATOM     28  C   UNL     1       9.510  11.581  20.135  0.00  0.00    +0.000 A 
ENDBRANCH  18  19
ENDBRANCH  17  18
ENDBRANCH   3  17
TORSDOF 5
ENDMDL
MODEL 2
REMARK VINA RESULT:      -8.6      6.655      9.428
REMARK  Name = 
REMARK  5 active torsions:
REMARK  status: ('A' for Active; 'I' for Inactive)
REMARK    1  A    between atoms: C_2  and  C_11
REMARK    2  A    between atoms: N_3  and  C_4
REMARK    3  A    between atoms: C_13  and  C_14
REMARK    4  A    between atoms: C_14  and  O_15
REMARK    5  A    between atoms: O_15  and  C_16
REMARK                            x       y       z     vdW  Elec       q    Type
REMARK                         _______ _______ _______ _____ _____    ______ ____
ROOT
ATOM      1  C   UNL     1       2.184   7.927  18.680  0.00  0.00    +0.000 A 
ATOM      2  C   UNL     1       1.577   8.962  17.926  0.00  0.00    +0.000 A 
ATOM      3  C   UNL     1       0.893   9.714  18.850  0.00  0.00    +0.000 A 
ATOM      4  O   UNL     1       1.047   9.155  20.080  0.00  0.00    +0.000 OA
ATOM      5  N   UNL     1       1.856   8.034  19.982  0.00  0.00    +0.000 NA
ENDROOT
BRANCH   1   7
ATOM      6  O   UNL     1       4.099   7.106  17.561  0.00  0.00    +0.000 OA
ATOM      7  C   UNL     1       3.068   6.868  18.183  0.00  0.00    +0.000 C 
ATOM      8  N   UNL     1       2.626   5.595  18.470  0.00  0.00    +0.000 N 
ATOM      9  H   UNL     1       1.778   5.535  19.026  0.00  0.00    +0.000 HD
BRANCH   8  10
ATOM     10  C   UNL     1       3.308   4.392  18.044  0.00  0.00    +0.000 C 
ATOM     11  C   UNL     1       4.082   3.729  19.204  0.00  0.00    +0.000 C 
ATOM     12  C   UNL     1       3.440   2.335  19.293  0.00  0.00    +0.000 C 
ATOM     13  C   UNL     1       1.995   2.477  19.810  0.00  0.00    +0.000 C 
ATOM     14  C   UNL     1       1.240   3.014  18.587  0.00  0.00    +0.000 C 
ATOM     15  C   UNL     1       2.369   3.249  17.570  0.00  0.00    +0.000 C 
ATOM     16  C   UNL     1       3.231   2.008  17.816  0.00  0.00    +0.000 C 
ENDBRANCH   8  10
ENDBRANCH   1   7
BRANCH   3  17
ATOM     17  C   UNL     1       0.140  10.989  18.773  0.00  0.00    +0.000 C 
BRANCH  17  18
ATOM     18  O   UNL     1      -1.223  10.720  19.095  0.00  0.00    +0.000 OA
BRANCH  18  19
ATOM     19  C   UNL     1      -2.114  10.742  18.034  0.00  0.00    +0.000 A 
ATOM     20  C   UNL     1      -1.858  10.080  16.821  0.00  0.00    +0.000 A 
ATOM     21  C   UNL     1      -2.803  10.088  15.801  0.00  0.00    +0.000 A 
ATOM     22  C   UNL     1      -4.011  10.745  15.985  0.00  0.00    +0.000 A 
ATOM     23  C   UNL     1      -4.283  11.403  17.194  0.00  0.00    +0.000 A 
ATOM     24  C   UNL     1      -5.507  12.061  17.378  0.00  0.00    +0.000 A 
ATOM     25  C   UNL     1      -5.770  12.710  18.575  0.00  0.00    +0.000 A 
ATOM     26  C   UNL     1      -4.796  12.680  19.550  0.00  0.00    +0.000 A 
ATOM     27  N   UNL     1      -3.606  12.054  19.409  0.00  0.00    +0.000 NA
ATOM     28  C   UNL     1      -3.335  11.412  18.247  0.00  0.00    +0.000 A 
ENDBRANCH  18  19
ENDBRANCH  17  18
ENDBRANCH   3  17
TORSDOF 5
ENDMDL
MODEL 3
REMARK VINA RESULT:      -8.5      6.587      9.460
REMARK  Name = 
REMARK  5 active torsions:
REMARK  status: ('A' for Active; 'I' for Inactive)
REMARK    1  A    between atoms: C_2  and  C_11
REMARK    2  A    between atoms: N_3  and  C_4
REMARK    3  A    between atoms: C_13  and  C_14
REMARK    4  A    between atoms: C_14  and  O_15
REMARK    5  A    between atoms: O_15  and  C_16
REMARK                            x       y       z     vdW  Elec       q    Type
REMARK                         _______ _______ _______ _____ _____    ______ ____
ROOT
ATOM      1  C   UNL     1       2.334   8.122  18.439  0.00  0.00    +0.000 A 
ATOM      2  C   UNL     1       1.376   8.726  19.290  0.00  0.00    +0.000 A 
ATOM      3  C   UNL     1       0.992   9.868  18.630  0.00  0.00    +0.000 A 
ATOM      4  O   UNL     1       1.694   9.969  17.470  0.00  0.00    +0.000 OA
ATOM      5  N   UNL     1       2.538   8.877  17.343  0.00  0.00    +0.000 NA
ENDROOT
BRANCH   1   7
ATOM      6  O   UNL     1       4.012   6.516  17.989  0.00  0.00    +0.000 OA
ATOM      7  C   UNL     1       3.033   6.850  18.651  0.00  0.00    +0.000 C 
ATOM      8  N   UNL     1       2.483   6.073  19.646  0.00  0.00    +0.000 N 
ATOM      9  H   UNL     1       1.699   6.481  20.146  0.00  0.00    +0.000 HD
BRANCH   8  10
ATOM     10  C   UNL     1       2.973   4.759  20.004  0.00  0.00    +0.000 C 
ATOM     11  C   UNL     1       2.194   4.158  21.194  0.00  0.00    +0.000 C 
ATOM     12  C   UNL     1       1.610   2.865  20.603  0.00  0.00    +0.000 C 
ATOM     13  C   UNL     1       0.532   3.226  19.562  0.00  0.00    +0.000 C 
ATOM     14  C   UNL     1       1.356   3.692  18.357  0.00  0.00    +0.000 C 
ATOM     15  C   UNL     1       2.793   3.679  18.904  0.00  0.00    +0.000 C 
ATOM     16  C   UNL     1       2.766   2.388  19.728  0.00  0.00    +0.000 C 
ENDBRANCH   8  10
ENDBRANCH   1   7
BRANCH   3  17
ATOM     17  C   UNL     1      -0.043  10.898  18.888  0.00  0.00    +0.000 C 
BRANCH  17  18
ATOM     18  O   UNL     1      -1.308  10.247  18.968  0.00  0.00    +0.000 OA
BRANCH  18  19
ATOM     19  C   UNL     1      -2.149  10.416  17.881  0.00  0.00    +0.000 A 
ATOM     20  C   UNL     1      -1.894   9.826  16.631  0.00  0.00    +0.000 A 
ATOM     21  C   UNL     1      -2.792   9.984  15.580  0.00  0.00    +0.000 A 
ATOM     22  C   UNL     1      -3.952  10.719  15.770  0.00  0.00    +0.000 A 
ATOM     23  C   UNL     1      -4.225  11.307  17.015  0.00  0.00    +0.000 A 
ATOM     24  C   UNL     1      -5.401  12.044  17.204  0.00  0.00    +0.000 A 
ATOM     25  C   UNL     1      -5.664  12.623  18.436  0.00  0.00    +0.000 A 
ATOM     26  C   UNL     1      -4.737  12.445  19.440  0.00  0.00    +0.000 A 
ATOM     27  N   UNL     1      -3.594  11.738  19.296  0.00  0.00    +0.000 NA
ATOM     28  C   UNL     1      -3.324  11.163  18.099  0.00  0.00    +0.000 A 
ENDBRANCH  18  19
ENDBRANCH  17  18
ENDBRANCH   3  17
TORSDOF 5
ENDMDL
MODEL 4
REMARK VINA RESULT:      -8.3      1.093      1.180
REMARK  Name = 
REMARK  5 active torsions:
REMARK  status: ('A' for Active; 'I' for Inactive)
REMARK    1  A    between atoms: C_2  and  C_11
REMARK    2  A    between atoms: N_3  and  C_4
REMARK    3  A    between atoms: C_13  and  C_14
REMARK    4  A    between atoms: C_14  and  O_15
REMARK    5  A    between atoms: O_15  and  C_16
REMARK                            x       y       z     vdW  Elec       q    Type
REMARK                         _______ _______ _______ _____ _____    ______ ____
ROOT
ATOM      1  C   UNL     1       7.088   6.456  17.532  0.00  0.00    +0.000 A 
ATOM      2  C   UNL     1       8.020   6.841  18.527  0.00  0.00    +0.000 A 
ATOM      3  C   UNL     1       8.228   8.183  18.311  0.00  0.00    +0.000 A 
ATOM      4  O   UNL     1       7.495   8.579  17.237  0.00  0.00    +0.000 OA
ATOM      5  N   UNL     1       6.777   7.502  16.743  0.00  0.00    +0.000 NA
ENDROOT
BRANCH   1   7
ATOM      6  O   UNL     1       6.963   4.300  16.567  0.00  0.00    +0.000 OA
ATOM      7  C   UNL     1       6.492   5.130  17.340  0.00  0.00    +0.000 C 
ATOM      8  N   UNL     1       5.361   4.914  18.096  0.00  0.00    +0.000 N 
ATOM      9  H   UNL     1       5.099   5.665  18.727  0.00  0.00    +0.000 HD
BRANCH   8  10
ATOM     10  C   UNL     1       4.578   3.698  18.042  0.00  0.00    +0.000 C 
ATOM     11  C   UNL     1       4.170   3.214  19.450  0.00  0.00    +0.000 C 
ATOM     12  C   UNL     1       2.635   3.219  19.383  0.00  0.00    +0.000 C 
ATOM     13  C   UNL     1       2.136   4.675  19.304  0.00  0.00    +0.000 C 
ATOM     14  C   UNL     1       2.443   5.068  17.854  0.00  0.00    +0.000 C 
ATOM     15  C   UNL     1       3.208   3.843  17.326  0.00  0.00    +0.000 C 
ATOM     16  C   UNL     1       2.396   2.711  17.964  0.00  0.00    +0.000 C 
ENDBRANCH   8  10
ENDBRANCH   1   7
BRANCH   3  17
ATOM     17  C   UNL     1       8.984   9.229  19.040  0.00  0.00    +0.000 C 
BRANCH  17  18
ATOM     18  O   UNL     1       8.749  10.479  18.395  0.00  0.00    +0.000 OA
BRANCH  18  19
ATOM     19  C   UNL     1       9.757  11.421  18.508  0.00  0.00    +0.000 A 
ATOM     20  C   UNL     1      10.756  11.578  17.531  0.00  0.00    +0.000 A 
ATOM     21  C   UNL     1      11.721  12.571  17.663  0.00  0.00    +0.000 A 
ATOM     22  C   UNL     1      11.692  13.419  18.759  0.00  0.00    +0.000 A 
ATOM     23  C   UNL     1      10.697  13.280  19.739  0.00  0.00    +0.000 A 
ATOM     24  C   UNL     1      10.667  14.142  20.842  0.00  0.00    +0.000 A 
ATOM     25  C   UNL     1       9.681  13.999  21.806  0.00  0.00    +0.000 A 
ATOM     26  C   UNL     1       8.755  12.993  21.633  0.00  0.00    +0.000 A 
ATOM     27  N   UNL     1       8.750  12.145  20.581  0.00  0.00    +0.000 NA
ATOM     28  C   UNL     1       9.704  12.274  19.628  0.00  0.00    +0.000 A 
ENDBRANCH  18  19
ENDBRANCH  17  18
ENDBRANCH   3  17
TORSDOF 5
ENDMDL
MODEL 5
REMARK VINA RESULT:      -8.3      1.250      1.555
REMARK  Name = 
REMARK  5 active torsions:
REMARK  status: ('A' for Active; 'I' for Inactive)
REMARK    1  A    between atoms: C_2  and  C_11
REMARK    2  A    between atoms: N_3  and  C_4
REMARK    3  A    between atoms: C_13  and  C_14
REMARK    4  A    between atoms: C_14  and  O_15
REMARK    5  A    between atoms: O_15  and  C_16
REMARK                            x       y       z     vdW  Elec       q    Type
REMARK                         _______ _______ _______ _____ _____    ______ ____
ROOT
ATOM      1  C   UNL     1       7.354   6.521  17.951  0.00  0.00    +0.000 A 
ATOM      2  C   UNL     1       8.079   7.457  18.729  0.00  0.00    +0.000 A 
ATOM      3  C   UNL     1       8.104   8.601  17.968  0.00  0.00    +0.000 A 
ATOM      4  O   UNL     1       7.464   8.366  16.791  0.00  0.00    +0.000 OA
ATOM      5  N   UNL     1       6.991   7.064  16.773  0.00  0.00    +0.000 NA
ENDROOT
BRANCH   1   7
ATOM      6  O   UNL     1       7.838   4.259  18.442  0.00  0.00    +0.000 OA
ATOM      7  C   UNL     1       6.999   5.147  18.319  0.00  0.00    +0.000 C 
ATOM      8  N   UNL     1       5.647   4.951  18.498  0.00  0.00    +0.000 N 
ATOM      9  H   UNL     1       5.063   5.777  18.406  0.00  0.00    +0.000 HD
BRANCH   8  10
ATOM     10  C   UNL     1       5.056   3.670  18.821  0.00  0.00    +0.000 C 
ATOM     11  C   UNL     1       3.899   3.810  19.835  0.00  0.00    +0.000 C 
ATOM     12  C   UNL     1       2.699   3.232  19.067  0.00  0.00    +0.000 C 
ATOM     13  C   UNL     1       2.333   4.184  17.911  0.00  0.00    +0.000 C 
ATOM     14  C   UNL     1       3.434   3.915  16.878  0.00  0.00    +0.000 C 
ATOM     15  C   UNL     1       4.372   2.953  17.626  0.00  0.00    +0.000 C 
ATOM     16  C   UNL     1       3.349   2.061  18.335  0.00  0.00    +0.000 C 
ENDBRANCH   8  10
ENDBRANCH   1   7
BRANCH   3  17
ATOM     17  C   UNL     1       8.590   9.981  18.213  0.00  0.00    +0.000 C 
BRANCH  17  18
ATOM     18  O   UNL     1       9.434   9.957  19.361  0.00  0.00    +0.000 OA
BRANCH  18  19
ATOM     19  C   UNL     1      10.156  11.113  19.609  0.00  0.00    +0.000 A 
ATOM     20  C   UNL     1      11.262  11.492  18.830  0.00  0.00    +0.000 A 
ATOM     21  C   UNL     1      11.928  12.687  19.085  0.00  0.00    +0.000 A 
ATOM     22  C   UNL     1      11.490  13.514  20.109  0.00  0.00    +0.000 A 
ATOM     23  C   UNL     1      10.383  13.152  20.890  0.00  0.00    +0.000 A 
ATOM     24  C   UNL     1       9.941  13.993  21.919  0.00  0.00    +0.000 A 
ATOM     25  C   UNL     1       8.846  13.630  22.688  0.00  0.00    +0.000 A 
ATOM     26  C   UNL     1       8.228  12.431  22.400  0.00  0.00    +0.000 A 
ATOM     27  N   UNL     1       8.624  11.596  21.414  0.00  0.00    +0.000 NA
ATOM     28  C   UNL     1       9.690  11.939  20.651  0.00  0.00    +0.000 A 
ENDBRANCH  18  19
ENDBRANCH  17  18
ENDBRANCH   3  17
TORSDOF 5
ENDMDL
MODEL 6
REMARK VINA RESULT:      -8.2      1.394      2.355
REMARK  Name = 
REMARK  5 active torsions:
REMARK  status: ('A' for Active; 'I' for Inactive)
REMARK    1  A    between atoms: C_2  and  C_11
REMARK    2  A    between atoms: N_3  and  C_4
REMARK    3  A    between atoms: C_13  and  C_14
REMARK    4  A    between atoms: C_14  and  O_15
REMARK    5  A    between atoms: O_15  and  C_16
REMARK                            x       y       z     vdW  Elec       q    Type
REMARK                         _______ _______ _______ _____ _____    ______ ____
ROOT
ATOM      1  C   UNL     1       6.729   6.451  17.408  0.00  0.00    +0.000 A 
ATOM      2  C   UNL     1       7.712   6.636  18.411  0.00  0.00    +0.000 A 
ATOM      3  C   UNL     1       8.131   7.936  18.256  0.00  0.00    +0.000 A 
ATOM      4  O   UNL     1       7.468   8.494  17.208  0.00  0.00    +0.000 OA
ATOM      5  N   UNL     1       6.587   7.570  16.671  0.00  0.00    +0.000 NA
ENDROOT
BRANCH   1   7
ATOM      6  O   UNL     1       6.364   4.282  16.539  0.00  0.00    +0.000 OA
ATOM      7  C   UNL     1       5.929   5.247  17.161  0.00  0.00    +0.000 C 
ATOM      8  N   UNL     1       4.655   5.311  17.679  0.00  0.00    +0.000 N 
ATOM      9  H   UNL     1       4.431   6.149  18.208  0.00  0.00    +0.000 HD
BRANCH   8  10
ATOM     10  C   UNL     1       3.670   4.262  17.523  0.00  0.00    +0.000 C 
ATOM     11  C   UNL     1       3.925   3.084  18.489  0.00  0.00    +0.000 C 
ATOM     12  C   UNL     1       2.631   3.032  19.316  0.00  0.00    +0.000 C 
ATOM     13  C   UNL     1       2.556   4.279  20.219  0.00  0.00    +0.000 C 
ATOM     14  C   UNL     1       2.173   5.394  19.239  0.00  0.00    +0.000 C 
ATOM     15  C   UNL     1       2.217   4.679  17.878  0.00  0.00    +0.000 C 
ATOM     16  C   UNL     1       1.582   3.335  18.248  0.00  0.00    +0.000 C 
ENDBRANCH   8  10
ENDBRANCH   1   7
BRANCH   3  17
ATOM     17  C   UNL     1       9.046   8.813  19.026  0.00  0.00    +0.000 C 
BRANCH  17  18
ATOM     18  O   UNL     1       8.928  10.138  18.512  0.00  0.00    +0.000 OA
BRANCH  18  19
ATOM     19  C   UNL     1       9.388  11.152  19.335  0.00  0.00    +0.000 A 
ATOM     20  C   UNL     1       9.060  11.222  20.700  0.00  0.00    +0.000 A 
ATOM     21  C   UNL     1       9.583  12.232  21.500  0.00  0.00    +0.000 A 
ATOM     22  C   UNL     1      10.444  13.171  20.950  0.00  0.00    +0.000 A 
ATOM     23  C   UNL     1      10.786  13.109  19.591  0.00  0.00    +0.000 A 
ATOM     24  C   UNL     1      11.660  14.056  19.041  0.00  0.00    +0.000 A 
ATOM     25  C   UNL     1      11.994  13.990  17.696  0.00  0.00    +0.000 A 
ATOM     26  C   UNL     1      11.440  12.975  16.946  0.00  0.00    +0.000 A 
ATOM     27  N   UNL     1      10.596  12.043  17.443  0.00  0.00    +0.000 NA
ATOM     28  C   UNL     1      10.263  12.091  18.755  0.00  0.00    +0.000 A 
ENDBRANCH  18  19
ENDBRANCH  17  18
ENDBRANCH   3  17
TORSDOF 5
ENDMDL
MODEL 7
REMARK VINA RESULT:      -8.2      6.386      9.221
REMARK  Name = 
REMARK  5 active torsions:
REMARK  status: ('A' for Active; 'I' for Inactive)
REMARK    1  A    between atoms: C_2  and  C_11
REMARK    2  A    between atoms: N_3  and  C_4
REMARK    3  A    between atoms: C_13  and  C_14
REMARK    4  A    between atoms: C_14  and  O_15
REMARK    5  A    between atoms: O_15  and  C_16
REMARK                            x       y       z     vdW  Elec       q    Type
REMARK                         _______ _______ _______ _____ _____    ______ ____
ROOT
ATOM      1  C   UNL     1       2.322   8.122  18.353  0.00  0.00    +0.000 A 
ATOM      2  C   UNL     1       1.627   8.367  19.563  0.00  0.00    +0.000 A 
ATOM      3  C   UNL     1       1.006   9.578  19.371  0.00  0.00    +0.000 A 
ATOM      4  O   UNL     1       1.329  10.052  18.138  0.00  0.00    +0.000 OA
ATOM      5  N   UNL     1       2.153   9.145  17.493  0.00  0.00    +0.000 NA
ENDROOT
BRANCH   1   7
ATOM      6  O   UNL     1       4.084   6.989  17.255  0.00  0.00    +0.000 OA
ATOM      7  C   UNL     1       3.118   6.938  18.011  0.00  0.00    +0.000 C 
ATOM      8  N   UNL     1       2.672   5.778  18.604  0.00  0.00    +0.000 N 
ATOM      9  H   UNL     1       1.886   5.878  19.240  0.00  0.00    +0.000 HD
BRANCH   8  10
ATOM     10  C   UNL     1       3.270   4.480  18.381  0.00  0.00    +0.000 C 
ATOM     11  C   UNL     1       3.620   3.772  19.708  0.00  0.00    +0.000 C 
ATOM     12  C   UNL     1       2.793   2.478  19.636  0.00  0.00    +0.000 C 
ATOM     13  C   UNL     1       1.296   2.828  19.754  0.00  0.00    +0.000 C 
ATOM     14  C   UNL     1       0.965   3.406  18.373  0.00  0.00    +0.000 C 
ATOM     15  C   UNL     1       2.340   3.449  17.685  0.00  0.00    +0.000 C 
ATOM     16  C   UNL     1       2.931   2.118  18.159  0.00  0.00    +0.000 C 
ENDBRANCH   8  10
ENDBRANCH   1   7
BRANCH   3  17
ATOM     17  C   UNL     1       0.041  10.369  20.172  0.00  0.00    +0.000 C 
BRANCH  17  18
ATOM     18  O   UNL     1      -0.394  11.473  19.381  0.00  0.00    +0.000 OA
BRANCH  18  19
ATOM     19  C   UNL     1      -1.754  11.734  19.397  0.00  0.00    +0.000 A 
ATOM     20  C   UNL     1      -2.389  12.357  20.485  0.00  0.00    +0.000 A 
ATOM     21  C   UNL     1      -3.749  12.644  20.437  0.00  0.00    +0.000 A 
ATOM     22  C   UNL     1      -4.482  12.323  19.303  0.00  0.00    +0.000 A 
ATOM     23  C   UNL     1      -3.860  11.708  18.206  0.00  0.00    +0.000 A 
ATOM     24  C   UNL     1      -4.602  11.390  17.062  0.00  0.00    +0.000 A 
ATOM     25  C   UNL     1      -3.981  10.782  15.981  0.00  0.00    +0.000 A 
ATOM     26  C   UNL     1      -2.633  10.510  16.084  0.00  0.00    +0.000 A 
ATOM     27  N   UNL     1      -1.885  10.805  17.170  0.00  0.00    +0.000 NA
ATOM     28  C   UNL     1      -2.476  11.403  18.232  0.00  0.00    +0.000 A 
ENDBRANCH  18  19
ENDBRANCH  17  18
ENDBRANCH   3  17
TORSDOF 5
ENDMDL
MODEL 8
REMARK VINA RESULT:      -8.2      1.868      2.240
REMARK  Name = 
REMARK  5 active torsions:
REMARK  status: ('A' for Active; 'I' for Inactive)
REMARK    1  A    between atoms: C_2  and  C_11
REMARK    2  A    between atoms: N_3  and  C_4
REMARK    3  A    between atoms: C_13  and  C_14
REMARK    4  A    between atoms: C_14  and  O_15
REMARK    5  A    between atoms: O_15  and  C_16
REMARK                            x       y       z     vdW  Elec       q    Type
REMARK                         _______ _______ _______ _____ _____    ______ ____
ROOT
ATOM      1  C   UNL     1       7.300   6.652  17.674  0.00  0.00    +0.000 A 
ATOM      2  C   UNL     1       8.063   7.247  18.708  0.00  0.00    +0.000 A 
ATOM      3  C   UNL     1       8.307   8.527  18.271  0.00  0.00    +0.000 A 
ATOM      4  O   UNL     1       7.755   8.689  17.039  0.00  0.00    +0.000 OA
ATOM      5  N   UNL     1       7.121   7.517  16.658  0.00  0.00    +0.000 NA
ENDROOT
BRANCH   1   7
ATOM      6  O   UNL     1       7.406   4.310  17.359  0.00  0.00    +0.000 OA
ATOM      7  C   UNL     1       6.738   5.297  17.654  0.00  0.00    +0.000 C 
ATOM      8  N   UNL     1       5.402   5.245  17.983  0.00  0.00    +0.000 N 
ATOM      9  H   UNL     1       4.974   6.128  18.247  0.00  0.00    +0.000 HD
BRANCH   8  10
ATOM     10  C   UNL     1       4.622   4.026  17.988  0.00  0.00    +0.000 C 
ATOM     11  C   UNL     1       4.405   3.487  19.419  0.00  0.00    +0.000 C 
ATOM     12  C   UNL     1       2.874   3.482  19.555  0.00  0.00    +0.000 C 
ATOM     13  C   UNL     1       2.364   4.937  19.595  0.00  0.00    +0.000 C 
ATOM     14  C   UNL     1       2.477   5.384  18.133  0.00  0.00    +0.000 C 
ATOM     15  C   UNL     1       3.169   4.185  17.464  0.00  0.00    +0.000 C 
ATOM     16  C   UNL     1       2.452   3.024  18.161  0.00  0.00    +0.000 C 
ENDBRANCH   8  10
ENDBRANCH   1   7
BRANCH   3  17
ATOM     17  C   UNL     1       8.941   9.715  18.891  0.00  0.00    +0.000 C 
BRANCH  17  18
ATOM     18  O   UNL     1       9.502  10.513  17.852  0.00  0.00    +0.000 OA
BRANCH  18  19
ATOM     19  C   UNL     1       9.218  11.868  17.904  0.00  0.00    +0.000 A 
ATOM     20  C   UNL     1       7.980  12.395  17.498  0.00  0.00    +0.000 A 
ATOM     21  C   UNL     1       7.722  13.757  17.614  0.00  0.00    +0.000 A 
ATOM     22  C   UNL     1       8.688  14.599  18.145  0.00  0.00    +0.000 A 
ATOM     23  C   UNL     1       9.925  14.086  18.562  0.00  0.00    +0.000 A 
ATOM     24  C   UNL     1      10.896  14.939  19.102  0.00  0.00    +0.000 A 
ATOM     25  C   UNL     1      12.117  14.426  19.512  0.00  0.00    +0.000 A 
ATOM     26  C   UNL     1      12.326  13.071  19.366  0.00  0.00    +0.000 A 
ATOM     27  N   UNL     1      11.413  12.217  18.853  0.00  0.00    +0.000 NA
ATOM     28  C   UNL     1      10.214  12.703  18.451  0.00  0.00    +0.000 A 
ENDBRANCH  18  19
ENDBRANCH  17  18
ENDBRANCH   3  17
TORSDOF 5
ENDMDL
MODEL 9
REMARK VINA RESULT:      -8.2      6.327      8.907
REMARK  Name = 
REMARK  5 active torsions:
REMARK  status: ('A' for Active; 'I' for Inactive)
REMARK    1  A    between atoms: C_2  and  C_11
REMARK    2  A    between atoms: N_3  and  C_4
REMARK    3  A    between atoms: C_13  and  C_14
REMARK    4  A    between atoms: C_14  and  O_15
REMARK    5  A    between atoms: O_15  and  C_16
REMARK                            x       y       z     vdW  Elec       q    Type
REMARK                         _______ _______ _______ _____ _____    ______ ____
ROOT
ATOM      1  C   UNL     1       2.639   7.826  18.167  0.00  0.00    +0.000 A 
ATOM      2  C   UNL     1       1.862   8.098  19.320  0.00  0.00    +0.000 A 
ATOM      3  C   UNL     1       1.256   9.304  19.057  0.00  0.00    +0.000 A 
ATOM      4  O   UNL     1       1.664   9.750  17.839  0.00  0.00    +0.000 OA
ATOM      5  N   UNL     1       2.531   8.828  17.274  0.00  0.00    +0.000 NA
ENDROOT
BRANCH   1   7
ATOM      6  O   UNL     1       4.492   6.677  17.252  0.00  0.00    +0.000 OA
ATOM      7  C   UNL     1       3.456   6.636  17.908  0.00  0.00    +0.000 C 
ATOM      8  N   UNL     1       2.945   5.481  18.459  0.00  0.00    +0.000 N 
ATOM      9  H   UNL     1       2.102   5.589  19.014  0.00  0.00    +0.000 HD
BRANCH   8  10
ATOM     10  C   UNL     1       3.553   4.178  18.300  0.00  0.00    +0.000 C 
ATOM     11  C   UNL     1       3.891   3.530  19.661  0.00  0.00    +0.000 C 
ATOM     12  C   UNL     1       3.072   2.230  19.635  0.00  0.00    +0.000 C 
ATOM     13  C   UNL     1       1.572   2.576  19.721  0.00  0.00    +0.000 C 
ATOM     14  C   UNL     1       1.254   3.090  18.312  0.00  0.00    +0.000 C 
ATOM     15  C   UNL     1       2.637   3.112  17.639  0.00  0.00    +0.000 C 
ATOM     16  C   UNL     1       3.229   1.806  18.177  0.00  0.00    +0.000 C 
ENDBRANCH   8  10
ENDBRANCH   1   7
BRANCH   3  17
ATOM     17  C   UNL     1       0.238  10.113  19.770  0.00  0.00    +0.000 C 
BRANCH  17  18
ATOM     18  O   UNL     1      -0.215  11.136  18.887  0.00  0.00    +0.000 OA
BRANCH  18  19
ATOM     19  C   UNL     1      -1.502  10.991  18.398  0.00  0.00    +0.000 A 
ATOM     20  C   UNL     1      -1.818  10.101  17.357  0.00  0.00    +0.000 A 
ATOM     21  C   UNL     1      -3.133   9.953  16.931  0.00  0.00    +0.000 A 
ATOM     22  C   UNL     1      -4.143  10.680  17.544  0.00  0.00    +0.000 A 
ATOM     23  C   UNL     1      -3.844  11.567  18.590  0.00  0.00    +0.000 A 
ATOM     24  C   UNL     1      -4.867  12.295  19.210  0.00  0.00    +0.000 A 
ATOM     25  C   UNL     1      -4.565  13.170  20.243  0.00  0.00    +0.000 A 
ATOM     26  C   UNL     1      -3.244  13.287  20.620  0.00  0.00    +0.000 A 
ATOM     27  N   UNL     1      -2.232  12.599  20.047  0.00  0.00    +0.000 NA
ATOM     28  C   UNL     1      -2.511  11.737  19.040  0.00  0.00    +0.000 A 
ENDBRANCH  18  19
ENDBRANCH  17  18
ENDBRANCH   3  17
TORSDOF 5
ENDMDL
