MODEL 1
REMARK VINA RESULT:      -8.1      0.000      0.000
REMARK  Name = 
REMARK  3 active torsions:
REMARK  status: ('A' for Active; 'I' for Inactive)
REMARK    1  A    between atoms: C_2  and  C_20
REMARK    2  A    between atoms: N_3  and  C_4
REMARK    3  A    between atoms: N_8  and  C_9
REMARK                            x       y       z     vdW  Elec       q    Type
REMARK                         _______ _______ _______ _____ _____    ______ ____
ROOT
ATOM      1  C   UNL     1       1.943   7.166  20.589  0.00  0.00    +0.000 C 
ATOM      2  C   UNL     1       1.511   5.724  20.811  0.00  0.00    +0.000 C 
ATOM      3  C   UNL     1       2.679   4.979  20.196  0.00  0.00    +0.000 C 
ATOM      4  O   UNL     1       2.967   3.828  20.489  0.00  0.00    +0.000 OA
ATOM      5  N   UNL     1       3.284   5.832  19.252  0.00  0.00    +0.000 N 
ATOM      6  C   UNL     1       2.581   7.100  19.203  0.00  0.00    +0.000 C 
ENDROOT
BRANCH   5   7
ATOM      7  C   UNL     1       4.393   5.516  18.424  0.00  0.00    +0.000 A 
ATOM      8  C   UNL     1       5.692   5.441  18.946  0.00  0.00    +0.000 A 
ATOM      9  C   UNL     1       6.787   5.125  18.133  0.00  0.00    +0.000 A 
ATOM     10  C   UNL     1       6.599   4.895  16.777  0.00  0.00    +0.000 A 
ATOM     11  C   UNL     1       5.314   4.961  16.237  0.00  0.00    +0.000 A 
ATOM     12  C   UNL     1       4.220   5.277  17.052  0.00  0.00    +0.000 A 
ATOM     13  O   UNL     1       5.047   4.739  14.909  0.00  0.00    +0.000 OA
ATOM     14  C   UNL     1       6.151   4.113  14.245  0.00  0.00    +0.000 C 
ATOM     15  C   UNL     1       7.472   4.750  14.641  0.00  0.00    +0.000 C 
ATOM     16  O   UNL     1       7.716   4.601  16.042  0.00  0.00    +0.000 OA
ENDBRANCH   5   7
BRANCH   1  19
ATOM     17  O   UNL     1       1.921   9.243  22.670  0.00  0.00    +0.000 OA
ATOM     18  C   UNL     1       1.015   9.163  21.857  0.00  0.00    +0.000 C 
ATOM     19  N   UNL     1       0.977   8.223  20.847  0.00  0.00    +0.000 N 
ATOM     20  H   UNL     1       0.182   8.254  20.224  0.00  0.00    +0.000 HD
BRANCH  18  21
ATOM     21  C   UNL     1      -0.201  10.106  21.804  0.00  0.00    +0.000 C 
ATOM     22  C   UNL     1      -0.848  10.313  23.177  0.00  0.00    +0.000 C 
ATOM     23  C   UNL     1      -1.748  11.526  22.985  0.00  0.00    +0.000 C 
ATOM     24  C   UNL     1      -1.084  12.367  21.898  0.00  0.00    +0.000 C 
ATOM     25  C   UNL     1       0.092  11.542  21.367  0.00  0.00    +0.000 C 
ENDBRANCH  18  21
ENDBRANCH   1  19
TORSDOF 3
ENDMDL
MODEL 2
REMARK VINA RESULT:      -7.8      0.980      1.031
REMARK  Name = 
REMARK  3 active torsions:
REMARK  status: ('A' for Active; 'I' for Inactive)
REMARK    1  A    between atoms: C_2  and  C_20
REMARK    2  A    between atoms: N_3  and  C_4
REMARK    3  A    between atoms: N_8  and  C_9
REMARK                            x       y       z     vdW  Elec       q    Type
REMARK                         _______ _______ _______ _____ _____    ______ ____
ROOT
ATOM      1  C   UNL     1       2.210   6.449  20.583  0.00  0.00    +0.000 C 
ATOM      2  C   UNL     1       1.836   4.976  20.665  0.00  0.00    +0.000 C 
ATOM      3  C   UNL     1       2.994   4.347  19.916  0.00  0.00    +0.000 C 
ATOM      4  O   UNL     1       3.333   3.182  20.065  0.00  0.00    +0.000 OA
ATOM      5  N   UNL     1       3.522   5.319  19.044  0.00  0.00    +0.000 N 
ATOM      6  C   UNL     1       2.777   6.558  19.170  0.00  0.00    +0.000 C 
ENDROOT
BRANCH   5   7
ATOM      7  C   UNL     1       4.595   5.136  18.134  0.00  0.00    +0.000 A 
ATOM      8  C   UNL     1       5.929   5.205  18.560  0.00  0.00    +0.000 A 
ATOM      9  C   UNL     1       6.990   5.021  17.666  0.00  0.00    +0.000 A 
ATOM     10  C   UNL     1       6.730   4.781  16.323  0.00  0.00    +0.000 A 
ATOM     11  C   UNL     1       5.411   4.706  15.877  0.00  0.00    +0.000 A 
ATOM     12  C   UNL     1       4.351   4.890  16.775  0.00  0.00    +0.000 A 
ATOM     13  O   UNL     1       5.074   4.466  14.569  0.00  0.00    +0.000 OA
ATOM     14  C   UNL     1       6.190   3.973  13.817  0.00  0.00    +0.000 C 
ATOM     15  C   UNL     1       7.456   4.753  14.128  0.00  0.00    +0.000 C 
ATOM     16  O   UNL     1       7.816   4.621  15.506  0.00  0.00    +0.000 OA
ENDBRANCH   5   7
BRANCH   1  19
ATOM     17  O   UNL     1       1.559   9.079  19.442  0.00  0.00    +0.000 OA
ATOM     18  C   UNL     1       0.979   8.666  20.432  0.00  0.00    +0.000 C 
ATOM     19  N   UNL     1       1.226   7.435  21.003  0.00  0.00    +0.000 N 
ATOM     20  H   UNL     1       0.679   7.191  21.818  0.00  0.00    +0.000 HD
BRANCH  18  21
ATOM     21  C   UNL     1      -0.135   9.427  21.175  0.00  0.00    +0.000 C 
ATOM     22  C   UNL     1      -0.021   9.303  22.697  0.00  0.00    +0.000 C 
ATOM     23  C   UNL     1      -0.940  10.395  23.229  0.00  0.00    +0.000 C 
ATOM     24  C   UNL     1      -0.935  11.494  22.170  0.00  0.00    +0.000 C 
ATOM     25  C   UNL     1      -0.150  10.943  20.975  0.00  0.00    +0.000 C 
ENDBRANCH  18  21
ENDBRANCH   1  19
TORSDOF 3
ENDMDL
MODEL 3
REMARK VINA RESULT:      -7.6      1.027      1.082
REMARK  Name = 
REMARK  3 active torsions:
REMARK  status: ('A' for Active; 'I' for Inactive)
REMARK    1  A    between atoms: C_2  and  C_20
REMARK    2  A    between atoms: N_3  and  C_4
REMARK    3  A    between atoms: N_8  and  C_9
REMARK                            x       y       z     vdW  Elec       q    Type
REMARK                         _______ _______ _______ _____ _____    ______ ____
ROOT
ATOM      1  C   UNL     1       2.209   7.421  19.836  0.00  0.00    +0.000 C 
ATOM      2  C   UNL     1       2.025   5.965  20.236  0.00  0.00    +0.000 C 
ATOM      3  C   UNL     1       3.225   5.331  19.562  0.00  0.00    +0.000 C 
ATOM      4  O   UNL     1       3.713   4.270  19.924  0.00  0.00    +0.000 OA
ATOM      5  N   UNL     1       3.596   6.154  18.481  0.00  0.00    +0.000 N 
ATOM      6  C   UNL     1       2.707   7.298  18.398  0.00  0.00    +0.000 C 
ENDROOT
BRANCH   5   7
ATOM      7  C   UNL     1       4.651   5.911  17.564  0.00  0.00    +0.000 A 
ATOM      8  C   UNL     1       5.958   6.345  17.827  0.00  0.00    +0.000 A 
ATOM      9  C   UNL     1       7.001   6.104  16.926  0.00  0.00    +0.000 A 
ATOM     10  C   UNL     1       6.748   5.435  15.737  0.00  0.00    +0.000 A 
ATOM     11  C   UNL     1       5.456   4.990  15.455  0.00  0.00    +0.000 A 
ATOM     12  C   UNL     1       4.413   5.234  16.358  0.00  0.00    +0.000 A 
ATOM     13  O   UNL     1       5.129   4.317  14.306  0.00  0.00    +0.000 OA
ATOM     14  C   UNL     1       6.294   3.837  13.623  0.00  0.00    +0.000 C 
ATOM     15  C   UNL     1       7.386   4.892  13.581  0.00  0.00    +0.000 C 
ATOM     16  O   UNL     1       7.814   5.242  14.900  0.00  0.00    +0.000 OA
ENDBRANCH   5   7
BRANCH   1  19
ATOM     17  O   UNL     1       1.539   8.886  22.296  0.00  0.00    +0.000 OA
ATOM     18  C   UNL     1       0.852   8.998  21.295  0.00  0.00    +0.000 C 
ATOM     19  N   UNL     1       1.124   8.353  20.106  0.00  0.00    +0.000 N 
ATOM     20  H   UNL     1       0.491   8.527  19.336  0.00  0.00    +0.000 HD
BRANCH  18  21
ATOM     21  C   UNL     1      -0.395   9.896  21.185  0.00  0.00    +0.000 C 
ATOM     22  C   UNL     1      -0.439  10.980  22.265  0.00  0.00    +0.000 C 
ATOM     23  C   UNL     1      -1.497  11.957  21.768  0.00  0.00    +0.000 C 
ATOM     24  C   UNL     1      -1.465  11.864  20.245  0.00  0.00    +0.000 C 
ATOM     25  C   UNL     1      -0.511  10.716  19.899  0.00  0.00    +0.000 C 
ENDBRANCH  18  21
ENDBRANCH   1  19
TORSDOF 3
ENDMDL
MODEL 4
REMARK VINA RESULT:      -7.5      1.900      8.691
REMARK  Name = 
REMARK  3 active torsions:
REMARK  status: ('A' for Active; 'I' for Inactive)
REMARK    1  A    between atoms: C_2  and  C_20
REMARK    2  A    between atoms: N_3  and  C_4
REMARK    3  A    between atoms: N_8  and  C_9
REMARK                            x       y       z     vdW  Elec       q    Type
REMARK                         _______ _______ _______ _____ _____    ______ ____
ROOT
ATOM      1  C   UNL     1       3.997   4.705  17.187  0.00  0.00    +0.000 C 
ATOM      2  C   UNL     1       4.305   4.078  18.539  0.00  0.00    +0.000 C 
ATOM      3  C   UNL     1       3.390   4.883  19.441  0.00  0.00    +0.000 C 
ATOM      4  O   UNL     1       2.999   4.481  20.527  0.00  0.00    +0.000 OA
ATOM      5  N   UNL     1       3.145   6.119  18.812  0.00  0.00    +0.000 N 
ATOM      6  C   UNL     1       3.850   6.181  17.545  0.00  0.00    +0.000 C 
ENDROOT
BRANCH   5   7
ATOM      7  C   UNL     1       2.365   7.185  19.330  0.00  0.00    +0.000 A 
ATOM      8  C   UNL     1       1.861   7.148  20.639  0.00  0.00    +0.000 A 
ATOM      9  C   UNL     1       1.095   8.199  21.154  0.00  0.00    +0.000 A 
ATOM     10  C   UNL     1       0.806   9.300  20.359  0.00  0.00    +0.000 A 
ATOM     11  C   UNL     1       1.299   9.360  19.056  0.00  0.00    +0.000 A 
ATOM     12  C   UNL     1       2.066   8.306  18.542  0.00  0.00    +0.000 A 
ATOM     13  O   UNL     1       1.063  10.416  18.212  0.00  0.00    +0.000 OA
ATOM     14  C   UNL     1       0.567  11.559  18.921  0.00  0.00    +0.000 C 
ATOM     15  C   UNL     1      -0.493  11.165  19.936  0.00  0.00    +0.000 C 
ATOM     16  O   UNL     1       0.044  10.285  20.927  0.00  0.00    +0.000 OA
ENDBRANCH   5   7
BRANCH   1  19
ATOM     17  O   UNL     1       6.819   5.349  16.667  0.00  0.00    +0.000 OA
ATOM     18  C   UNL     1       6.166   4.706  15.863  0.00  0.00    +0.000 C 
ATOM     19  N   UNL     1       4.845   4.357  16.057  0.00  0.00    +0.000 N 
ATOM     20  H   UNL     1       4.404   3.814  15.327  0.00  0.00    +0.000 HD
BRANCH  18  21
ATOM     21  C   UNL     1       6.712   4.156  14.532  0.00  0.00    +0.000 C 
ATOM     22  C   UNL     1       5.602   3.700  13.582  0.00  0.00    +0.000 C 
ATOM     23  C   UNL     1       6.300   3.560  12.235  0.00  0.00    +0.000 C 
ATOM     24  C   UNL     1       7.441   4.572  12.253  0.00  0.00    +0.000 C 
ATOM     25  C   UNL     1       7.485   5.154  13.669  0.00  0.00    +0.000 C 
ENDBRANCH  18  21
ENDBRANCH   1  19
TORSDOF 3
ENDMDL
MODEL 5
REMARK VINA RESULT:      -7.5      1.736      8.948
REMARK  Name = 
REMARK  3 active torsions:
REMARK  status: ('A' for Active; 'I' for Inactive)
REMARK    1  A    between atoms: C_2  and  C_20
REMARK    2  A    between atoms: N_3  and  C_4
REMARK    3  A    between atoms: N_8  and  C_9
REMARK                            x       y       z     vdW  Elec       q    Type
REMARK                         _______ _______ _______ _____ _____    ______ ____
ROOT
ATOM      1  C   UNL     1       3.856   4.847  17.237  0.00  0.00    +0.000 C 
ATOM      2  C   UNL     1       4.176   4.363  18.644  0.00  0.00    +0.000 C 
ATOM      3  C   UNL     1       3.276   5.263  19.466  0.00  0.00    +0.000 C 
ATOM      4  O   UNL     1       2.897   4.980  20.593  0.00  0.00    +0.000 OA
ATOM      5  N   UNL     1       3.030   6.428  18.714  0.00  0.00    +0.000 N 
ATOM      6  C   UNL     1       3.720   6.354  17.440  0.00  0.00    +0.000 C 
ENDROOT
BRANCH   5   7
ATOM      7  C   UNL     1       2.261   7.547  19.127  0.00  0.00    +0.000 A 
ATOM      8  C   UNL     1       1.908   8.561  18.224  0.00  0.00    +0.000 A 
ATOM      9  C   UNL     1       1.146   9.663  18.628  0.00  0.00    +0.000 A 
ATOM     10  C   UNL     1       0.737   9.776  19.949  0.00  0.00    +0.000 A 
ATOM     11  C   UNL     1       1.073   8.778  20.864  0.00  0.00    +0.000 A 
ATOM     12  C   UNL     1       1.836   7.676  20.458  0.00  0.00    +0.000 A 
ATOM     13  O   UNL     1       0.701   8.815  22.184  0.00  0.00    +0.000 OA
ATOM     14  C   UNL     1      -0.329   9.784  22.417  0.00  0.00    +0.000 C 
ATOM     15  C   UNL     1      -0.041  11.086  21.688  0.00  0.00    +0.000 C 
ATOM     16  O   UNL     1       0.004  10.885  20.273  0.00  0.00    +0.000 OA
ENDBRANCH   5   7
BRANCH   1  19
ATOM     17  O   UNL     1       5.786   6.306  15.566  0.00  0.00    +0.000 OA
ATOM     18  C   UNL     1       5.568   5.121  15.379  0.00  0.00    +0.000 C 
ATOM     19  N   UNL     1       4.688   4.377  16.140  0.00  0.00    +0.000 N 
ATOM     20  H   UNL     1       4.592   3.400  15.901  0.00  0.00    +0.000 HD
BRANCH  18  21
ATOM     21  C   UNL     1       6.255   4.263  14.300  0.00  0.00    +0.000 C 
ATOM     22  C   UNL     1       5.263   3.676  13.292  0.00  0.00    +0.000 C 
ATOM     23  C   UNL     1       6.139   3.207  12.138  0.00  0.00    +0.000 C 
ATOM     24  C   UNL     1       7.354   4.130  12.138  0.00  0.00    +0.000 C 
ATOM     25  C   UNL     1       7.237   5.003  13.392  0.00  0.00    +0.000 C 
ENDBRANCH  18  21
ENDBRANCH   1  19
TORSDOF 3
ENDMDL
MODEL 6
REMARK VINA RESULT:      -7.5      4.631      7.593
REMARK  Name = 
REMARK  3 active torsions:
REMARK  status: ('A' for Active; 'I' for Inactive)
REMARK    1  A    between atoms: C_2  and  C_20
REMARK    2  A    between atoms: N_3  and  C_4
REMARK    3  A    between atoms: N_8  and  C_9
REMARK                            x       y       z     vdW  Elec       q    Type
REMARK                         _______ _______ _______ _____ _____    ______ ____
ROOT
ATOM      1  C   UNL     1       7.346   7.605  17.857  0.00  0.00    +0.000 C 
ATOM      2  C   UNL     1       7.520   7.014  16.466  0.00  0.00    +0.000 C 
ATOM      3  C   UNL     1       6.348   6.054  16.416  0.00  0.00    +0.000 C 
ATOM      4  O   UNL     1       5.852   5.659  15.371  0.00  0.00    +0.000 OA
ATOM      5  N   UNL     1       6.014   5.714  17.741  0.00  0.00    +0.000 N 
ATOM      6  C   UNL     1       6.902   6.391  18.668  0.00  0.00    +0.000 C 
ENDROOT
BRANCH   5   7
ATOM      7  C   UNL     1       4.994   4.814  18.145  0.00  0.00    +0.000 A 
ATOM      8  C   UNL     1       4.683   3.678  17.384  0.00  0.00    +0.000 A 
ATOM      9  C   UNL     1       3.681   2.786  17.782  0.00  0.00    +0.000 A 
ATOM     10  C   UNL     1       2.961   3.027  18.944  0.00  0.00    +0.000 A 
ATOM     11  C   UNL     1       3.256   4.149  19.719  0.00  0.00    +0.000 A 
ATOM     12  C   UNL     1       4.259   5.040  19.318  0.00  0.00    +0.000 A 
ATOM     13  O   UNL     1       2.594   4.451  20.883  0.00  0.00    +0.000 OA
ATOM     14  C   UNL     1       1.839   3.334  21.367  0.00  0.00    +0.000 C 
ATOM     15  C   UNL     1       1.087   2.642  20.242  0.00  0.00    +0.000 C 
ATOM     16  O   UNL     1       1.990   2.117  19.266  0.00  0.00    +0.000 OA
ENDBRANCH   5   7
BRANCH   1  19
ATOM     17  O   UNL     1       7.785  10.505  17.649  0.00  0.00    +0.000 OA
ATOM     18  C   UNL     1       8.576   9.794  18.246  0.00  0.00    +0.000 C 
ATOM     19  N   UNL     1       8.417   8.432  18.394  0.00  0.00    +0.000 N 
ATOM     20  H   UNL     1       9.130   7.942  18.917  0.00  0.00    +0.000 HD
BRANCH  18  21
ATOM     21  C   UNL     1       9.847  10.300  18.953  0.00  0.00    +0.000 C 
ATOM     22  C   UNL     1      10.600  11.352  18.134  0.00  0.00    +0.000 C 
ATOM     23  C   UNL     1      11.566  11.979  19.131  0.00  0.00    +0.000 C 
ATOM     24  C   UNL     1      10.887  11.866  20.492  0.00  0.00    +0.000 C 
ATOM     25  C   UNL     1       9.623  11.026  20.280  0.00  0.00    +0.000 C 
ENDBRANCH  18  21
ENDBRANCH   1  19
TORSDOF 3
ENDMDL
MODEL 7
REMARK VINA RESULT:      -7.4      1.513      1.912
REMARK  Name = 
REMARK  3 active torsions:
REMARK  status: ('A' for Active; 'I' for Inactive)
REMARK    1  A    between atoms: C_2  and  C_20
REMARK    2  A    between atoms: N_3  and  C_4
REMARK    3  A    between atoms: N_8  and  C_9
REMARK                            x       y       z     vdW  Elec       q    Type
REMARK                         _______ _______ _______ _____ _____    ______ ____
ROOT
ATOM      1  C   UNL     1       2.750   5.809  19.943  0.00  0.00    +0.000 C 
ATOM      2  C   UNL     1       2.386   4.346  19.734  0.00  0.00    +0.000 C 
ATOM      3  C   UNL     1       3.487   3.911  18.787  0.00  0.00    +0.000 C 
ATOM      4  O   UNL     1       3.839   2.747  18.660  0.00  0.00    +0.000 OA
ATOM      5  N   UNL     1       3.947   5.056  18.109  0.00  0.00    +0.000 N 
ATOM      6  C   UNL     1       3.211   6.226  18.549  0.00  0.00    +0.000 C 
ENDROOT
BRANCH   5   7
ATOM      7  C   UNL     1       4.952   5.091  17.107  0.00  0.00    +0.000 A 
ATOM      8  C   UNL     1       6.197   5.689  17.346  0.00  0.00    +0.000 A 
ATOM      9  C   UNL     1       7.191   5.722  16.361  0.00  0.00    +0.000 A 
ATOM     10  C   UNL     1       6.947   5.168  15.112  0.00  0.00    +0.000 A 
ATOM     11  C   UNL     1       5.716   4.564  14.853  0.00  0.00    +0.000 A 
ATOM     12  C   UNL     1       4.723   4.533  15.840  0.00  0.00    +0.000 A 
ATOM     13  O   UNL     1       5.402   3.989  13.647  0.00  0.00    +0.000 OA
ATOM     14  C   UNL     1       6.569   3.782  12.840  0.00  0.00    +0.000 C 
ATOM     15  C   UNL     1       7.487   4.992  12.871  0.00  0.00    +0.000 C 
ATOM     16  O   UNL     1       7.961   5.245  14.196  0.00  0.00    +0.000 OA
ENDBRANCH   5   7
BRANCH   1  19
ATOM     17  O   UNL     1       1.931   8.574  19.373  0.00  0.00    +0.000 OA
ATOM     18  C   UNL     1       1.466   7.968  20.324  0.00  0.00    +0.000 C 
ATOM     19  N   UNL     1       1.796   6.664  20.633  0.00  0.00    +0.000 N 
ATOM     20  H   UNL     1       1.343   6.257  21.440  0.00  0.00    +0.000 HD
BRANCH  18  21
ATOM     21  C   UNL     1       0.423   8.540  21.301  0.00  0.00    +0.000 C 
ATOM     22  C   UNL     1       1.047   9.033  22.609  0.00  0.00    +0.000 C 
ATOM     23  C   UNL     1      -0.047   9.878  23.249  0.00  0.00    +0.000 C 
ATOM     24  C   UNL     1      -0.864  10.443  22.090  0.00  0.00    +0.000 C 
ATOM     25  C   UNL     1      -0.331   9.779  20.817  0.00  0.00    +0.000 C 
ENDBRANCH  18  21
ENDBRANCH   1  19
TORSDOF 3
ENDMDL
MODEL 8
REMARK VINA RESULT:      -7.3      1.641      8.843
REMARK  Name = 
REMARK  3 active torsions:
REMARK  status: ('A' for Active; 'I' for Inactive)
REMARK    1  A    between atoms: C_2  and  C_20
REMARK    2  A    between atoms: N_3  and  C_4
REMARK    3  A    between atoms: N_8  and  C_9
REMARK                            x       y       z     vdW  Elec       q    Type
REMARK                         _______ _______ _______ _____ _____    ______ ____
ROOT
ATOM      1  C   UNL     1       3.472   5.289  17.755  0.00  0.00    +0.000 C 
ATOM      2  C   UNL     1       3.562   4.659  19.137  0.00  0.00    +0.000 C 
ATOM      3  C   UNL     1       2.616   5.550  19.918  0.00  0.00    +0.000 C 
ATOM      4  O   UNL     1       2.067   5.199  20.952  0.00  0.00    +0.000 OA
ATOM      5  N   UNL     1       2.553   6.793  19.258  0.00  0.00    +0.000 N 
ATOM      6  C   UNL     1       3.407   6.778  18.085  0.00  0.00    +0.000 C 
ENDROOT
BRANCH   5   7
ATOM      7  C   UNL     1       1.808   7.927  19.673  0.00  0.00    +0.000 A 
ATOM      8  C   UNL     1       1.472   8.947  18.771  0.00  0.00    +0.000 A 
ATOM      9  C   UNL     1       0.734  10.064  19.176  0.00  0.00    +0.000 A 
ATOM     10  C   UNL     1       0.332  10.186  20.499  0.00  0.00    +0.000 A 
ATOM     11  C   UNL     1       0.651   9.182  21.413  0.00  0.00    +0.000 A 
ATOM     12  C   UNL     1       1.391   8.065  21.005  0.00  0.00    +0.000 A 
ATOM     13  O   UNL     1       0.284   9.227  22.735  0.00  0.00    +0.000 OA
ATOM     14  C   UNL     1      -0.725  10.216  22.970  0.00  0.00    +0.000 C 
ATOM     15  C   UNL     1      -0.414  11.512  22.240  0.00  0.00    +0.000 C 
ATOM     16  O   UNL     1      -0.378  11.310  20.825  0.00  0.00    +0.000 OA
ENDBRANCH   5   7
BRANCH   1  19
ATOM     17  O   UNL     1       6.300   4.521  18.000  0.00  0.00    +0.000 OA
ATOM     18  C   UNL     1       5.744   4.522  16.915  0.00  0.00    +0.000 C 
ATOM     19  N   UNL     1       4.417   4.855  16.737  0.00  0.00    +0.000 N 
ATOM     20  H   UNL     1       4.058   4.813  15.792  0.00  0.00    +0.000 HD
BRANCH  18  21
ATOM     21  C   UNL     1       6.416   4.125  15.587  0.00  0.00    +0.000 C 
ATOM     22  C   UNL     1       5.403   3.773  14.495  0.00  0.00    +0.000 C 
ATOM     23  C   UNL     1       6.221   3.786  13.210  0.00  0.00    +0.000 C 
ATOM     24  C   UNL     1       7.343   4.793  13.443  0.00  0.00    +0.000 C 
ATOM     25  C   UNL     1       7.250   5.215  14.913  0.00  0.00    +0.000 C 
ENDBRANCH  18  21
ENDBRANCH   1  19
TORSDOF 3
ENDMDL
MODEL 9
REMARK VINA RESULT:      -7.3      5.010      7.252
REMARK  Name = 
REMARK  3 active torsions:
REMARK  status: ('A' for Active; 'I' for Inactive)
REMARK    1  A    between atoms: C_2  and  C_20
REMARK    2  A    between atoms: N_3  and  C_4
REMARK    3  A    between atoms: N_8  and  C_9
REMARK                            x       y       z     vdW  Elec       q    Type
REMARK                         _______ _______ _______ _____ _____    ______ ____
ROOT
ATOM      1  C   UNL     1       7.813   7.961  17.676  0.00  0.00    +0.000 C 
ATOM      2  C   UNL     1       8.447   7.191  18.826  0.00  0.00    +0.000 C 
ATOM      3  C   UNL     1       7.612   5.927  18.816  0.00  0.00    +0.000 C 
ATOM      4  O   UNL     1       7.998   4.866  19.286  0.00  0.00    +0.000 OA
ATOM      5  N   UNL     1       6.370   6.236  18.229  0.00  0.00    +0.000 N 
ATOM      6  C   UNL     1       6.332   7.636  17.852  0.00  0.00    +0.000 C 
ENDROOT
BRANCH   5   7
ATOM      7  C   UNL     1       5.279   5.346  18.054  0.00  0.00    +0.000 A 
ATOM      8  C   UNL     1       4.952   4.834  16.790  0.00  0.00    +0.000 A 
ATOM      9  C   UNL     1       3.880   3.953  16.615  0.00  0.00    +0.000 A 
ATOM     10  C   UNL     1       3.104   3.581  17.704  0.00  0.00    +0.000 A 
ATOM     11  C   UNL     1       3.412   4.075  18.972  0.00  0.00    +0.000 A 
ATOM     12  C   UNL     1       4.486   4.957  19.145  0.00  0.00    +0.000 A 
ATOM     13  O   UNL     1       2.698   3.749  20.097  0.00  0.00    +0.000 OA
ATOM     14  C   UNL     1       1.853   2.612  19.877  0.00  0.00    +0.000 C 
ATOM     15  C   UNL     1       1.135   2.705  18.541  0.00  0.00    +0.000 C 
ATOM     16  O   UNL     1       2.066   2.724  17.457  0.00  0.00    +0.000 OA
ENDBRANCH   5   7
BRANCH   1  19
ATOM     17  O   UNL     1       9.218   9.804  19.487  0.00  0.00    +0.000 OA
ATOM     18  C   UNL     1       8.838  10.174  18.389  0.00  0.00    +0.000 C 
ATOM     19  N   UNL     1       8.191   9.353  17.488  0.00  0.00    +0.000 N 
ATOM     20  H   UNL     1       7.928   9.765  16.602  0.00  0.00    +0.000 HD
BRANCH  18  21
ATOM     21  C   UNL     1       9.048  11.591  17.822  0.00  0.00    +0.000 C 
ATOM     22  C   UNL     1       8.654  12.688  18.814  0.00  0.00    +0.000 C 
ATOM     23  C   UNL     1       9.274  13.953  18.236  0.00  0.00    +0.000 C 
ATOM     24  C   UNL     1      10.515  13.495  17.475  0.00  0.00    +0.000 C 
ATOM     25  C   UNL     1      10.493  11.963  17.487  0.00  0.00    +0.000 C 
ENDBRANCH  18  21
ENDBRANCH   1  19
TORSDOF 3
ENDMDL
