MODEL 1
REMARK VINA RESULT:      -7.4      0.000      0.000
REMARK  Name = 
REMARK  5 active torsions:
REMARK  status: ('A' for Active; 'I' for Inactive)
REMARK    1  A    between atoms: C_1  and  C_2
REMARK    2  A    between atoms: C_2  and  C_3
REMARK    3  A    between atoms: C_3  and  O_4
REMARK    4  A    between atoms: O_4  and  C_5
REMARK    5  A    between atoms: C_5  and  C_7
REMARK                            x       y       z     vdW  Elec       q    Type
REMARK                         _______ _______ _______ _____ _____    ______ ____
ROOT
ATOM      1  C   UNL     1       5.453   4.765  16.121  0.00  0.00    +0.000 A 
ATOM      2  C   UNL     1       4.540   3.742  16.383  0.00  0.00    +0.000 A 
ATOM      3  N   UNL     1       3.796   4.212  17.420  0.00  0.00    +0.000 N 
ATOM      4  C   UNL     1       4.230   5.468  17.714  0.00  0.00    +0.000 A 
ATOM      5  N   UNL     1       5.227   5.855  16.966  0.00  0.00    +0.000 NA
ATOM      6  S   UNL     1       3.378   6.187  19.042  0.00  0.00    +0.000 S 
ATOM      7  C   UNL     1       2.410   4.679  19.176  0.00  0.00    +0.000 A 
ATOM      8  C   UNL     1       1.410   4.401  20.090  0.00  0.00    +0.000 A 
ATOM      9  C   UNL     1       0.785   3.150  20.025  0.00  0.00    +0.000 A 
ATOM     10  C   UNL     1       1.163   2.198  19.059  0.00  0.00    +0.000 A 
ATOM     11  C   UNL     1       2.174   2.475  18.135  0.00  0.00    +0.000 A 
ATOM     12  C   UNL     1       2.772   3.718  18.217  0.00  0.00    +0.000 A 
ENDROOT
BRANCH   1  13
ATOM     13  C   UNL     1       6.554   4.694  15.156  0.00  0.00    +0.000 C 
ATOM     14  O   UNL     1       7.455   5.525  15.102  0.00  0.00    +0.000 OA
BRANCH  13  15
ATOM     15  O   UNL     1       6.401   3.656  14.282  0.00  0.00    +0.000 OA
BRANCH  15  16
ATOM     16  C   UNL     1       6.556   3.968  12.892  0.00  0.00    +0.000 C 
BRANCH  16  18
ATOM     17  C   UNL     1       4.483   3.333  11.643  0.00  0.00    +0.000 C 
ATOM     18  C   UNL     1       5.895   2.911  12.018  0.00  0.00    +0.000 C 
ENDBRANCH  16  18
ENDBRANCH  15  16
ENDBRANCH  13  15
ENDBRANCH   1  13
TORSDOF 4
ENDMDL
MODEL 2
REMARK VINA RESULT:      -7.2      1.038      1.193
REMARK  Name = 
REMARK  5 active torsions:
REMARK  status: ('A' for Active; 'I' for Inactive)
REMARK    1  A    between atoms: C_1  and  C_2
REMARK    2  A    between atoms: C_2  and  C_3
REMARK    3  A    between atoms: C_3  and  O_4
REMARK    4  A    between atoms: O_4  and  C_5
REMARK    5  A    between atoms: C_5  and  C_7
REMARK                            x       y       z     vdW  Elec       q    Type
REMARK                         _______ _______ _______ _____ _____    ______ ____
ROOT
ATOM      1  C   UNL     1       5.666   5.036  16.904  0.00  0.00    +0.000 A 
ATOM      2  C   UNL     1       5.033   3.918  17.451  0.00  0.00    +0.000 A 
ATOM      3  N   UNL     1       4.024   4.437  18.201  0.00  0.00    +0.000 N 
ATOM      4  C   UNL     1       4.045   5.790  18.058  0.00  0.00    +0.000 A 
ATOM      5  N   UNL     1       5.013   6.209  17.290  0.00  0.00    +0.000 NA
ATOM      6  S   UNL     1       2.817   6.589  18.984  0.00  0.00    +0.000 S 
ATOM      7  C   UNL     1       2.284   4.980  19.580  0.00  0.00    +0.000 A 
ATOM      8  C   UNL     1       1.256   4.709  20.464  0.00  0.00    +0.000 A 
ATOM      9  C   UNL     1       1.013   3.374  20.807  0.00  0.00    +0.000 A 
ATOM     10  C   UNL     1       1.794   2.333  20.270  0.00  0.00    +0.000 A 
ATOM     11  C   UNL     1       2.835   2.602  19.377  0.00  0.00    +0.000 A 
ATOM     12  C   UNL     1       3.052   3.928  19.052  0.00  0.00    +0.000 A 
ENDROOT
BRANCH   1  13
ATOM     13  C   UNL     1       6.894   5.010  16.103  0.00  0.00    +0.000 C 
ATOM     14  O   UNL     1       7.959   4.567  16.522  0.00  0.00    +0.000 OA
BRANCH  13  15
ATOM     15  O   UNL     1       6.726   5.613  14.891  0.00  0.00    +0.000 OA
BRANCH  15  16
ATOM     16  C   UNL     1       6.984   4.805  13.737  0.00  0.00    +0.000 C 
BRANCH  16  18
ATOM     17  C   UNL     1       6.003   3.147  12.139  0.00  0.00    +0.000 C 
ATOM     18  C   UNL     1       5.848   3.819  13.495  0.00  0.00    +0.000 C 
ENDBRANCH  16  18
ENDBRANCH  15  16
ENDBRANCH  13  15
ENDBRANCH   1  13
TORSDOF 4
ENDMDL
MODEL 3
REMARK VINA RESULT:      -7.1      2.039      2.662
REMARK  Name = 
REMARK  5 active torsions:
REMARK  status: ('A' for Active; 'I' for Inactive)
REMARK    1  A    between atoms: C_1  and  C_2
REMARK    2  A    between atoms: C_2  and  C_3
REMARK    3  A    between atoms: C_3  and  O_4
REMARK    4  A    between atoms: O_4  and  C_5
REMARK    5  A    between atoms: C_5  and  C_7
REMARK                            x       y       z     vdW  Elec       q    Type
REMARK                         _______ _______ _______ _____ _____    ______ ____
ROOT
ATOM      1  C   UNL     1       6.033   5.032  15.666  0.00  0.00    +0.000 A 
ATOM      2  C   UNL     1       5.247   6.164  15.893  0.00  0.00    +0.000 A 
ATOM      3  N   UNL     1       4.662   5.930  17.099  0.00  0.00    +0.000 N 
ATOM      4  C   UNL     1       5.124   4.739  17.568  0.00  0.00    +0.000 A 
ATOM      5  N   UNL     1       5.951   4.151  16.747  0.00  0.00    +0.000 NA
ATOM      6  S   UNL     1       4.439   4.301  19.099  0.00  0.00    +0.000 S 
ATOM      7  C   UNL     1       3.486   5.824  19.056  0.00  0.00    +0.000 A 
ATOM      8  C   UNL     1       2.584   6.277  20.000  0.00  0.00    +0.000 A 
ATOM      9  C   UNL     1       1.937   7.497  19.765  0.00  0.00    +0.000 A 
ATOM     10  C   UNL     1       2.195   8.242  18.598  0.00  0.00    +0.000 A 
ATOM     11  C   UNL     1       3.106   7.787  17.641  0.00  0.00    +0.000 A 
ATOM     12  C   UNL     1       3.734   6.583  17.899  0.00  0.00    +0.000 A 
ENDROOT
BRANCH   1  13
ATOM     13  C   UNL     1       6.780   4.751  14.436  0.00  0.00    +0.000 C 
ATOM     14  O   UNL     1       7.665   5.483  14.006  0.00  0.00    +0.000 OA
BRANCH  13  15
ATOM     15  O   UNL     1       6.311   3.640  13.797  0.00  0.00    +0.000 OA
BRANCH  15  16
ATOM     16  C   UNL     1       6.467   3.613  12.373  0.00  0.00    +0.000 C 
BRANCH  16  18
ATOM     17  C   UNL     1       4.186   3.259  11.405  0.00  0.00    +0.000 C 
ATOM     18  C   UNL     1       5.519   2.605  11.738  0.00  0.00    +0.000 C 
ENDBRANCH  16  18
ENDBRANCH  15  16
ENDBRANCH  13  15
ENDBRANCH   1  13
TORSDOF 4
ENDMDL
MODEL 4
REMARK VINA RESULT:      -7.0      1.534      2.174
REMARK  Name = 
REMARK  5 active torsions:
REMARK  status: ('A' for Active; 'I' for Inactive)
REMARK    1  A    between atoms: C_1  and  C_2
REMARK    2  A    between atoms: C_2  and  C_3
REMARK    3  A    between atoms: C_3  and  O_4
REMARK    4  A    between atoms: O_4  and  C_5
REMARK    5  A    between atoms: C_5  and  C_7
REMARK                            x       y       z     vdW  Elec       q    Type
REMARK                         _______ _______ _______ _____ _____    ______ ____
ROOT
ATOM      1  C   UNL     1       5.964   4.874  17.000  0.00  0.00    +0.000 A 
ATOM      2  C   UNL     1       5.201   5.517  17.976  0.00  0.00    +0.000 A 
ATOM      3  N   UNL     1       4.231   4.618  18.291  0.00  0.00    +0.000 N 
ATOM      4  C   UNL     1       4.449   3.489  17.563  0.00  0.00    +0.000 A 
ATOM      5  N   UNL     1       5.479   3.584  16.767  0.00  0.00    +0.000 NA
ATOM      6  S   UNL     1       3.265   2.256  17.850  0.00  0.00    +0.000 S 
ATOM      7  C   UNL     1       2.455   3.368  19.005  0.00  0.00    +0.000 A 
ATOM      8  C   UNL     1       1.306   3.129  19.737  0.00  0.00    +0.000 A 
ATOM      9  C   UNL     1       0.835   4.143  20.578  0.00  0.00    +0.000 A 
ATOM     10  C   UNL     1       1.508   5.376  20.677  0.00  0.00    +0.000 A 
ATOM     11  C   UNL     1       2.669   5.622  19.939  0.00  0.00    +0.000 A 
ATOM     12  C   UNL     1       3.115   4.603  19.119  0.00  0.00    +0.000 A 
ENDROOT
BRANCH   1  13
ATOM     13  C   UNL     1       7.072   5.478  16.254  0.00  0.00    +0.000 C 
ATOM     14  O   UNL     1       7.470   6.621  16.451  0.00  0.00    +0.000 OA
BRANCH  13  15
ATOM     15  O   UNL     1       7.532   4.653  15.268  0.00  0.00    +0.000 OA
BRANCH  15  16
ATOM     16  C   UNL     1       7.066   4.927  13.942  0.00  0.00    +0.000 C 
BRANCH  16  18
ATOM     17  C   UNL     1       6.516   3.381  12.053  0.00  0.00    +0.000 C 
ATOM     18  C   UNL     1       6.129   3.831  13.454  0.00  0.00    +0.000 C 
ENDBRANCH  16  18
ENDBRANCH  15  16
ENDBRANCH  13  15
ENDBRANCH   1  13
TORSDOF 4
ENDMDL
MODEL 5
REMARK VINA RESULT:      -7.0      2.460      3.795
REMARK  Name = 
REMARK  5 active torsions:
REMARK  status: ('A' for Active; 'I' for Inactive)
REMARK    1  A    between atoms: C_1  and  C_2
REMARK    2  A    between atoms: C_2  and  C_3
REMARK    3  A    between atoms: C_3  and  O_4
REMARK    4  A    between atoms: O_4  and  C_5
REMARK    5  A    between atoms: C_5  and  C_7
REMARK                            x       y       z     vdW  Elec       q    Type
REMARK                         _______ _______ _______ _____ _____    ______ ____
ROOT
ATOM      1  C   UNL     1       5.826   5.422  17.042  0.00  0.00    +0.000 A 
ATOM      2  C   UNL     1       5.522   4.367  17.905  0.00  0.00    +0.000 A 
ATOM      3  N   UNL     1       4.331   4.719  18.459  0.00  0.00    +0.000 N 
ATOM      4  C   UNL     1       3.942   5.902  17.909  0.00  0.00    +0.000 A 
ATOM      5  N   UNL     1       4.803   6.375  17.051  0.00  0.00    +0.000 NA
ATOM      6  S   UNL     1       2.439   6.485  18.546  0.00  0.00    +0.000 S 
ATOM      7  C   UNL     1       2.378   5.035  19.605  0.00  0.00    +0.000 A 
ATOM      8  C   UNL     1       1.402   4.708  20.528  0.00  0.00    +0.000 A 
ATOM      9  C   UNL     1       1.554   3.526  21.262  0.00  0.00    +0.000 A 
ATOM     10  C   UNL     1       2.671   2.691  21.069  0.00  0.00    +0.000 A 
ATOM     11  C   UNL     1       3.661   3.017  20.138  0.00  0.00    +0.000 A 
ATOM     12  C   UNL     1       3.485   4.187  19.424  0.00  0.00    +0.000 A 
ENDROOT
BRANCH   1  13
ATOM     13  C   UNL     1       7.075   5.571  16.289  0.00  0.00    +0.000 C 
ATOM     14  O   UNL     1       7.613   4.644  15.692  0.00  0.00    +0.000 OA
BRANCH  13  15
ATOM     15  O   UNL     1       7.600   6.824  16.413  0.00  0.00    +0.000 OA
BRANCH  15  16
ATOM     16  C   UNL     1       7.806   7.297  17.749  0.00  0.00    +0.000 C 
BRANCH  16  18
ATOM     17  C   UNL     1       8.809   9.393  18.678  0.00  0.00    +0.000 C 
ATOM     18  C   UNL     1       7.697   8.815  17.816  0.00  0.00    +0.000 C 
ENDBRANCH  16  18
ENDBRANCH  15  16
ENDBRANCH  13  15
ENDBRANCH   1  13
TORSDOF 4
ENDMDL
MODEL 6
REMARK VINA RESULT:      -7.0      2.764      4.307
REMARK  Name = 
REMARK  5 active torsions:
REMARK  status: ('A' for Active; 'I' for Inactive)
REMARK    1  A    between atoms: C_1  and  C_2
REMARK    2  A    between atoms: C_2  and  C_3
REMARK    3  A    between atoms: C_3  and  O_4
REMARK    4  A    between atoms: O_4  and  C_5
REMARK    5  A    between atoms: C_5  and  C_7
REMARK                            x       y       z     vdW  Elec       q    Type
REMARK                         _______ _______ _______ _____ _____    ______ ____
ROOT
ATOM      1  C   UNL     1       5.776   5.430  17.218  0.00  0.00    +0.000 A 
ATOM      2  C   UNL     1       4.873   5.805  18.215  0.00  0.00    +0.000 A 
ATOM      3  N   UNL     1       4.074   4.716  18.371  0.00  0.00    +0.000 N 
ATOM      4  C   UNL     1       4.522   3.740  17.535  0.00  0.00    +0.000 A 
ATOM      5  N   UNL     1       5.544   4.113  16.814  0.00  0.00    +0.000 NA
ATOM      6  S   UNL     1       3.575   2.291  17.613  0.00  0.00    +0.000 S 
ATOM      7  C   UNL     1       2.534   3.093  18.838  0.00  0.00    +0.000 A 
ATOM      8  C   UNL     1       1.423   2.566  19.472  0.00  0.00    +0.000 A 
ATOM      9  C   UNL     1       0.744   3.371  20.394  0.00  0.00    +0.000 A 
ATOM     10  C   UNL     1       1.176   4.683  20.669  0.00  0.00    +0.000 A 
ATOM     11  C   UNL     1       2.297   5.219  20.030  0.00  0.00    +0.000 A 
ATOM     12  C   UNL     1       2.952   4.403  19.128  0.00  0.00    +0.000 A 
ENDROOT
BRANCH   1  13
ATOM     13  C   UNL     1       6.780   6.308  16.608  0.00  0.00    +0.000 C 
ATOM     14  O   UNL     1       7.559   5.933  15.738  0.00  0.00    +0.000 OA
BRANCH  13  15
ATOM     15  O   UNL     1       6.798   7.544  17.188  0.00  0.00    +0.000 OA
BRANCH  15  16
ATOM     16  C   UNL     1       7.991   7.896  17.897  0.00  0.00    +0.000 C 
BRANCH  16  18
ATOM     17  C   UNL     1       9.053   9.832  19.074  0.00  0.00    +0.000 C 
ATOM     18  C   UNL     1       8.213   9.402  17.880  0.00  0.00    +0.000 C 
ENDBRANCH  16  18
ENDBRANCH  15  16
ENDBRANCH  13  15
ENDBRANCH   1  13
TORSDOF 4
ENDMDL
MODEL 7
REMARK VINA RESULT:      -7.0      0.821      1.009
REMARK  Name = 
REMARK  5 active torsions:
REMARK  status: ('A' for Active; 'I' for Inactive)
REMARK    1  A    between atoms: C_1  and  C_2
REMARK    2  A    between atoms: C_2  and  C_3
REMARK    3  A    between atoms: C_3  and  O_4
REMARK    4  A    between atoms: O_4  and  C_5
REMARK    5  A    between atoms: C_5  and  C_7
REMARK                            x       y       z     vdW  Elec       q    Type
REMARK                         _______ _______ _______ _____ _____    ______ ____
ROOT
ATOM      1  C   UNL     1       5.371   4.897  16.376  0.00  0.00    +0.000 A 
ATOM      2  C   UNL     1       4.705   3.815  16.955  0.00  0.00    +0.000 A 
ATOM      3  N   UNL     1       3.865   4.383  17.860  0.00  0.00    +0.000 N 
ATOM      4  C   UNL     1       4.005   5.735  17.776  0.00  0.00    +0.000 A 
ATOM      5  N   UNL     1       4.900   6.103  16.901  0.00  0.00    +0.000 NA
ATOM      6  S   UNL     1       3.001   6.592  18.899  0.00  0.00    +0.000 S 
ATOM      7  C   UNL     1       2.390   5.010  19.491  0.00  0.00    +0.000 A 
ATOM      8  C   UNL     1       1.466   4.788  20.496  0.00  0.00    +0.000 A 
ATOM      9  C   UNL     1       1.135   3.464  20.809  0.00  0.00    +0.000 A 
ATOM     10  C   UNL     1       1.726   2.386  20.123  0.00  0.00    +0.000 A 
ATOM     11  C   UNL     1       2.661   2.606  19.107  0.00  0.00    +0.000 A 
ATOM     12  C   UNL     1       2.967   3.921  18.815  0.00  0.00    +0.000 A 
ENDROOT
BRANCH   1  13
ATOM     13  C   UNL     1       6.472   4.799  15.412  0.00  0.00    +0.000 C 
ATOM     14  O   UNL     1       7.339   5.659  15.294  0.00  0.00    +0.000 OA
BRANCH  13  15
ATOM     15  O   UNL     1       6.357   3.696  14.616  0.00  0.00    +0.000 OA
BRANCH  15  16
ATOM     16  C   UNL     1       5.662   3.878  13.376  0.00  0.00    +0.000 C 
BRANCH  16  18
ATOM     17  C   UNL     1       7.419   4.669  11.780  0.00  0.00    +0.000 C 
ATOM     18  C   UNL     1       6.544   3.496  12.195  0.00  0.00    +0.000 C 
ENDBRANCH  16  18
ENDBRANCH  15  16
ENDBRANCH  13  15
ENDBRANCH   1  13
TORSDOF 4
ENDMDL
MODEL 8
REMARK VINA RESULT:      -6.9      1.871      3.106
REMARK  Name = 
REMARK  5 active torsions:
REMARK  status: ('A' for Active; 'I' for Inactive)
REMARK    1  A    between atoms: C_1  and  C_2
REMARK    2  A    between atoms: C_2  and  C_3
REMARK    3  A    between atoms: C_3  and  O_4
REMARK    4  A    between atoms: O_4  and  C_5
REMARK    5  A    between atoms: C_5  and  C_7
REMARK                            x       y       z     vdW  Elec       q    Type
REMARK                         _______ _______ _______ _____ _____    ______ ____
ROOT
ATOM      1  C   UNL     1       5.091   5.350  16.509  0.00  0.00    +0.000 A 
ATOM      2  C   UNL     1       4.534   4.162  16.988  0.00  0.00    +0.000 A 
ATOM      3  N   UNL     1       3.620   4.568  17.910  0.00  0.00    +0.000 N 
ATOM      4  C   UNL     1       3.617   5.929  17.931  0.00  0.00    +0.000 A 
ATOM      5  N   UNL     1       4.484   6.456  17.110  0.00  0.00    +0.000 NA
ATOM      6  S   UNL     1       2.506   6.587  19.087  0.00  0.00    +0.000 S 
ATOM      7  C   UNL     1       2.056   4.908  19.542  0.00  0.00    +0.000 A 
ATOM      8  C   UNL     1       1.143   4.514  20.502  0.00  0.00    +0.000 A 
ATOM      9  C   UNL     1       0.949   3.142  20.706  0.00  0.00    +0.000 A 
ATOM     10  C   UNL     1       1.664   2.188  19.957  0.00  0.00    +0.000 A 
ATOM     11  C   UNL     1       2.589   2.583  18.987  0.00  0.00    +0.000 A 
ATOM     12  C   UNL     1       2.759   3.942  18.802  0.00  0.00    +0.000 A 
ENDROOT
BRANCH   1  13
ATOM     13  C   UNL     1       6.214   5.443  15.571  0.00  0.00    +0.000 C 
ATOM     14  O   UNL     1       6.172   5.001  14.427  0.00  0.00    +0.000 OA
BRANCH  13  15
ATOM     15  O   UNL     1       7.321   5.991  16.152  0.00  0.00    +0.000 OA
BRANCH  15  16
ATOM     16  C   UNL     1       7.603   5.579  17.494  0.00  0.00    +0.000 C 
BRANCH  16  18
ATOM     17  C   UNL     1       7.790   8.072  17.592  0.00  0.00    +0.000 C 
ATOM     18  C   UNL     1       7.890   6.779  18.387  0.00  0.00    +0.000 C 
ENDBRANCH  16  18
ENDBRANCH  15  16
ENDBRANCH  13  15
ENDBRANCH   1  13
TORSDOF 4
ENDMDL
MODEL 9
REMARK VINA RESULT:      -6.9      1.235      1.441
REMARK  Name = 
REMARK  5 active torsions:
REMARK  status: ('A' for Active; 'I' for Inactive)
REMARK    1  A    between atoms: C_1  and  C_2
REMARK    2  A    between atoms: C_2  and  C_3
REMARK    3  A    between atoms: C_3  and  O_4
REMARK    4  A    between atoms: O_4  and  C_5
REMARK    5  A    between atoms: C_5  and  C_7
REMARK                            x       y       z     vdW  Elec       q    Type
REMARK                         _______ _______ _______ _____ _____    ______ ____
ROOT
ATOM      1  C   UNL     1       6.176   4.743  15.556  0.00  0.00    +0.000 A 
ATOM      2  C   UNL     1       4.824   4.420  15.693  0.00  0.00    +0.000 A 
ATOM      3  N   UNL     1       4.573   4.581  17.020  0.00  0.00    +0.000 N 
ATOM      4  C   UNL     1       5.715   5.021  17.616  0.00  0.00    +0.000 A 
ATOM      5  N   UNL     1       6.715   5.136  16.784  0.00  0.00    +0.000 NA
ATOM      6  S   UNL     1       5.545   5.249  19.325  0.00  0.00    +0.000 S 
ATOM      7  C   UNL     1       3.839   4.703  19.181  0.00  0.00    +0.000 A 
ATOM      8  C   UNL     1       2.909   4.574  20.197  0.00  0.00    +0.000 A 
ATOM      9  C   UNL     1       1.628   4.119  19.866  0.00  0.00    +0.000 A 
ATOM     10  C   UNL     1       1.291   3.799  18.536  0.00  0.00    +0.000 A 
ATOM     11  C   UNL     1       2.228   3.928  17.507  0.00  0.00    +0.000 A 
ATOM     12  C   UNL     1       3.485   4.382  17.860  0.00  0.00    +0.000 A 
ENDROOT
BRANCH   1  13
ATOM     13  C   UNL     1       6.959   4.616  14.323  0.00  0.00    +0.000 C 
ATOM     14  O   UNL     1       7.753   5.469  13.942  0.00  0.00    +0.000 OA
BRANCH  13  15
ATOM     15  O   UNL     1       6.627   3.492  13.622  0.00  0.00    +0.000 OA
BRANCH  15  16
ATOM     16  C   UNL     1       6.381   3.667  12.222  0.00  0.00    +0.000 C 
BRANCH  16  18
ATOM     17  C   UNL     1       6.375   1.403  11.157  0.00  0.00    +0.000 C 
ATOM     18  C   UNL     1       5.511   2.543  11.675  0.00  0.00    +0.000 C 
ENDBRANCH  16  18
ENDBRANCH  15  16
ENDBRANCH  13  15
ENDBRANCH   1  13
TORSDOF 4
ENDMDL
