MODEL 1
REMARK VINA RESULT:      -7.8      0.000      0.000
REMARK  Name = 
REMARK  14 active torsions:
REMARK  status: ('A' for Active; 'I' for Inactive)
REMARK    1  A    between atoms: C_1  and  C_2
REMARK    2  A    between atoms: C_2  and  N_3
REMARK    3  A    between atoms: N_3  and  C_4
REMARK    4  A    between atoms: C_4  and  C_5
REMARK    5  A    between atoms: C_6  and  C_8
REMARK    6  A    between atoms: C_8  and  N_9
REMARK    7  A    between atoms: N_9  and  C_10
REMARK    8  A    between atoms: C_14  and  C_15
REMARK    9  A    between atoms: C_18  and  C_19
REMARK   10  A    between atoms: C_22  and  O_23
REMARK   11  A    between atoms: O_23  and  C_24
REMARK   12  A    between atoms: C_24  and  C_25
REMARK   13  A    between atoms: C_24  and  C_26
REMARK   14  A    between atoms: C_27  and  C_28
REMARK                            x       y       z     vdW  Elec       q    Type
REMARK                         _______ _______ _______ _____ _____    ______ ____
ROOT
ATOM      1  C   UNL     1      -1.344  12.198  18.823  0.00  0.00    +0.000 C 
ATOM      2  C   UNL     1      -1.366  10.993  17.847  0.00  0.00    +0.000 C 
ATOM      3  C   UNL     1      -0.212  10.074  18.271  0.00  0.00    +0.000 C 
ATOM      4  C   UNL     1      -0.177  10.313  19.755  0.00  0.00    +0.000 A 
ATOM      5  C   UNL     1       0.420   9.532  20.749  0.00  0.00    +0.000 A 
ATOM      6  C   UNL     1       0.314   9.959  22.082  0.00  0.00    +0.000 A 
ATOM      7  C   UNL     1      -0.312  11.162  22.398  0.00  0.00    +0.000 A 
ATOM      8  C   UNL     1      -0.856  11.951  21.391  0.00  0.00    +0.000 A 
ATOM      9  C   UNL     1      -0.828  11.517  20.071  0.00  0.00    +0.000 A 
ENDROOT
BRANCH   5  10
ATOM     10  C   UNL     1       1.131   8.304  20.454  0.00  0.00    +0.000 A 
ATOM     11  N   UNL     1       1.210   7.277  21.316  0.00  0.00    +0.000 NA
ATOM     12  O   UNL     1       1.982   6.341  20.642  0.00  0.00    +0.000 OA
ATOM     13  C   UNL     1       2.312   6.901  19.444  0.00  0.00    +0.000 A 
ATOM     14  N   UNL     1       1.829   8.111  19.283  0.00  0.00    +0.000 NA
BRANCH  13  15
ATOM     15  C   UNL     1       3.169   6.109  18.582  0.00  0.00    +0.000 A 
ATOM     16  C   UNL     1       3.990   6.713  17.628  0.00  0.00    +0.000 A 
ATOM     17  C   UNL     1       4.769   5.932  16.775  0.00  0.00    +0.000 A 
ATOM     18  C   UNL     1       4.753   4.530  16.845  0.00  0.00    +0.000 A 
ATOM     19  C   UNL     1       3.928   3.917  17.796  0.00  0.00    +0.000 A 
ATOM     20  C   UNL     1       3.160   4.712  18.671  0.00  0.00    +0.000 A 
BRANCH  19  21
ATOM     21  C   UNL     1       3.752   2.500  17.914  0.00  0.00    +0.000 C 
ATOM     22  N   UNL     1       3.573   1.360  18.034  0.00  0.00    +0.000 NA
ENDBRANCH  19  21
BRANCH  18  23
ATOM     23  O   UNL     1       5.513   3.961  15.861  0.00  0.00    +0.000 OA
BRANCH  23  24
ATOM     24  C   UNL     1       5.845   4.691  14.677  0.00  0.00    +0.000 C 
ATOM     25  C   UNL     1       7.354   4.915  14.674  0.00  0.00    +0.000 C 
ATOM     26  C   UNL     1       5.437   3.841  13.476  0.00  0.00    +0.000 C 
ENDBRANCH  23  24
ENDBRANCH  18  23
ENDBRANCH  13  15
ENDBRANCH   5  10
BRANCH   1  27
ATOM     27  N   UNL     1      -2.684  12.784  18.915  0.00  0.00    +0.000 NA
ATOM     28  H   UNL     1      -2.751  13.320  19.783  0.00  0.00    +0.000 HD
BRANCH  27  29
ATOM     29  C   UNL     1      -3.755  11.776  18.955  0.00  0.00    +0.000 C 
BRANCH  29  31
ATOM     30  N   UNL     1      -6.012  12.678  18.256  0.00  0.00    +0.000 N 
ATOM     31  C   UNL     1      -4.809  12.071  17.876  0.00  0.00    +0.000 C 
ATOM     32  O   UNL     1      -4.559  11.770  16.700  0.00  0.00    +0.000 OA
BRANCH  30  34
ATOM     33  C   UNL     1      -6.954  14.374  16.678  0.00  0.00    +0.000 C 
ATOM     34  C   UNL     1      -6.987  12.941  17.193  0.00  0.00    +0.000 C 
ENDBRANCH  30  34
BRANCH  30  35
ATOM     35  C   UNL     1      -6.328  12.972  19.663  0.00  0.00    +0.000 C 
ATOM     36  C   UNL     1      -7.484  12.236  20.324  0.00  0.00    +0.000 C 
ENDBRANCH  30  35
ENDBRANCH  29  31
ENDBRANCH  27  29
ENDBRANCH   1  27
TORSDOF 10
ENDMDL
MODEL 2
REMARK VINA RESULT:      -7.7      2.668     11.470
REMARK  Name = 
REMARK  14 active torsions:
REMARK  status: ('A' for Active; 'I' for Inactive)
REMARK    1  A    between atoms: C_1  and  C_2
REMARK    2  A    between atoms: C_2  and  N_3
REMARK    3  A    between atoms: N_3  and  C_4
REMARK    4  A    between atoms: C_4  and  C_5
REMARK    5  A    between atoms: C_6  and  C_8
REMARK    6  A    between atoms: C_8  and  N_9
REMARK    7  A    between atoms: N_9  and  C_10
REMARK    8  A    between atoms: C_14  and  C_15
REMARK    9  A    between atoms: C_18  and  C_19
REMARK   10  A    between atoms: C_22  and  O_23
REMARK   11  A    between atoms: O_23  and  C_24
REMARK   12  A    between atoms: C_24  and  C_25
REMARK   13  A    between atoms: C_24  and  C_26
REMARK   14  A    between atoms: C_27  and  C_28
REMARK                            x       y       z     vdW  Elec       q    Type
REMARK                         _______ _______ _______ _____ _____    ______ ____
ROOT
ATOM      1  C   UNL     1       2.885   5.648  19.471  0.00  0.00    +0.000 C 
ATOM      2  C   UNL     1       1.795   5.531  20.568  0.00  0.00    +0.000 C 
ATOM      3  C   UNL     1       1.563   6.951  21.100  0.00  0.00    +0.000 C 
ATOM      4  C   UNL     1       1.829   7.772  19.869  0.00  0.00    +0.000 A 
ATOM      5  C   UNL     1       1.463   9.096  19.610  0.00  0.00    +0.000 A 
ATOM      6  C   UNL     1       1.821   9.654  18.372  0.00  0.00    +0.000 A 
ATOM      7  C   UNL     1       2.576   8.928  17.455  0.00  0.00    +0.000 A 
ATOM      8  C   UNL     1       2.975   7.629  17.751  0.00  0.00    +0.000 A 
ATOM      9  C   UNL     1       2.574   7.029  18.938  0.00  0.00    +0.000 A 
ENDROOT
BRANCH   5  10
ATOM     10  C   UNL     1       0.727   9.903  20.562  0.00  0.00    +0.000 A 
ATOM     11  N   UNL     1       1.137  10.106  21.825  0.00  0.00    +0.000 NA
ATOM     12  O   UNL     1       0.141  10.905  22.369  0.00  0.00    +0.000 OA
ATOM     13  C   UNL     1      -0.786  11.092  21.388  0.00  0.00    +0.000 A 
ATOM     14  N   UNL     1      -0.485  10.486  20.263  0.00  0.00    +0.000 NA
BRANCH  13  15
ATOM     15  C   UNL     1      -1.957  11.867  21.753  0.00  0.00    +0.000 A 
ATOM     16  C   UNL     1      -2.212  12.207  23.082  0.00  0.00    +0.000 A 
ATOM     17  C   UNL     1      -3.370  12.909  23.418  0.00  0.00    +0.000 A 
ATOM     18  C   UNL     1      -4.305  13.292  22.444  0.00  0.00    +0.000 A 
ATOM     19  C   UNL     1      -4.058  12.950  21.108  0.00  0.00    +0.000 A 
ATOM     20  C   UNL     1      -2.876  12.259  20.771  0.00  0.00    +0.000 A 
BRANCH  19  21
ATOM     21  C   UNL     1      -4.970  13.201  20.032  0.00  0.00    +0.000 C 
ATOM     22  N   UNL     1      -5.698  13.447  19.164  0.00  0.00    +0.000 NA
ENDBRANCH  19  21
BRANCH  18  23
ATOM     23  O   UNL     1      -5.406  13.883  22.997  0.00  0.00    +0.000 OA
BRANCH  23  24
ATOM     24  C   UNL     1      -6.704  13.302  22.848  0.00  0.00    +0.000 C 
ATOM     25  C   UNL     1      -7.146  12.785  24.213  0.00  0.00    +0.000 C 
ATOM     26  C   UNL     1      -7.653  14.398  22.369  0.00  0.00    +0.000 C 
ENDBRANCH  23  24
ENDBRANCH  18  23
ENDBRANCH  13  15
ENDBRANCH   5  10
BRANCH   1  27
ATOM     27  N   UNL     1       2.749   4.544  18.518  0.00  0.00    +0.000 NA
ATOM     28  H   UNL     1       1.865   4.062  18.694  0.00  0.00    +0.000 HD
BRANCH  27  29
ATOM     29  C   UNL     1       3.814   3.535  18.644  0.00  0.00    +0.000 C 
BRANCH  29  31
ATOM     30  N   UNL     1       5.707   4.598  17.348  0.00  0.00    +0.000 N 
ATOM     31  C   UNL     1       5.196   4.205  18.591  0.00  0.00    +0.000 C 
ATOM     32  O   UNL     1       5.813   4.384  19.651  0.00  0.00    +0.000 OA
BRANCH  30  34
ATOM     33  C   UNL     1       6.971   6.756  17.308  0.00  0.00    +0.000 C 
ATOM     34  C   UNL     1       7.028   5.234  17.346  0.00  0.00    +0.000 C 
ENDBRANCH  30  34
BRANCH  30  35
ATOM     35  C   UNL     1       4.997   4.323  16.089  0.00  0.00    +0.000 C 
ATOM     36  C   UNL     1       5.808   4.134  14.816  0.00  0.00    +0.000 C 
ENDBRANCH  30  35
ENDBRANCH  29  31
ENDBRANCH  27  29
ENDBRANCH   1  27
TORSDOF 10
ENDMDL
MODEL 3
REMARK VINA RESULT:      -7.6      3.495     11.508
REMARK  Name = 
REMARK  14 active torsions:
REMARK  status: ('A' for Active; 'I' for Inactive)
REMARK    1  A    between atoms: C_1  and  C_2
REMARK    2  A    between atoms: C_2  and  N_3
REMARK    3  A    between atoms: N_3  and  C_4
REMARK    4  A    between atoms: C_4  and  C_5
REMARK    5  A    between atoms: C_6  and  C_8
REMARK    6  A    between atoms: C_8  and  N_9
REMARK    7  A    between atoms: N_9  and  C_10
REMARK    8  A    between atoms: C_14  and  C_15
REMARK    9  A    between atoms: C_18  and  C_19
REMARK   10  A    between atoms: C_22  and  O_23
REMARK   11  A    between atoms: O_23  and  C_24
REMARK   12  A    between atoms: C_24  and  C_25
REMARK   13  A    between atoms: C_24  and  C_26
REMARK   14  A    between atoms: C_27  and  C_28
REMARK                            x       y       z     vdW  Elec       q    Type
REMARK                         _______ _______ _______ _____ _____    ______ ____
ROOT
ATOM      1  C   UNL     1       3.067   5.201  19.366  0.00  0.00    +0.000 C 
ATOM      2  C   UNL     1       1.985   4.897  20.435  0.00  0.00    +0.000 C 
ATOM      3  C   UNL     1       1.637   6.240  21.090  0.00  0.00    +0.000 C 
ATOM      4  C   UNL     1       1.840   7.187  19.942  0.00  0.00    +0.000 A 
ATOM      5  C   UNL     1       1.369   8.496  19.799  0.00  0.00    +0.000 A 
ATOM      6  C   UNL     1       1.685   9.191  18.620  0.00  0.00    +0.000 A 
ATOM      7  C   UNL     1       2.501   8.615  17.651  0.00  0.00    +0.000 A 
ATOM      8  C   UNL     1       3.003   7.331  17.833  0.00  0.00    +0.000 A 
ATOM      9  C   UNL     1       2.647   6.595  18.957  0.00  0.00    +0.000 A 
ENDROOT
BRANCH   5  10
ATOM     10  C   UNL     1       0.565   9.151  20.811  0.00  0.00    +0.000 A 
ATOM     11  N   UNL     1      -0.124   8.481  21.750  0.00  0.00    +0.000 NA
ATOM     12  O   UNL     1      -0.748   9.484  22.478  0.00  0.00    +0.000 OA
ATOM     13  C   UNL     1      -0.391  10.665  21.897  0.00  0.00    +0.000 A 
ATOM     14  N   UNL     1       0.400  10.518  20.860  0.00  0.00    +0.000 NA
BRANCH  13  15
ATOM     15  C   UNL     1      -0.975  11.862  22.472  0.00  0.00    +0.000 A 
ATOM     16  C   UNL     1      -2.201  11.819  23.138  0.00  0.00    +0.000 A 
ATOM     17  C   UNL     1      -2.769  12.991  23.639  0.00  0.00    +0.000 A 
ATOM     18  C   UNL     1      -2.137  14.235  23.491  0.00  0.00    +0.000 A 
ATOM     19  C   UNL     1      -0.909  14.286  22.819  0.00  0.00    +0.000 A 
ATOM     20  C   UNL     1      -0.328  13.096  22.334  0.00  0.00    +0.000 A 
BRANCH  19  21
ATOM     21  C   UNL     1      -0.205  15.497  22.523  0.00  0.00    +0.000 C 
ATOM     22  N   UNL     1       0.394  16.470  22.316  0.00  0.00    +0.000 NA
ENDBRANCH  19  21
BRANCH  18  23
ATOM     23  O   UNL     1      -2.907  15.259  23.968  0.00  0.00    +0.000 OA
BRANCH  23  24
ATOM     24  C   UNL     1      -4.209  15.508  23.434  0.00  0.00    +0.000 C 
ATOM     25  C   UNL     1      -4.966  16.379  24.431  0.00  0.00    +0.000 C 
ATOM     26  C   UNL     1      -4.036  16.251  22.111  0.00  0.00    +0.000 C 
ENDBRANCH  23  24
ENDBRANCH  18  23
ENDBRANCH  13  15
ENDBRANCH   5  10
BRANCH   1  27
ATOM     27  N   UNL     1       3.025   4.180  18.317  0.00  0.00    +0.000 NA
ATOM     28  H   UNL     1       2.234   3.557  18.492  0.00  0.00    +0.000 HD
BRANCH  27  29
ATOM     29  C   UNL     1       4.230   3.335  18.282  0.00  0.00    +0.000 C 
BRANCH  29  31
ATOM     30  N   UNL     1       5.980   4.799  17.190  0.00  0.00    +0.000 N 
ATOM     31  C   UNL     1       5.496   4.203  18.361  0.00  0.00    +0.000 C 
ATOM     32  O   UNL     1       6.046   4.356  19.462  0.00  0.00    +0.000 OA
BRANCH  30  34
ATOM     33  C   UNL     1       6.909   7.115  17.348  0.00  0.00    +0.000 C 
ATOM     34  C   UNL     1       7.190   5.618  17.315  0.00  0.00    +0.000 C 
ENDBRANCH  30  34
BRANCH  30  35
ATOM     35  C   UNL     1       5.360   4.558  15.879  0.00  0.00    +0.000 C 
ATOM     36  C   UNL     1       6.259   4.336  14.671  0.00  0.00    +0.000 C 
ENDBRANCH  30  35
ENDBRANCH  29  31
ENDBRANCH  27  29
ENDBRANCH   1  27
TORSDOF 10
ENDMDL
MODEL 4
REMARK VINA RESULT:      -7.5      3.353     11.321
REMARK  Name = 
REMARK  14 active torsions:
REMARK  status: ('A' for Active; 'I' for Inactive)
REMARK    1  A    between atoms: C_1  and  C_2
REMARK    2  A    between atoms: C_2  and  N_3
REMARK    3  A    between atoms: N_3  and  C_4
REMARK    4  A    between atoms: C_4  and  C_5
REMARK    5  A    between atoms: C_6  and  C_8
REMARK    6  A    between atoms: C_8  and  N_9
REMARK    7  A    between atoms: N_9  and  C_10
REMARK    8  A    between atoms: C_14  and  C_15
REMARK    9  A    between atoms: C_18  and  C_19
REMARK   10  A    between atoms: C_22  and  O_23
REMARK   11  A    between atoms: O_23  and  C_24
REMARK   12  A    between atoms: C_24  and  C_25
REMARK   13  A    between atoms: C_24  and  C_26
REMARK   14  A    between atoms: C_27  and  C_28
REMARK                            x       y       z     vdW  Elec       q    Type
REMARK                         _______ _______ _______ _____ _____    ______ ____
ROOT
ATOM      1  C   UNL     1       2.977   5.732  20.029  0.00  0.00    +0.000 C 
ATOM      2  C   UNL     1       1.626   5.712  20.790  0.00  0.00    +0.000 C 
ATOM      3  C   UNL     1       1.179   7.175  20.913  0.00  0.00    +0.000 C 
ATOM      4  C   UNL     1       1.743   7.760  19.649  0.00  0.00    +0.000 A 
ATOM      5  C   UNL     1       1.398   8.958  19.014  0.00  0.00    +0.000 A 
ATOM      6  C   UNL     1       2.066   9.296  17.826  0.00  0.00    +0.000 A 
ATOM      7  C   UNL     1       3.088   8.492  17.330  0.00  0.00    +0.000 A 
ATOM      8  C   UNL     1       3.452   7.331  18.002  0.00  0.00    +0.000 A 
ATOM      9  C   UNL     1       2.760   6.936  19.140  0.00  0.00    +0.000 A 
ENDROOT
BRANCH   5  10
ATOM     10  C   UNL     1       0.379   9.850  19.531  0.00  0.00    +0.000 A 
ATOM     11  N   UNL     1      -0.781  10.085  18.896  0.00  0.00    +0.000 NA
ATOM     12  O   UNL     1      -1.429  10.993  19.721  0.00  0.00    +0.000 OA
ATOM     13  C   UNL     1      -0.589  11.234  20.768  0.00  0.00    +0.000 A 
ATOM     14  N   UNL     1       0.541  10.570  20.693  0.00  0.00    +0.000 NA
BRANCH  13  15
ATOM     15  C   UNL     1      -1.046  12.203  21.745  0.00  0.00    +0.000 A 
ATOM     16  C   UNL     1      -0.304  13.352  22.024  0.00  0.00    +0.000 A 
ATOM     17  C   UNL     1      -0.735  14.247  23.003  0.00  0.00    +0.000 A 
ATOM     18  C   UNL     1      -1.914  14.025  23.733  0.00  0.00    +0.000 A 
ATOM     19  C   UNL     1      -2.661  12.872  23.462  0.00  0.00    +0.000 A 
ATOM     20  C   UNL     1      -2.232  11.982  22.456  0.00  0.00    +0.000 A 
BRANCH  19  21
ATOM     21  C   UNL     1      -3.830  12.482  24.192  0.00  0.00    +0.000 C 
ATOM     22  N   UNL     1      -4.763  12.192  24.817  0.00  0.00    +0.000 NA
ENDBRANCH  19  21
BRANCH  18  23
ATOM     23  O   UNL     1      -2.100  14.970  24.702  0.00  0.00    +0.000 OA
BRANCH  23  24
ATOM     24  C   UNL     1      -1.064  15.900  25.028  0.00  0.00    +0.000 C 
ATOM     25  C   UNL     1      -1.567  17.300  24.690  0.00  0.00    +0.000 C 
ATOM     26  C   UNL     1      -0.790  15.788  26.526  0.00  0.00    +0.000 C 
ENDBRANCH  23  24
ENDBRANCH  18  23
ENDBRANCH  13  15
ENDBRANCH   5  10
BRANCH   1  27
ATOM     27  N   UNL     1       3.177   4.453  19.344  0.00  0.00    +0.000 NA
ATOM     28  H   UNL     1       2.914   3.694  19.977  0.00  0.00    +0.000 HD
BRANCH  27  29
ATOM     29  C   UNL     1       4.577   4.215  18.956  0.00  0.00    +0.000 C 
BRANCH  29  31
ATOM     30  N   UNL     1       5.868   4.998  16.928  0.00  0.00    +0.000 N 
ATOM     31  C   UNL     1       4.740   4.341  17.433  0.00  0.00    +0.000 C 
ATOM     32  O   UNL     1       3.872   3.848  16.698  0.00  0.00    +0.000 OA
BRANCH  30  34
ATOM     33  C   UNL     1       6.400   3.786  14.806  0.00  0.00    +0.000 C 
ATOM     34  C   UNL     1       5.982   5.092  15.469  0.00  0.00    +0.000 C 
ENDBRANCH  30  34
BRANCH  30  35
ATOM     35  C   UNL     1       6.859   5.636  17.808  0.00  0.00    +0.000 C 
ATOM     36  C   UNL     1       7.309   7.056  17.498  0.00  0.00    +0.000 C 
ENDBRANCH  30  35
ENDBRANCH  29  31
ENDBRANCH  27  29
ENDBRANCH   1  27
TORSDOF 10
ENDMDL
MODEL 5
REMARK VINA RESULT:      -7.5      3.446     11.105
REMARK  Name = 
REMARK  14 active torsions:
REMARK  status: ('A' for Active; 'I' for Inactive)
REMARK    1  A    between atoms: C_1  and  C_2
REMARK    2  A    between atoms: C_2  and  N_3
REMARK    3  A    between atoms: N_3  and  C_4
REMARK    4  A    between atoms: C_4  and  C_5
REMARK    5  A    between atoms: C_6  and  C_8
REMARK    6  A    between atoms: C_8  and  N_9
REMARK    7  A    between atoms: N_9  and  C_10
REMARK    8  A    between atoms: C_14  and  C_15
REMARK    9  A    between atoms: C_18  and  C_19
REMARK   10  A    between atoms: C_22  and  O_23
REMARK   11  A    between atoms: O_23  and  C_24
REMARK   12  A    between atoms: C_24  and  C_25
REMARK   13  A    between atoms: C_24  and  C_26
REMARK   14  A    between atoms: C_27  and  C_28
REMARK                            x       y       z     vdW  Elec       q    Type
REMARK                         _______ _______ _______ _____ _____    ______ ____
ROOT
ATOM      1  C   UNL     1       4.083   5.532  17.018  0.00  0.00    +0.000 C 
ATOM      2  C   UNL     1       4.528   7.011  17.157  0.00  0.00    +0.000 C 
ATOM      3  C   UNL     1       3.397   7.734  17.900  0.00  0.00    +0.000 C 
ATOM      4  C   UNL     1       2.875   6.634  18.781  0.00  0.00    +0.000 A 
ATOM      5  C   UNL     1       2.077   6.739  19.925  0.00  0.00    +0.000 A 
ATOM      6  C   UNL     1       1.717   5.558  20.594  0.00  0.00    +0.000 A 
ATOM      7  C   UNL     1       2.091   4.314  20.094  0.00  0.00    +0.000 A 
ATOM      8  C   UNL     1       2.842   4.226  18.927  0.00  0.00    +0.000 A 
ATOM      9  C   UNL     1       3.272   5.381  18.285  0.00  0.00    +0.000 A 
ENDROOT
BRANCH   5  10
ATOM     10  C   UNL     1       1.620   8.013  20.444  0.00  0.00    +0.000 A 
ATOM     11  N   UNL     1       1.460   8.257  21.755  0.00  0.00    +0.000 NA
ATOM     12  O   UNL     1       1.001   9.565  21.792  0.00  0.00    +0.000 OA
ATOM     13  C   UNL     1       0.909   9.981  20.497  0.00  0.00    +0.000 A 
ATOM     14  N   UNL     1       1.261   9.062  19.628  0.00  0.00    +0.000 NA
BRANCH  13  15
ATOM     15  C   UNL     1       0.396  11.322  20.290  0.00  0.00    +0.000 A 
ATOM     16  C   UNL     1       0.219  11.837  19.005  0.00  0.00    +0.000 A 
ATOM     17  C   UNL     1      -0.228  13.147  18.828  0.00  0.00    +0.000 A 
ATOM     18  C   UNL     1      -0.509  13.981  19.922  0.00  0.00    +0.000 A 
ATOM     19  C   UNL     1      -0.328  13.472  21.214  0.00  0.00    +0.000 A 
ATOM     20  C   UNL     1       0.102  12.141  21.387  0.00  0.00    +0.000 A 
BRANCH  19  21
ATOM     21  C   UNL     1      -0.493  14.242  22.411  0.00  0.00    +0.000 C 
ATOM     22  N   UNL     1      -0.588  14.848  23.396  0.00  0.00    +0.000 NA
ENDBRANCH  19  21
BRANCH  18  23
ATOM     23  O   UNL     1      -0.840  15.246  19.527  0.00  0.00    +0.000 OA
BRANCH  23  24
ATOM     24  C   UNL     1       0.075  16.041  18.768  0.00  0.00    +0.000 C 
ATOM     25  C   UNL     1      -0.704  17.202  18.161  0.00  0.00    +0.000 C 
ATOM     26  C   UNL     1       1.141  16.568  19.727  0.00  0.00    +0.000 C 
ENDBRANCH  23  24
ENDBRANCH  18  23
ENDBRANCH  13  15
ENDBRANCH   5  10
BRANCH   1  27
ATOM     27  N   UNL     1       5.261   4.670  16.899  0.00  0.00    +0.000 NA
ATOM     28  H   UNL     1       6.095   5.215  17.130  0.00  0.00    +0.000 HD
BRANCH  27  29
ATOM     29  C   UNL     1       5.461   4.146  15.538  0.00  0.00    +0.000 C 
BRANCH  29  31
ATOM     30  N   UNL     1       6.933   4.566  13.525  0.00  0.00    +0.000 N 
ATOM     31  C   UNL     1       6.678   4.814  14.880  0.00  0.00    +0.000 C 
ATOM     32  O   UNL     1       7.394   5.558  15.566  0.00  0.00    +0.000 OA
BRANCH  30  34
ATOM     33  C   UNL     1       7.780   6.063  11.710  0.00  0.00    +0.000 C 
ATOM     34  C   UNL     1       8.104   5.225  12.940  0.00  0.00    +0.000 C 
ENDBRANCH  30  34
BRANCH  30  35
ATOM     35  C   UNL     1       6.117   3.630  12.736  0.00  0.00    +0.000 C 
ATOM     36  C   UNL     1       6.807   2.731  11.721  0.00  0.00    +0.000 C 
ENDBRANCH  30  35
ENDBRANCH  29  31
ENDBRANCH  27  29
ENDBRANCH   1  27
TORSDOF 10
ENDMDL
MODEL 6
REMARK VINA RESULT:      -7.5      2.420      3.140
REMARK  Name = 
REMARK  14 active torsions:
REMARK  status: ('A' for Active; 'I' for Inactive)
REMARK    1  A    between atoms: C_1  and  C_2
REMARK    2  A    between atoms: C_2  and  N_3
REMARK    3  A    between atoms: N_3  and  C_4
REMARK    4  A    between atoms: C_4  and  C_5
REMARK    5  A    between atoms: C_6  and  C_8
REMARK    6  A    between atoms: C_8  and  N_9
REMARK    7  A    between atoms: N_9  and  C_10
REMARK    8  A    between atoms: C_14  and  C_15
REMARK    9  A    between atoms: C_18  and  C_19
REMARK   10  A    between atoms: C_22  and  O_23
REMARK   11  A    between atoms: O_23  and  C_24
REMARK   12  A    between atoms: C_24  and  C_25
REMARK   13  A    between atoms: C_24  and  C_26
REMARK   14  A    between atoms: C_27  and  C_28
REMARK                            x       y       z     vdW  Elec       q    Type
REMARK                         _______ _______ _______ _____ _____    ______ ____
ROOT
ATOM      1  C   UNL     1      -1.362  12.031  20.082  0.00  0.00    +0.000 C 
ATOM      2  C   UNL     1      -1.382  11.114  18.830  0.00  0.00    +0.000 C 
ATOM      3  C   UNL     1      -0.228  10.119  19.006  0.00  0.00    +0.000 C 
ATOM      4  C   UNL     1      -0.193   9.971  20.501  0.00  0.00    +0.000 A 
ATOM      5  C   UNL     1       0.405   8.962  21.262  0.00  0.00    +0.000 A 
ATOM      6  C   UNL     1       0.299   9.034  22.661  0.00  0.00    +0.000 A 
ATOM      7  C   UNL     1      -0.329  10.116  23.273  0.00  0.00    +0.000 A 
ATOM      8  C   UNL     1      -0.874  11.136  22.501  0.00  0.00    +0.000 A 
ATOM      9  C   UNL     1      -0.845  11.054  21.114  0.00  0.00    +0.000 A 
ENDROOT
BRANCH   5  10
ATOM     10  C   UNL     1       1.117   7.851  20.664  0.00  0.00    +0.000 A 
ATOM     11  N   UNL     1       1.087   6.605  21.165  0.00  0.00    +0.000 NA
ATOM     12  O   UNL     1       1.905   5.886  20.305  0.00  0.00    +0.000 OA
ATOM     13  C   UNL     1       2.366   6.771  19.376  0.00  0.00    +0.000 A 
ATOM     14  N   UNL     1       1.927   7.995  19.560  0.00  0.00    +0.000 NA
BRANCH  13  15
ATOM     15  C   UNL     1       3.290   6.242  18.392  0.00  0.00    +0.000 A 
ATOM     16  C   UNL     1       3.014   5.060  17.704  0.00  0.00    +0.000 A 
ATOM     17  C   UNL     1       3.939   4.541  16.797  0.00  0.00    +0.000 A 
ATOM     18  C   UNL     1       5.163   5.182  16.550  0.00  0.00    +0.000 A 
ATOM     19  C   UNL     1       5.449   6.367  17.241  0.00  0.00    +0.000 A 
ATOM     20  C   UNL     1       4.502   6.898  18.139  0.00  0.00    +0.000 A 
BRANCH  19  21
ATOM     21  C   UNL     1       6.694   7.070  17.148  0.00  0.00    +0.000 C 
ATOM     22  N   UNL     1       7.679   7.678  17.072  0.00  0.00    +0.000 NA
ENDBRANCH  19  21
BRANCH  18  23
ATOM     23  O   UNL     1       5.956   4.459  15.704  0.00  0.00    +0.000 OA
BRANCH  23  24
ATOM     24  C   UNL     1       6.089   4.828  14.329  0.00  0.00    +0.000 C 
ATOM     25  C   UNL     1       7.562   5.118  14.061  0.00  0.00    +0.000 C 
ATOM     26  C   UNL     1       5.623   3.645  13.482  0.00  0.00    +0.000 C 
ENDBRANCH  23  24
ENDBRANCH  18  23
ENDBRANCH  13  15
ENDBRANCH   5  10
BRANCH   1  27
ATOM     27  N   UNL     1      -2.702  12.572  20.320  0.00  0.00    +0.000 NA
ATOM     28  H   UNL     1      -3.218  12.578  19.437  0.00  0.00    +0.000 HD
BRANCH  27  29
ATOM     29  C   UNL     1      -2.688  13.959  20.813  0.00  0.00    +0.000 C 
BRANCH  29  31
ATOM     30  N   UNL     1      -4.438  14.224  22.618  0.00  0.00    +0.000 N 
ATOM     31  C   UNL     1      -4.093  14.380  21.270  0.00  0.00    +0.000 C 
ATOM     32  O   UNL     1      -4.876  14.853  20.433  0.00  0.00    +0.000 OA
BRANCH  30  34
ATOM     33  C   UNL     1      -5.813  15.901  23.864  0.00  0.00    +0.000 C 
ATOM     34  C   UNL     1      -5.788  14.640  23.009  0.00  0.00    +0.000 C 
ENDBRANCH  30  34
BRANCH  30  35
ATOM     35  C   UNL     1      -3.526  13.602  23.590  0.00  0.00    +0.000 C 
ATOM     36  C   UNL     1      -4.000  12.378  24.362  0.00  0.00    +0.000 C 
ENDBRANCH  30  35
ENDBRANCH  29  31
ENDBRANCH  27  29
ENDBRANCH   1  27
TORSDOF 10
ENDMDL
MODEL 7
REMARK VINA RESULT:      -7.4      3.620     11.465
REMARK  Name = 
REMARK  14 active torsions:
REMARK  status: ('A' for Active; 'I' for Inactive)
REMARK    1  A    between atoms: C_1  and  C_2
REMARK    2  A    between atoms: C_2  and  N_3
REMARK    3  A    between atoms: N_3  and  C_4
REMARK    4  A    between atoms: C_4  and  C_5
REMARK    5  A    between atoms: C_6  and  C_8
REMARK    6  A    between atoms: C_8  and  N_9
REMARK    7  A    between atoms: N_9  and  C_10
REMARK    8  A    between atoms: C_14  and  C_15
REMARK    9  A    between atoms: C_18  and  C_19
REMARK   10  A    between atoms: C_22  and  O_23
REMARK   11  A    between atoms: O_23  and  C_24
REMARK   12  A    between atoms: C_24  and  C_25
REMARK   13  A    between atoms: C_24  and  C_26
REMARK   14  A    between atoms: C_27  and  C_28
REMARK                            x       y       z     vdW  Elec       q    Type
REMARK                         _______ _______ _______ _____ _____    ______ ____
ROOT
ATOM      1  C   UNL     1       2.922   5.330  19.490  0.00  0.00    +0.000 C 
ATOM      2  C   UNL     1       2.003   5.148  20.726  0.00  0.00    +0.000 C 
ATOM      3  C   UNL     1       1.832   6.542  21.345  0.00  0.00    +0.000 C 
ATOM      4  C   UNL     1       1.906   7.415  20.124  0.00  0.00    +0.000 A 
ATOM      5  C   UNL     1       1.488   8.742  19.976  0.00  0.00    +0.000 A 
ATOM      6  C   UNL     1       1.655   9.355  18.723  0.00  0.00    +0.000 A 
ATOM      7  C   UNL     1       2.280   8.680  17.678  0.00  0.00    +0.000 A 
ATOM      8  C   UNL     1       2.735   7.379  17.859  0.00  0.00    +0.000 A 
ATOM      9  C   UNL     1       2.518   6.725  19.066  0.00  0.00    +0.000 A 
ENDROOT
BRANCH   5  10
ATOM     10  C   UNL     1       0.885   9.496  21.057  0.00  0.00    +0.000 A 
ATOM     11  N   UNL     1       0.957   9.119  22.344  0.00  0.00    +0.000 NA
ATOM     12  O   UNL     1       0.243  10.102  23.014  0.00  0.00    +0.000 OA
ATOM     13  C   UNL     1      -0.208  10.971  22.065  0.00  0.00    +0.000 A 
ATOM     14  N   UNL     1       0.144  10.637  20.844  0.00  0.00    +0.000 NA
BRANCH  13  15
ATOM     15  C   UNL     1      -1.031  12.067  22.538  0.00  0.00    +0.000 A 
ATOM     16  C   UNL     1      -0.573  13.384  22.494  0.00  0.00    +0.000 A 
ATOM     17  C   UNL     1      -1.360  14.419  23.002  0.00  0.00    +0.000 A 
ATOM     18  C   UNL     1      -2.621  14.173  23.567  0.00  0.00    +0.000 A 
ATOM     19  C   UNL     1      -3.084  12.852  23.619  0.00  0.00    +0.000 A 
ATOM     20  C   UNL     1      -2.295  11.813  23.085  0.00  0.00    +0.000 A 
BRANCH  19  21
ATOM     21  C   UNL     1      -4.308  12.454  24.247  0.00  0.00    +0.000 C 
ATOM     22  N   UNL     1      -5.276  12.114  24.789  0.00  0.00    +0.000 NA
ENDBRANCH  19  21
BRANCH  18  23
ATOM     23  O   UNL     1      -3.178  15.308  24.086  0.00  0.00    +0.000 OA
BRANCH  23  24
ATOM     24  C   UNL     1      -2.541  16.577  23.924  0.00  0.00    +0.000 C 
ATOM     25  C   UNL     1      -3.482  17.476  23.128  0.00  0.00    +0.000 C 
ATOM     26  C   UNL     1      -2.308  17.163  25.315  0.00  0.00    +0.000 C 
ENDBRANCH  23  24
ENDBRANCH  18  23
ENDBRANCH  13  15
ENDBRANCH   5  10
BRANCH   1  27
ATOM     27  N   UNL     1       2.665   4.262  18.522  0.00  0.00    +0.000 NA
ATOM     28  H   UNL     1       2.032   3.578  18.943  0.00  0.00    +0.000 HD
BRANCH  27  29
ATOM     29  C   UNL     1       3.881   3.529  18.131  0.00  0.00    +0.000 C 
BRANCH  29  31
ATOM     30  N   UNL     1       5.834   4.910  17.311  0.00  0.00    +0.000 N 
ATOM     31  C   UNL     1       4.621   4.278  17.012  0.00  0.00    +0.000 C 
ATOM     32  O   UNL     1       4.126   4.293  15.875  0.00  0.00    +0.000 OA
BRANCH  30  34
ATOM     33  C   UNL     1       7.159   4.675  15.203  0.00  0.00    +0.000 C 
ATOM     34  C   UNL     1       6.505   5.610  16.212  0.00  0.00    +0.000 C 
ENDBRANCH  30  34
BRANCH  30  35
ATOM     35  C   UNL     1       6.381   4.942  18.676  0.00  0.00    +0.000 C 
ATOM     36  C   UNL     1       7.573   5.842  18.968  0.00  0.00    +0.000 C 
ENDBRANCH  30  35
ENDBRANCH  29  31
ENDBRANCH  27  29
ENDBRANCH   1  27
TORSDOF 10
ENDMDL
MODEL 8
REMARK VINA RESULT:      -7.4      2.908     11.477
REMARK  Name = 
REMARK  14 active torsions:
REMARK  status: ('A' for Active; 'I' for Inactive)
REMARK    1  A    between atoms: C_1  and  C_2
REMARK    2  A    between atoms: C_2  and  N_3
REMARK    3  A    between atoms: N_3  and  C_4
REMARK    4  A    between atoms: C_4  and  C_5
REMARK    5  A    between atoms: C_6  and  C_8
REMARK    6  A    between atoms: C_8  and  N_9
REMARK    7  A    between atoms: N_9  and  C_10
REMARK    8  A    between atoms: C_14  and  C_15
REMARK    9  A    between atoms: C_18  and  C_19
REMARK   10  A    between atoms: C_22  and  O_23
REMARK   11  A    between atoms: O_23  and  C_24
REMARK   12  A    between atoms: C_24  and  C_25
REMARK   13  A    between atoms: C_24  and  C_26
REMARK   14  A    between atoms: C_27  and  C_28
REMARK                            x       y       z     vdW  Elec       q    Type
REMARK                         _______ _______ _______ _____ _____    ______ ____
ROOT
ATOM      1  C   UNL     1       3.019   5.258  19.364  0.00  0.00    +0.000 C 
ATOM      2  C   UNL     1       1.877   5.071  20.396  0.00  0.00    +0.000 C 
ATOM      3  C   UNL     1       1.583   6.462  20.972  0.00  0.00    +0.000 C 
ATOM      4  C   UNL     1       1.892   7.339  19.791  0.00  0.00    +0.000 A 
ATOM      5  C   UNL     1       1.506   8.664  19.566  0.00  0.00    +0.000 A 
ATOM      6  C   UNL     1       1.914   9.281  18.372  0.00  0.00    +0.000 A 
ATOM      7  C   UNL     1       2.733   8.611  17.468  0.00  0.00    +0.000 A 
ATOM      8  C   UNL     1       3.148   7.310  17.732  0.00  0.00    +0.000 A 
ATOM      9  C   UNL     1       2.702   6.652  18.872  0.00  0.00    +0.000 A 
ENDROOT
BRANCH   5  10
ATOM     10  C   UNL     1       0.702   9.414  20.510  0.00  0.00    +0.000 A 
ATOM     11  N   UNL     1       0.399   8.963  21.738  0.00  0.00    +0.000 NA
ATOM     12  O   UNL     1      -0.385   9.973  22.275  0.00  0.00    +0.000 OA
ATOM     13  C   UNL     1      -0.498  10.931  21.312  0.00  0.00    +0.000 A 
ATOM     14  N   UNL     1       0.136  10.632  20.202  0.00  0.00    +0.000 NA
BRANCH  13  15
ATOM     15  C   UNL     1      -1.327  12.075  21.640  0.00  0.00    +0.000 A 
ATOM     16  C   UNL     1      -1.027  12.895  22.729  0.00  0.00    +0.000 A 
ATOM     17  C   UNL     1      -1.865  13.960  23.059  0.00  0.00    +0.000 A 
ATOM     18  C   UNL     1      -3.024  14.240  22.317  0.00  0.00    +0.000 A 
ATOM     19  C   UNL     1      -3.333  13.419  21.225  0.00  0.00    +0.000 A 
ATOM     20  C   UNL     1      -2.471  12.357  20.883  0.00  0.00    +0.000 A 
BRANCH  19  21
ATOM     21  C   UNL     1      -4.526  13.539  20.442  0.00  0.00    +0.000 C 
ATOM     22  N   UNL     1      -5.499  13.592  19.812  0.00  0.00    +0.000 NA
ENDBRANCH  19  21
BRANCH  18  23
ATOM     23  O   UNL     1      -3.747  15.262  22.864  0.00  0.00    +0.000 OA
BRANCH  23  24
ATOM     24  C   UNL     1      -4.442  15.088  24.102  0.00  0.00    +0.000 C 
ATOM     25  C   UNL     1      -4.501  16.442  24.801  0.00  0.00    +0.000 C 
ATOM     26  C   UNL     1      -5.853  14.600  23.779  0.00  0.00    +0.000 C 
ENDBRANCH  23  24
ENDBRANCH  18  23
ENDBRANCH  13  15
ENDBRANCH   5  10
BRANCH   1  27
ATOM     27  N   UNL     1       2.961   4.191  18.362  0.00  0.00    +0.000 NA
ATOM     28  H   UNL     1       2.172   3.577  18.579  0.00  0.00    +0.000 HD
BRANCH  27  29
ATOM     29  C   UNL     1       4.165   3.345  18.345  0.00  0.00    +0.000 C 
BRANCH  29  31
ATOM     30  N   UNL     1       5.890   4.812  17.218  0.00  0.00    +0.000 N 
ATOM     31  C   UNL     1       5.432   4.214  18.399  0.00  0.00    +0.000 C 
ATOM     32  O   UNL     1       6.005   4.365  19.487  0.00  0.00    +0.000 OA
BRANCH  30  34
ATOM     33  C   UNL     1       6.819   7.129  17.366  0.00  0.00    +0.000 C 
ATOM     34  C   UNL     1       7.101   5.632  17.318  0.00  0.00    +0.000 C 
ENDBRANCH  30  34
BRANCH  30  35
ATOM     35  C   UNL     1       5.241   4.574  15.920  0.00  0.00    +0.000 C 
ATOM     36  C   UNL     1       6.016   3.839  14.836  0.00  0.00    +0.000 C 
ENDBRANCH  30  35
ENDBRANCH  29  31
ENDBRANCH  27  29
ENDBRANCH   1  27
TORSDOF 10
ENDMDL
MODEL 9
REMARK VINA RESULT:      -7.3      3.650     11.503
REMARK  Name = 
REMARK  14 active torsions:
REMARK  status: ('A' for Active; 'I' for Inactive)
REMARK    1  A    between atoms: C_1  and  C_2
REMARK    2  A    between atoms: C_2  and  N_3
REMARK    3  A    between atoms: N_3  and  C_4
REMARK    4  A    between atoms: C_4  and  C_5
REMARK    5  A    between atoms: C_6  and  C_8
REMARK    6  A    between atoms: C_8  and  N_9
REMARK    7  A    between atoms: N_9  and  C_10
REMARK    8  A    between atoms: C_14  and  C_15
REMARK    9  A    between atoms: C_18  and  C_19
REMARK   10  A    between atoms: C_22  and  O_23
REMARK   11  A    between atoms: O_23  and  C_24
REMARK   12  A    between atoms: C_24  and  C_25
REMARK   13  A    between atoms: C_24  and  C_26
REMARK   14  A    between atoms: C_27  and  C_28
REMARK                            x       y       z     vdW  Elec       q    Type
REMARK                         _______ _______ _______ _____ _____    ______ ____
ROOT
ATOM      1  C   UNL     1       3.073   5.594  19.759  0.00  0.00    +0.000 C 
ATOM      2  C   UNL     1       1.828   5.586  20.684  0.00  0.00    +0.000 C 
ATOM      3  C   UNL     1       1.479   7.056  20.950  0.00  0.00    +0.000 C 
ATOM      4  C   UNL     1       1.912   7.697  19.662  0.00  0.00    +0.000 A 
ATOM      5  C   UNL     1       1.556   8.949  19.149  0.00  0.00    +0.000 A 
ATOM      6  C   UNL     1       2.088   9.334  17.908  0.00  0.00    +0.000 A 
ATOM      7  C   UNL     1       2.997   8.519  17.238  0.00  0.00    +0.000 A 
ATOM      8  C   UNL     1       3.378   7.300  17.787  0.00  0.00    +0.000 A 
ATOM      9  C   UNL     1       2.813   6.863  18.979  0.00  0.00    +0.000 A 
ENDROOT
BRANCH   5  10
ATOM     10  C   UNL     1       0.659   9.850  19.844  0.00  0.00    +0.000 A 
ATOM     11  N   UNL     1      -0.679   9.754  19.772  0.00  0.00    +0.000 NA
ATOM     12  O   UNL     1      -1.127  10.806  20.559  0.00  0.00    +0.000 OA
ATOM     13  C   UNL     1      -0.015  11.449  21.015  0.00  0.00    +0.000 A 
ATOM     14  N   UNL     1       1.107  10.915  20.593  0.00  0.00    +0.000 NA
BRANCH  13  15
ATOM     15  C   UNL     1      -0.247  12.627  21.830  0.00  0.00    +0.000 A 
ATOM     16  C   UNL     1      -1.190  12.620  22.858  0.00  0.00    +0.000 A 
ATOM     17  C   UNL     1      -1.434  13.778  23.596  0.00  0.00    +0.000 A 
ATOM     18  C   UNL     1      -0.748  14.975  23.333  0.00  0.00    +0.000 A 
ATOM     19  C   UNL     1       0.197  14.990  22.299  0.00  0.00    +0.000 A 
ATOM     20  C   UNL     1       0.455  13.811  21.571  0.00  0.00    +0.000 A 
BRANCH  19  21
ATOM     21  C   UNL     1       0.900  16.163  21.871  0.00  0.00    +0.000 C 
ATOM     22  N   UNL     1       1.486  17.089  21.490  0.00  0.00    +0.000 NA
ENDBRANCH  19  21
BRANCH  18  23
ATOM     23  O   UNL     1      -1.205  16.006  24.105  0.00  0.00    +0.000 OA
BRANCH  23  24
ATOM     24  C   UNL     1      -2.572  16.420  24.041  0.00  0.00    +0.000 C 
ATOM     25  C   UNL     1      -2.878  17.222  25.302  0.00  0.00    +0.000 C 
ATOM     26  C   UNL     1      -2.735  17.301  22.805  0.00  0.00    +0.000 C 
ENDBRANCH  23  24
ENDBRANCH  18  23
ENDBRANCH  13  15
ENDBRANCH   5  10
BRANCH   1  27
ATOM     27  N   UNL     1       3.117   4.355  18.979  0.00  0.00    +0.000 NA
ATOM     28  H   UNL     1       2.329   3.763  19.252  0.00  0.00    +0.000 HD
BRANCH  27  29
ATOM     29  C   UNL     1       4.339   3.568  19.210  0.00  0.00    +0.000 C 
BRANCH  29  31
ATOM     30  N   UNL     1       5.932   4.588  17.532  0.00  0.00    +0.000 N 
ATOM     31  C   UNL     1       5.586   4.401  18.876  0.00  0.00    +0.000 C 
ATOM     32  O   UNL     1       6.242   4.891  19.807  0.00  0.00    +0.000 OA
BRANCH  30  34
ATOM     33  C   UNL     1       6.876   6.893  17.309  0.00  0.00    +0.000 C 
ATOM     34  C   UNL     1       7.129   5.391  17.262  0.00  0.00    +0.000 C 
ENDBRANCH  30  34
BRANCH  30  35
ATOM     35  C   UNL     1       5.185   3.949  16.438  0.00  0.00    +0.000 C 
ATOM     36  C   UNL     1       5.565   4.277  15.001  0.00  0.00    +0.000 C 
ENDBRANCH  30  35
ENDBRANCH  29  31
ENDBRANCH  27  29
ENDBRANCH   1  27
TORSDOF 10
ENDMDL
