MODEL 1
REMARK VINA RESULT:      -8.9      0.000      0.000
REMARK  Name = 
REMARK  5 active torsions:
REMARK  status: ('A' for Active; 'I' for Inactive)
REMARK    1  A    between atoms: C_1  and  C_2
REMARK    2  A    between atoms: C_5  and  N_6
REMARK    3  A    between atoms: C_7  and  C_9
REMARK    4  A    between atoms: C_20  and  S_21
REMARK    5  A    between atoms: S_21  and  N_24
REMARK                            x       y       z     vdW  Elec       q    Type
REMARK                         _______ _______ _______ _____ _____    ______ ____
ROOT
ATOM      1  C   UNL     1      -0.158  10.311  22.410  0.00  0.00    +0.000 C 
ATOM      2  C   UNL     1       0.559   9.517  21.354  0.00  0.00    +0.000 A 
ATOM      3  C   UNL     1       1.069   8.272  21.764  0.00  0.00    +0.000 A 
ATOM      4  C   UNL     1       1.734   7.425  20.883  0.00  0.00    +0.000 A 
ATOM      5  C   UNL     1       1.910   7.784  19.552  0.00  0.00    +0.000 A 
ATOM      6  C   UNL     1       1.409   9.019  19.119  0.00  0.00    +0.000 A 
ATOM      7  C   UNL     1       0.758   9.903  20.007  0.00  0.00    +0.000 A 
ENDROOT
BRANCH   5   8
ATOM      8  N   UNL     1       2.573   6.967  18.615  0.00  0.00    +0.000 N 
ATOM      9  C   UNL     1       2.837   5.607  18.731  0.00  0.00    +0.000 C 
ATOM     10  O   UNL     1       2.443   4.870  19.633  0.00  0.00    +0.000 OA
ATOM     11  H   UNL     1       2.934   7.422  17.784  0.00  0.00    +0.000 HD
BRANCH   9  12
ATOM     12  C   UNL     1       3.703   5.028  17.597  0.00  0.00    +0.000 C 
ATOM     13  C   UNL     1       4.483   3.826  18.120  0.00  0.00    +0.000 C 
ATOM     14  O   UNL     1       5.551   4.209  18.998  0.00  0.00    +0.000 OA
ATOM     15  C   UNL     1       6.222   5.313  18.549  0.00  0.00    +0.000 A 
ATOM     16  C   UNL     1       7.415   5.628  19.195  0.00  0.00    +0.000 A 
ATOM     17  C   UNL     1       8.140   6.757  18.808  0.00  0.00    +0.000 A 
ATOM     18  C   UNL     1       7.677   7.564  17.768  0.00  0.00    +0.000 A 
ATOM     19  C   UNL     1       6.482   7.249  17.122  0.00  0.00    +0.000 A 
ATOM     20  C   UNL     1       5.749   6.136  17.527  0.00  0.00    +0.000 A 
ATOM     21  O   UNL     1       4.537   5.959  16.915  0.00  0.00    +0.000 OA
ENDBRANCH   9  12
ENDBRANCH   5   8
BRANCH   7  22
ATOM     22  S   UNL     1       0.060  11.407  19.273  0.00  0.00    +0.000 S 
ATOM     23  O   UNL     1      -0.085  12.359  20.344  0.00  0.00    +0.000 OA
ATOM     24  O   UNL     1       0.823  11.730  18.096  0.00  0.00    +0.000 OA
BRANCH  22  25
ATOM     25  N   UNL     1      -1.530  10.966  18.763  0.00  0.00    +0.000 NA
ATOM     26  C   UNL     1      -2.572  11.969  19.067  0.00  0.00    +0.000 C 
ATOM     27  C   UNL     1      -3.948  11.656  18.509  0.00  0.00    +0.000 C 
ATOM     28  C   UNL     1      -3.888  11.175  17.074  0.00  0.00    +0.000 C 
ATOM     29  C   UNL     1      -3.028   9.928  17.009  0.00  0.00    +0.000 C 
ATOM     30  C   UNL     1      -1.614  10.169  17.519  0.00  0.00    +0.000 C 
ENDBRANCH  22  25
ENDBRANCH   7  22
TORSDOF 4
ENDMDL
MODEL 2
REMARK VINA RESULT:      -8.8      1.163      1.533
REMARK  Name = 
REMARK  5 active torsions:
REMARK  status: ('A' for Active; 'I' for Inactive)
REMARK    1  A    between atoms: C_1  and  C_2
REMARK    2  A    between atoms: C_5  and  N_6
REMARK    3  A    between atoms: C_7  and  C_9
REMARK    4  A    between atoms: C_20  and  S_21
REMARK    5  A    between atoms: S_21  and  N_24
REMARK                            x       y       z     vdW  Elec       q    Type
REMARK                         _______ _______ _______ _____ _____    ______ ____
ROOT
ATOM      1  C   UNL     1      -0.126   9.800  21.583  0.00  0.00    +0.000 C 
ATOM      2  C   UNL     1       0.737   8.862  20.787  0.00  0.00    +0.000 A 
ATOM      3  C   UNL     1       0.813   7.542  21.267  0.00  0.00    +0.000 A 
ATOM      4  C   UNL     1       1.559   6.565  20.614  0.00  0.00    +0.000 A 
ATOM      5  C   UNL     1       2.252   6.865  19.448  0.00  0.00    +0.000 A 
ATOM      6  C   UNL     1       2.190   8.173  18.948  0.00  0.00    +0.000 A 
ATOM      7  C   UNL     1       1.463   9.182  19.615  0.00  0.00    +0.000 A 
ENDROOT
BRANCH   5   8
ATOM      8  N   UNL     1       3.020   5.916  18.743  0.00  0.00    +0.000 N 
ATOM      9  C   UNL     1       2.544   4.869  17.963  0.00  0.00    +0.000 C 
ATOM     10  O   UNL     1       1.367   4.659  17.677  0.00  0.00    +0.000 OA
ATOM     11  H   UNL     1       4.027   5.975  18.846  0.00  0.00    +0.000 HD
BRANCH   9  12
ATOM     12  C   UNL     1       3.638   3.922  17.435  0.00  0.00    +0.000 C 
ATOM     13  C   UNL     1       4.273   3.180  18.607  0.00  0.00    +0.000 C 
ATOM     14  O   UNL     1       5.120   4.028  19.394  0.00  0.00    +0.000 OA
ATOM     15  C   UNL     1       5.883   4.862  18.623  0.00  0.00    +0.000 A 
ATOM     16  C   UNL     1       6.903   5.555  19.269  0.00  0.00    +0.000 A 
ATOM     17  C   UNL     1       7.704   6.445  18.550  0.00  0.00    +0.000 A 
ATOM     18  C   UNL     1       7.491   6.632  17.184  0.00  0.00    +0.000 A 
ATOM     19  C   UNL     1       6.469   5.938  16.537  0.00  0.00    +0.000 A 
ATOM     20  C   UNL     1       5.656   5.071  17.263  0.00  0.00    +0.000 A 
ATOM     21  O   UNL     1       4.610   4.512  16.578  0.00  0.00    +0.000 OA
ENDBRANCH   9  12
ENDBRANCH   5   8
BRANCH   7  22
ATOM     22  S   UNL     1       1.378  10.791  18.783  0.00  0.00    +0.000 S 
ATOM     23  O   UNL     1       1.536  11.793  19.806  0.00  0.00    +0.000 OA
ATOM     24  O   UNL     1       2.256  10.756  17.642  0.00  0.00    +0.000 OA
BRANCH  22  25
ATOM     25  N   UNL     1      -0.241  10.913  18.195  0.00  0.00    +0.000 NA
ATOM     26  C   UNL     1      -0.741   9.697  17.519  0.00  0.00    +0.000 C 
ATOM     27  C   UNL     1      -2.203   9.741  17.115  0.00  0.00    +0.000 C 
ATOM     28  C   UNL     1      -3.084  10.302  18.213  0.00  0.00    +0.000 C 
ATOM     29  C   UNL     1      -2.617  11.704  18.551  0.00  0.00    +0.000 C 
ATOM     30  C   UNL     1      -1.164  11.740  19.004  0.00  0.00    +0.000 C 
ENDBRANCH  22  25
ENDBRANCH   7  22
TORSDOF 4
ENDMDL
MODEL 3
REMARK VINA RESULT:      -8.4      1.847      2.568
REMARK  Name = 
REMARK  5 active torsions:
REMARK  status: ('A' for Active; 'I' for Inactive)
REMARK    1  A    between atoms: C_1  and  C_2
REMARK    2  A    between atoms: C_5  and  N_6
REMARK    3  A    between atoms: C_7  and  C_9
REMARK    4  A    between atoms: C_20  and  S_21
REMARK    5  A    between atoms: S_21  and  N_24
REMARK                            x       y       z     vdW  Elec       q    Type
REMARK                         _______ _______ _______ _____ _____    ______ ____
ROOT
ATOM      1  C   UNL     1      -0.194  10.837  22.077  0.00  0.00    +0.000 C 
ATOM      2  C   UNL     1       0.469   9.869  21.138  0.00  0.00    +0.000 A 
ATOM      3  C   UNL     1       1.223   8.846  21.745  0.00  0.00    +0.000 A 
ATOM      4  C   UNL     1       1.871   7.869  20.995  0.00  0.00    +0.000 A 
ATOM      5  C   UNL     1       1.785   7.867  19.608  0.00  0.00    +0.000 A 
ATOM      6  C   UNL     1       1.039   8.875  18.981  0.00  0.00    +0.000 A 
ATOM      7  C   UNL     1       0.401   9.891  19.726  0.00  0.00    +0.000 A 
ENDROOT
BRANCH   5   8
ATOM      8  N   UNL     1       2.418   6.903  18.799  0.00  0.00    +0.000 N 
ATOM      9  C   UNL     1       2.818   5.627  19.178  0.00  0.00    +0.000 C 
ATOM     10  O   UNL     1       2.594   5.092  20.262  0.00  0.00    +0.000 OA
ATOM     11  H   UNL     1       2.643   7.178  17.849  0.00  0.00    +0.000 HD
BRANCH   9  12
ATOM     12  C   UNL     1       3.608   4.862  18.100  0.00  0.00    +0.000 C 
ATOM     13  C   UNL     1       4.440   3.769  18.763  0.00  0.00    +0.000 C 
ATOM     14  O   UNL     1       5.562   4.298  19.482  0.00  0.00    +0.000 OA
ATOM     15  C   UNL     1       6.185   5.308  18.803  0.00  0.00    +0.000 A 
ATOM     16  C   UNL     1       7.417   5.730  19.296  0.00  0.00    +0.000 A 
ATOM     17  C   UNL     1       8.098   6.776  18.669  0.00  0.00    +0.000 A 
ATOM     18  C   UNL     1       7.551   7.392  17.543  0.00  0.00    +0.000 A 
ATOM     19  C   UNL     1       6.317   6.970  17.049  0.00  0.00    +0.000 A 
ATOM     20  C   UNL     1       5.629   5.943  17.692  0.00  0.00    +0.000 A 
ATOM     21  O   UNL     1       4.379   5.662  17.209  0.00  0.00    +0.000 OA
ENDBRANCH   9  12
ENDBRANCH   5   8
BRANCH   7  22
ATOM     22  S   UNL     1      -0.625  11.051  18.782  0.00  0.00    +0.000 S 
ATOM     23  O   UNL     1      -0.779  10.488  17.465  0.00  0.00    +0.000 OA
ATOM     24  O   UNL     1      -1.774  11.389  19.580  0.00  0.00    +0.000 OA
BRANCH  22  25
ATOM     25  N   UNL     1       0.338  12.476  18.619  0.00  0.00    +0.000 NA
ATOM     26  C   UNL     1      -0.229  13.677  19.269  0.00  0.00    +0.000 C 
ATOM     27  C   UNL     1       0.666  14.902  19.248  0.00  0.00    +0.000 C 
ATOM     28  C   UNL     1       2.101  14.569  19.601  0.00  0.00    +0.000 C 
ATOM     29  C   UNL     1       2.628  13.549  18.611  0.00  0.00    +0.000 C 
ATOM     30  C   UNL     1       1.803  12.270  18.598  0.00  0.00    +0.000 C 
ENDBRANCH  22  25
ENDBRANCH   7  22
TORSDOF 4
ENDMDL
MODEL 4
REMARK VINA RESULT:      -8.4      2.409      3.573
REMARK  Name = 
REMARK  5 active torsions:
REMARK  status: ('A' for Active; 'I' for Inactive)
REMARK    1  A    between atoms: C_1  and  C_2
REMARK    2  A    between atoms: C_5  and  N_6
REMARK    3  A    between atoms: C_7  and  C_9
REMARK    4  A    between atoms: C_20  and  S_21
REMARK    5  A    between atoms: S_21  and  N_24
REMARK                            x       y       z     vdW  Elec       q    Type
REMARK                         _______ _______ _______ _____ _____    ______ ____
ROOT
ATOM      1  C   UNL     1      -0.335  10.998  19.013  0.00  0.00    +0.000 C 
ATOM      2  C   UNL     1       0.571   9.801  19.085  0.00  0.00    +0.000 A 
ATOM      3  C   UNL     1       1.112   9.368  17.860  0.00  0.00    +0.000 A 
ATOM      4  C   UNL     1       1.984   8.286  17.784  0.00  0.00    +0.000 A 
ATOM      5  C   UNL     1       2.360   7.598  18.931  0.00  0.00    +0.000 A 
ATOM      6  C   UNL     1       1.836   8.011  20.163  0.00  0.00    +0.000 A 
ATOM      7  C   UNL     1       0.927   9.088  20.254  0.00  0.00    +0.000 A 
ENDROOT
BRANCH   5   8
ATOM      8  N   UNL     1       3.240   6.498  18.914  0.00  0.00    +0.000 N 
ATOM      9  C   UNL     1       2.952   5.203  18.499  0.00  0.00    +0.000 C 
ATOM     10  O   UNL     1       1.902   4.828  17.981  0.00  0.00    +0.000 OA
ATOM     11  H   UNL     1       4.173   6.652  19.282  0.00  0.00    +0.000 HD
BRANCH   9  12
ATOM     12  C   UNL     1       4.090   4.192  18.733  0.00  0.00    +0.000 C 
ATOM     13  C   UNL     1       5.294   4.915  19.330  0.00  0.00    +0.000 C 
ATOM     14  O   UNL     1       5.966   5.740  18.370  0.00  0.00    +0.000 OA
ATOM     15  C   UNL     1       6.075   5.133  17.148  0.00  0.00    +0.000 A 
ATOM     16  C   UNL     1       6.911   5.743  16.217  0.00  0.00    +0.000 A 
ATOM     17  C   UNL     1       7.049   5.194  14.940  0.00  0.00    +0.000 A 
ATOM     18  C   UNL     1       6.358   4.031  14.599  0.00  0.00    +0.000 A 
ATOM     19  C   UNL     1       5.520   3.421  15.532  0.00  0.00    +0.000 A 
ATOM     20  C   UNL     1       5.366   3.985  16.797  0.00  0.00    +0.000 A 
ATOM     21  O   UNL     1       4.444   3.386  17.614  0.00  0.00    +0.000 OA
ENDBRANCH   9  12
ENDBRANCH   5   8
BRANCH   7  22
ATOM     22  S   UNL     1       0.433   9.580  21.927  0.00  0.00    +0.000 S 
ATOM     23  O   UNL     1      -0.696   8.759  22.282  0.00  0.00    +0.000 OA
ATOM     24  O   UNL     1       1.610   9.614  22.754  0.00  0.00    +0.000 OA
BRANCH  22  25
ATOM     25  N   UNL     1      -0.145  11.201  21.771  0.00  0.00    +0.000 NA
ATOM     26  C   UNL     1      -1.343  11.506  22.580  0.00  0.00    +0.000 C 
ATOM     27  C   UNL     1      -1.783  12.958  22.555  0.00  0.00    +0.000 C 
ATOM     28  C   UNL     1      -0.616  13.912  22.709  0.00  0.00    +0.000 C 
ATOM     29  C   UNL     1       0.370  13.670  21.583  0.00  0.00    +0.000 C 
ATOM     30  C   UNL     1       0.889  12.239  21.562  0.00  0.00    +0.000 C 
ENDBRANCH  22  25
ENDBRANCH   7  22
TORSDOF 4
ENDMDL
MODEL 5
REMARK VINA RESULT:      -8.4      1.498      2.010
REMARK  Name = 
REMARK  5 active torsions:
REMARK  status: ('A' for Active; 'I' for Inactive)
REMARK    1  A    between atoms: C_1  and  C_2
REMARK    2  A    between atoms: C_5  and  N_6
REMARK    3  A    between atoms: C_7  and  C_9
REMARK    4  A    between atoms: C_20  and  S_21
REMARK    5  A    between atoms: S_21  and  N_24
REMARK                            x       y       z     vdW  Elec       q    Type
REMARK                         _______ _______ _______ _____ _____    ______ ____
ROOT
ATOM      1  C   UNL     1      -0.310  10.315  21.377  0.00  0.00    +0.000 C 
ATOM      2  C   UNL     1       0.520   9.182  20.842  0.00  0.00    +0.000 A 
ATOM      3  C   UNL     1       0.464   7.982  21.575  0.00  0.00    +0.000 A 
ATOM      4  C   UNL     1       1.166   6.848  21.180  0.00  0.00    +0.000 A 
ATOM      5  C   UNL     1       1.946   6.862  20.029  0.00  0.00    +0.000 A 
ATOM      6  C   UNL     1       2.016   8.045  19.282  0.00  0.00    +0.000 A 
ATOM      7  C   UNL     1       1.334   9.213  19.685  0.00  0.00    +0.000 A 
ENDROOT
BRANCH   5   8
ATOM      8  N   UNL     1       2.675   5.743  19.580  0.00  0.00    +0.000 N 
ATOM      9  C   UNL     1       2.353   4.908  18.517  0.00  0.00    +0.000 C 
ATOM     10  O   UNL     1       1.425   5.070  17.726  0.00  0.00    +0.000 OA
ATOM     11  H   UNL     1       3.502   5.492  20.111  0.00  0.00    +0.000 HD
BRANCH   9  12
ATOM     12  C   UNL     1       3.280   3.688  18.363  0.00  0.00    +0.000 C 
ATOM     13  C   UNL     1       4.369   3.743  19.430  0.00  0.00    +0.000 C 
ATOM     14  O   UNL     1       5.345   4.758  19.162  0.00  0.00    +0.000 OA
ATOM     15  C   UNL     1       5.687   4.814  17.839  0.00  0.00    +0.000 A 
ATOM     16  C   UNL     1       6.790   5.597  17.508  0.00  0.00    +0.000 A 
ATOM     17  C   UNL     1       7.179   5.723  16.173  0.00  0.00    +0.000 A 
ATOM     18  C   UNL     1       6.473   5.057  15.171  0.00  0.00    +0.000 A 
ATOM     19  C   UNL     1       5.367   4.273  15.502  0.00  0.00    +0.000 A 
ATOM     20  C   UNL     1       4.967   4.171  16.832  0.00  0.00    +0.000 A 
ATOM     21  O   UNL     1       3.811   3.471  17.060  0.00  0.00    +0.000 OA
ENDBRANCH   9  12
ENDBRANCH   5   8
BRANCH   7  22
ATOM     22  S   UNL     1       1.425  10.626  18.551  0.00  0.00    +0.000 S 
ATOM     23  O   UNL     1       1.754  11.777  19.352  0.00  0.00    +0.000 OA
ATOM     24  O   UNL     1       2.242  10.250  17.427  0.00  0.00    +0.000 OA
BRANCH  22  25
ATOM     25  N   UNL     1      -0.188  10.849  17.976  0.00  0.00    +0.000 NA
ATOM     26  C   UNL     1      -0.874   9.602  17.574  0.00  0.00    +0.000 C 
ATOM     27  C   UNL     1      -2.334   9.766  17.192  0.00  0.00    +0.000 C 
ATOM     28  C   UNL     1      -3.083  10.655  18.163  0.00  0.00    +0.000 C 
ATOM     29  C   UNL     1      -2.420  12.017  18.197  0.00  0.00    +0.000 C 
ATOM     30  C   UNL     1      -0.957  11.943  18.610  0.00  0.00    +0.000 C 
ENDBRANCH  22  25
ENDBRANCH   7  22
TORSDOF 4
ENDMDL
MODEL 6
REMARK VINA RESULT:      -8.4      1.992      2.813
REMARK  Name = 
REMARK  5 active torsions:
REMARK  status: ('A' for Active; 'I' for Inactive)
REMARK    1  A    between atoms: C_1  and  C_2
REMARK    2  A    between atoms: C_5  and  N_6
REMARK    3  A    between atoms: C_7  and  C_9
REMARK    4  A    between atoms: C_20  and  S_21
REMARK    5  A    between atoms: S_21  and  N_24
REMARK                            x       y       z     vdW  Elec       q    Type
REMARK                         _______ _______ _______ _____ _____    ______ ____
ROOT
ATOM      1  C   UNL     1      -0.087  10.258  22.290  0.00  0.00    +0.000 C 
ATOM      2  C   UNL     1       0.623   9.450  21.240  0.00  0.00    +0.000 A 
ATOM      3  C   UNL     1       1.236   8.266  21.690  0.00  0.00    +0.000 A 
ATOM      4  C   UNL     1       1.908   7.412  20.820  0.00  0.00    +0.000 A 
ATOM      5  C   UNL     1       1.988   7.702  19.463  0.00  0.00    +0.000 A 
ATOM      6  C   UNL     1       1.384   8.875  18.992  0.00  0.00    +0.000 A 
ATOM      7  C   UNL     1       0.724   9.766  19.865  0.00  0.00    +0.000 A 
ENDROOT
BRANCH   5   8
ATOM      8  N   UNL     1       2.653   6.874  18.537  0.00  0.00    +0.000 N 
ATOM      9  C   UNL     1       2.757   5.489  18.579  0.00  0.00    +0.000 C 
ATOM     10  O   UNL     1       2.196   4.746  19.383  0.00  0.00    +0.000 OA
ATOM     11  H   UNL     1       3.144   7.336  17.779  0.00  0.00    +0.000 HD
BRANCH   9  12
ATOM     12  C   UNL     1       3.668   4.886  17.494  0.00  0.00    +0.000 C 
ATOM     13  C   UNL     1       4.441   3.708  18.079  0.00  0.00    +0.000 C 
ATOM     14  O   UNL     1       5.472   4.127  18.982  0.00  0.00    +0.000 OA
ATOM     15  C   UNL     1       6.149   5.224  18.525  0.00  0.00    +0.000 A 
ATOM     16  C   UNL     1       7.315   5.570  19.203  0.00  0.00    +0.000 A 
ATOM     17  C   UNL     1       8.043   6.695  18.809  0.00  0.00    +0.000 A 
ATOM     18  C   UNL     1       7.610   7.467  17.731  0.00  0.00    +0.000 A 
ATOM     19  C   UNL     1       6.442   7.121  17.052  0.00  0.00    +0.000 A 
ATOM     20  C   UNL     1       5.705   6.013  17.464  0.00  0.00    +0.000 A 
ATOM     21  O   UNL     1       4.517   5.806  16.815  0.00  0.00    +0.000 OA
ENDBRANCH   9  12
ENDBRANCH   5   8
BRANCH   7  22
ATOM     22  S   UNL     1      -0.111  11.177  19.089  0.00  0.00    +0.000 S 
ATOM     23  O   UNL     1      -0.181  10.890  17.679  0.00  0.00    +0.000 OA
ATOM     24  O   UNL     1      -1.302  11.467  19.844  0.00  0.00    +0.000 OA
BRANCH  22  25
ATOM     25  N   UNL     1       0.972  12.508  19.286  0.00  0.00    +0.000 NA
ATOM     26  C   UNL     1       2.137  12.491  18.377  0.00  0.00    +0.000 C 
ATOM     27  C   UNL     1       3.025  13.720  18.447  0.00  0.00    +0.000 C 
ATOM     28  C   UNL     1       2.223  15.005  18.477  0.00  0.00    +0.000 C 
ATOM     29  C   UNL     1       1.304  14.984  19.682  0.00  0.00    +0.000 C 
ATOM     30  C   UNL     1       0.351  13.797  19.667  0.00  0.00    +0.000 C 
ENDBRANCH  22  25
ENDBRANCH   7  22
TORSDOF 4
ENDMDL
MODEL 7
REMARK VINA RESULT:      -8.3      3.007      8.225
REMARK  Name = 
REMARK  5 active torsions:
REMARK  status: ('A' for Active; 'I' for Inactive)
REMARK    1  A    between atoms: C_1  and  C_2
REMARK    2  A    between atoms: C_5  and  N_6
REMARK    3  A    between atoms: C_7  and  C_9
REMARK    4  A    between atoms: C_20  and  S_21
REMARK    5  A    between atoms: S_21  and  N_24
REMARK                            x       y       z     vdW  Elec       q    Type
REMARK                         _______ _______ _______ _____ _____    ______ ____
ROOT
ATOM      1  C   UNL     1       2.635   2.114  18.663  0.00  0.00    +0.000 C 
ATOM      2  C   UNL     1       2.388   3.444  19.317  0.00  0.00    +0.000 A 
ATOM      3  C   UNL     1       1.093   3.644  19.829  0.00  0.00    +0.000 A 
ATOM      4  C   UNL     1       0.734   4.820  20.480  0.00  0.00    +0.000 A 
ATOM      5  C   UNL     1       1.659   5.843  20.655  0.00  0.00    +0.000 A 
ATOM      6  C   UNL     1       2.956   5.667  20.155  0.00  0.00    +0.000 A 
ATOM      7  C   UNL     1       3.327   4.492  19.466  0.00  0.00    +0.000 A 
ENDROOT
BRANCH   5   8
ATOM      8  N   UNL     1       1.353   7.054  21.308  0.00  0.00    +0.000 N 
ATOM      9  C   UNL     1       1.382   8.330  20.757  0.00  0.00    +0.000 C 
ATOM     10  O   UNL     1       1.583   8.602  19.575  0.00  0.00    +0.000 OA
ATOM     11  H   UNL     1       1.127   6.998  22.295  0.00  0.00    +0.000 HD
BRANCH   9  12
ATOM     12  C   UNL     1       1.129   9.464  21.767  0.00  0.00    +0.000 C 
ATOM     13  C   UNL     1      -0.366   9.560  22.055  0.00  0.00    +0.000 C 
ATOM     14  O   UNL     1      -1.099  10.117  20.956  0.00  0.00    +0.000 OA
ATOM     15  C   UNL     1      -0.449  11.174  20.380  0.00  0.00    +0.000 A 
ATOM     16  C   UNL     1      -1.173  11.932  19.463  0.00  0.00    +0.000 A 
ATOM     17  C   UNL     1      -0.564  13.009  18.816  0.00  0.00    +0.000 A 
ATOM     18  C   UNL     1       0.764  13.333  19.093  0.00  0.00    +0.000 A 
ATOM     19  C   UNL     1       1.490  12.573  20.010  0.00  0.00    +0.000 A 
ATOM     20  C   UNL     1       0.887  11.484  20.636  0.00  0.00    +0.000 A 
ATOM     21  O   UNL     1       1.698  10.727  21.439  0.00  0.00    +0.000 OA
ENDBRANCH   9  12
ENDBRANCH   5   8
BRANCH   7  22
ATOM     22  S   UNL     1       5.071   4.361  18.986  0.00  0.00    +0.000 S 
ATOM     23  O   UNL     1       5.743   5.497  19.563  0.00  0.00    +0.000 OA
ATOM     24  O   UNL     1       5.516   3.020  19.262  0.00  0.00    +0.000 OA
BRANCH  22  25
ATOM     25  N   UNL     1       5.086   4.576  17.272  0.00  0.00    +0.000 NA
ATOM     26  C   UNL     1       5.174   5.984  16.831  0.00  0.00    +0.000 C 
ATOM     27  C   UNL     1       5.321   6.181  15.334  0.00  0.00    +0.000 C 
ATOM     28  C   UNL     1       6.334   5.230  14.728  0.00  0.00    +0.000 C 
ATOM     29  C   UNL     1       5.896   3.805  15.004  0.00  0.00    +0.000 C 
ATOM     30  C   UNL     1       5.761   3.515  16.492  0.00  0.00    +0.000 C 
ENDBRANCH  22  25
ENDBRANCH   7  22
TORSDOF 4
ENDMDL
MODEL 8
REMARK VINA RESULT:      -8.3      2.616      8.541
REMARK  Name = 
REMARK  5 active torsions:
REMARK  status: ('A' for Active; 'I' for Inactive)
REMARK    1  A    between atoms: C_1  and  C_2
REMARK    2  A    between atoms: C_5  and  N_6
REMARK    3  A    between atoms: C_7  and  C_9
REMARK    4  A    between atoms: C_20  and  S_21
REMARK    5  A    between atoms: S_21  and  N_24
REMARK                            x       y       z     vdW  Elec       q    Type
REMARK                         _______ _______ _______ _____ _____    ______ ____
ROOT
ATOM      1  C   UNL     1       2.546   2.742  21.323  0.00  0.00    +0.000 C 
ATOM      2  C   UNL     1       2.469   4.059  20.604  0.00  0.00    +0.000 A 
ATOM      3  C   UNL     1       1.619   5.022  21.178  0.00  0.00    +0.000 A 
ATOM      4  C   UNL     1       1.471   6.291  20.629  0.00  0.00    +0.000 A 
ATOM      5  C   UNL     1       2.174   6.656  19.487  0.00  0.00    +0.000 A 
ATOM      6  C   UNL     1       3.028   5.714  18.897  0.00  0.00    +0.000 A 
ATOM      7  C   UNL     1       3.167   4.412  19.425  0.00  0.00    +0.000 A 
ENDROOT
BRANCH   5   8
ATOM      8  N   UNL     1       2.065   7.927  18.888  0.00  0.00    +0.000 N 
ATOM      9  C   UNL     1       1.501   9.068  19.447  0.00  0.00    +0.000 C 
ATOM     10  O   UNL     1       1.093   9.180  20.601  0.00  0.00    +0.000 OA
ATOM     11  H   UNL     1       2.395   8.013  17.933  0.00  0.00    +0.000 HD
BRANCH   9  12
ATOM     12  C   UNL     1       1.410  10.267  18.486  0.00  0.00    +0.000 C 
ATOM     13  C   UNL     1       1.428  11.563  19.291  0.00  0.00    +0.000 C 
ATOM     14  O   UNL     1       0.197  11.786  19.993  0.00  0.00    +0.000 OA
ATOM     15  C   UNL     1      -0.897  11.472  19.236  0.00  0.00    +0.000 A 
ATOM     16  C   UNL     1      -2.137  11.871  19.729  0.00  0.00    +0.000 A 
ATOM     17  C   UNL     1      -3.301  11.560  19.022  0.00  0.00    +0.000 A 
ATOM     18  C   UNL     1      -3.223  10.860  17.818  0.00  0.00    +0.000 A 
ATOM     19  C   UNL     1      -1.981  10.461  17.324  0.00  0.00    +0.000 A 
ATOM     20  C   UNL     1      -0.825  10.751  18.044  0.00  0.00    +0.000 A 
ATOM     21  O   UNL     1       0.340  10.230  17.546  0.00  0.00    +0.000 OA
ENDBRANCH   9  12
ENDBRANCH   5   8
BRANCH   7  22
ATOM     22  S   UNL     1       4.399   3.350  18.623  0.00  0.00    +0.000 S 
ATOM     23  O   UNL     1       5.399   3.057  19.617  0.00  0.00    +0.000 OA
ATOM     24  O   UNL     1       3.704   2.291  17.939  0.00  0.00    +0.000 OA
BRANCH  22  25
ATOM     25  N   UNL     1       5.145   4.346  17.426  0.00  0.00    +0.000 NA
ATOM     26  C   UNL     1       6.500   4.820  17.780  0.00  0.00    +0.000 C 
ATOM     27  C   UNL     1       7.220   5.585  16.685  0.00  0.00    +0.000 C 
ATOM     28  C   UNL     1       7.082   4.916  15.333  0.00  0.00    +0.000 C 
ATOM     29  C   UNL     1       5.610   4.811  14.984  0.00  0.00    +0.000 C 
ATOM     30  C   UNL     1       4.821   4.022  16.019  0.00  0.00    +0.000 C 
ENDBRANCH  22  25
ENDBRANCH   7  22
TORSDOF 4
ENDMDL
MODEL 9
REMARK VINA RESULT:      -8.2      2.688      4.692
REMARK  Name = 
REMARK  5 active torsions:
REMARK  status: ('A' for Active; 'I' for Inactive)
REMARK    1  A    between atoms: C_1  and  C_2
REMARK    2  A    between atoms: C_5  and  N_6
REMARK    3  A    between atoms: C_7  and  C_9
REMARK    4  A    between atoms: C_20  and  S_21
REMARK    5  A    between atoms: S_21  and  N_24
REMARK                            x       y       z     vdW  Elec       q    Type
REMARK                         _______ _______ _______ _____ _____    ______ ____
ROOT
ATOM      1  C   UNL     1      -1.484  11.774  18.832  0.00  0.00    +0.000 C 
ATOM      2  C   UNL     1      -0.471  10.683  19.039  0.00  0.00    +0.000 A 
ATOM      3  C   UNL     1      -0.048  10.012  17.876  0.00  0.00    +0.000 A 
ATOM      4  C   UNL     1       0.902   8.997  17.920  0.00  0.00    +0.000 A 
ATOM      5  C   UNL     1       1.476   8.615  19.127  0.00  0.00    +0.000 A 
ATOM      6  C   UNL     1       1.071   9.269  20.299  0.00  0.00    +0.000 A 
ATOM      7  C   UNL     1       0.087  10.281  20.275  0.00  0.00    +0.000 A 
ENDROOT
BRANCH   5   8
ATOM      8  N   UNL     1       2.444   7.596  19.232  0.00  0.00    +0.000 N 
ATOM      9  C   UNL     1       3.327   7.178  18.243  0.00  0.00    +0.000 C 
ATOM     10  O   UNL     1       3.478   7.702  17.141  0.00  0.00    +0.000 OA
ATOM     11  H   UNL     1       2.475   7.082  20.106  0.00  0.00    +0.000 HD
BRANCH   9  12
ATOM     12  C   UNL     1       4.169   5.946  18.622  0.00  0.00    +0.000 C 
ATOM     13  C   UNL     1       4.175   4.960  17.458  0.00  0.00    +0.000 C 
ATOM     14  O   UNL     1       2.917   4.291  17.303  0.00  0.00    +0.000 OA
ATOM     15  C   UNL     1       2.373   3.922  18.502  0.00  0.00    +0.000 A 
ATOM     16  C   UNL     1       1.277   3.064  18.457  0.00  0.00    +0.000 A 
ATOM     17  C   UNL     1       0.654   2.667  19.642  0.00  0.00    +0.000 A 
ATOM     18  C   UNL     1       1.133   3.120  20.872  0.00  0.00    +0.000 A 
ATOM     19  C   UNL     1       2.230   3.980  20.917  0.00  0.00    +0.000 A 
ATOM     20  C   UNL     1       2.834   4.394  19.731  0.00  0.00    +0.000 A 
ATOM     21  O   UNL     1       3.834   5.321  19.857  0.00  0.00    +0.000 OA
ENDBRANCH   9  12
ENDBRANCH   5   8
BRANCH   7  22
ATOM     22  S   UNL     1      -0.243  11.115  21.851  0.00  0.00    +0.000 S 
ATOM     23  O   UNL     1      -1.661  11.359  21.900  0.00  0.00    +0.000 OA
ATOM     24  O   UNL     1       0.416  10.379  22.898  0.00  0.00    +0.000 OA
BRANCH  22  25
ATOM     25  N   UNL     1       0.536  12.652  21.721  0.00  0.00    +0.000 NA
ATOM     26  C   UNL     1       1.625  12.705  20.724  0.00  0.00    +0.000 C 
ATOM     27  C   UNL     1       2.229  14.080  20.505  0.00  0.00    +0.000 C 
ATOM     28  C   UNL     1       1.171  15.159  20.392  0.00  0.00    +0.000 C 
ATOM     29  C   UNL     1       0.346  15.173  21.664  0.00  0.00    +0.000 C 
ATOM     30  C   UNL     1      -0.327  13.835  21.936  0.00  0.00    +0.000 C 
ENDBRANCH  22  25
ENDBRANCH   7  22
TORSDOF 4
ENDMDL
