MODEL 1
REMARK VINA RESULT:      -6.7      0.000      0.000
REMARK  Name = 
REMARK  5 active torsions:
REMARK  status: ('A' for Active; 'I' for Inactive)
REMARK    1  A    between atoms: C_2  and  C_3
REMARK    2  A    between atoms: C_3  and  C_13
REMARK    3  A    between atoms: C_4  and  C_5
REMARK    4  A    between atoms: C_8  and  O_9
REMARK    5  A    between atoms: C_11  and  O_12
REMARK                            x       y       z     vdW  Elec       q    Type
REMARK                         _______ _______ _______ _____ _____    ______ ____
ROOT
ATOM      1  C   UNL     1       3.345   3.556  17.626  0.00  0.00    +0.000 A 
ATOM      2  C   UNL     1       2.475   4.610  17.935  0.00  0.00    +0.000 A 
ATOM      3  C   UNL     1       1.513   4.462  18.942  0.00  0.00    +0.000 A 
ATOM      4  C   UNL     1       1.425   3.259  19.635  0.00  0.00    +0.000 A 
ATOM      5  C   UNL     1       2.274   2.198  19.339  0.00  0.00    +0.000 A 
ATOM      6  C   UNL     1       3.233   2.352  18.339  0.00  0.00    +0.000 A 
ENDROOT
BRANCH   1   8
ATOM      7  C   UNL     1       5.622   4.222  16.885  0.00  0.00    +0.000 C 
ATOM      8  C   UNL     1       4.392   3.744  16.608  0.00  0.00    +0.000 C 
BRANCH   7   9
ATOM      9  C   UNL     1       6.611   4.365  15.784  0.00  0.00    +0.000 C 
ATOM     10  N   UNL     1       6.371   3.671  14.637  0.00  0.00    +0.000 N 
ATOM     11  O   UNL     1       7.616   5.063  15.879  0.00  0.00    +0.000 OA
ATOM     12  H   UNL     1       5.570   3.078  14.464  0.00  0.00    +0.000 HD
ATOM     13  H   UNL     1       7.047   3.776  13.889  0.00  0.00    +0.000 HD
ENDBRANCH   7   9
BRANCH   7  15
ATOM     14  N   UNL     1       6.264   4.985  19.480  0.00  0.00    +0.000 NA
ATOM     15  C   UNL     1       5.973   4.639  18.304  0.00  0.00    +0.000 C 
ENDBRANCH   7  15
ENDBRANCH   1   8
BRANCH   4  16
ATOM     16  O   UNL     1       0.511   3.077  20.631  0.00  0.00    +0.000 OA
ATOM     17  H   UNL     1      -0.155   2.435  20.334  0.00  0.00    +0.000 HD
ENDBRANCH   4  16
BRANCH   6  18
ATOM     18  O   UNL     1       4.091   1.326  18.049  0.00  0.00    +0.000 OA
ATOM     19  H   UNL     1       4.595   1.109  18.853  0.00  0.00    +0.000 HD
ENDBRANCH   6  18
TORSDOF 5
ENDMDL
MODEL 2
REMARK VINA RESULT:      -6.6      1.643      2.639
REMARK  Name = 
REMARK  5 active torsions:
REMARK  status: ('A' for Active; 'I' for Inactive)
REMARK    1  A    between atoms: C_2  and  C_3
REMARK    2  A    between atoms: C_3  and  C_13
REMARK    3  A    between atoms: C_4  and  C_5
REMARK    4  A    between atoms: C_8  and  O_9
REMARK    5  A    between atoms: C_11  and  O_12
REMARK                            x       y       z     vdW  Elec       q    Type
REMARK                         _______ _______ _______ _____ _____    ______ ____
ROOT
ATOM      1  C   UNL     1       4.111   4.143  18.950  0.00  0.00    +0.000 A 
ATOM      2  C   UNL     1       3.001   4.768  18.366  0.00  0.00    +0.000 A 
ATOM      3  C   UNL     1       1.827   4.044  18.122  0.00  0.00    +0.000 A 
ATOM      4  C   UNL     1       1.770   2.696  18.463  0.00  0.00    +0.000 A 
ATOM      5  C   UNL     1       2.863   2.055  19.035  0.00  0.00    +0.000 A 
ATOM      6  C   UNL     1       4.027   2.781  19.280  0.00  0.00    +0.000 A 
ENDROOT
BRANCH   1   8
ATOM      7  C   UNL     1       6.322   5.126  18.380  0.00  0.00    +0.000 C 
ATOM      8  C   UNL     1       5.318   4.929  19.258  0.00  0.00    +0.000 C 
BRANCH   7   9
ATOM      9  C   UNL     1       7.493   5.946  18.787  0.00  0.00    +0.000 C 
ATOM     10  N   UNL     1       8.177   5.548  19.896  0.00  0.00    +0.000 N 
ATOM     11  O   UNL     1       7.848   6.949  18.176  0.00  0.00    +0.000 OA
ATOM     12  H   UNL     1       7.964   4.734  20.459  0.00  0.00    +0.000 HD
ATOM     13  H   UNL     1       8.977   6.108  20.166  0.00  0.00    +0.000 HD
ENDBRANCH   7   9
BRANCH   7  15
ATOM     14  N   UNL     1       6.215   3.953  15.861  0.00  0.00    +0.000 NA
ATOM     15  C   UNL     1       6.263   4.485  17.003  0.00  0.00    +0.000 C 
ENDBRANCH   7  15
ENDBRANCH   1   8
BRANCH   4  16
ATOM     16  O   UNL     1       0.642   1.958  18.253  0.00  0.00    +0.000 OA
ATOM     17  H   UNL     1       0.880   1.150  17.769  0.00  0.00    +0.000 HD
ENDBRANCH   4  16
BRANCH   6  18
ATOM     18  O   UNL     1       5.105   2.172  19.863  0.00  0.00    +0.000 OA
ATOM     19  H   UNL     1       5.051   2.304  20.825  0.00  0.00    +0.000 HD
ENDBRANCH   6  18
TORSDOF 5
ENDMDL
MODEL 3
REMARK VINA RESULT:      -6.6      1.472      1.498
REMARK  Name = 
REMARK  5 active torsions:
REMARK  status: ('A' for Active; 'I' for Inactive)
REMARK    1  A    between atoms: C_2  and  C_3
REMARK    2  A    between atoms: C_3  and  C_13
REMARK    3  A    between atoms: C_4  and  C_5
REMARK    4  A    between atoms: C_8  and  O_9
REMARK    5  A    between atoms: C_11  and  O_12
REMARK                            x       y       z     vdW  Elec       q    Type
REMARK                         _______ _______ _______ _____ _____    ______ ____
ROOT
ATOM      1  C   UNL     1       3.712   3.452  17.710  0.00  0.00    +0.000 A 
ATOM      2  C   UNL     1       2.375   3.623  17.326  0.00  0.00    +0.000 A 
ATOM      3  C   UNL     1       1.355   3.606  18.284  0.00  0.00    +0.000 A 
ATOM      4  C   UNL     1       1.677   3.418  19.625  0.00  0.00    +0.000 A 
ATOM      5  C   UNL     1       2.997   3.239  20.026  0.00  0.00    +0.000 A 
ATOM      6  C   UNL     1       4.008   3.261  19.068  0.00  0.00    +0.000 A 
ENDROOT
BRANCH   1   8
ATOM      7  C   UNL     1       5.330   4.693  16.289  0.00  0.00    +0.000 C 
ATOM      8  C   UNL     1       4.781   3.533  16.700  0.00  0.00    +0.000 C 
BRANCH   7   9
ATOM      9  C   UNL     1       6.413   4.664  15.270  0.00  0.00    +0.000 C 
ATOM     10  N   UNL     1       6.340   3.699  14.311  0.00  0.00    +0.000 N 
ATOM     11  O   UNL     1       7.350   5.456  15.272  0.00  0.00    +0.000 OA
ATOM     12  H   UNL     1       5.606   3.009  14.225  0.00  0.00    +0.000 HD
ATOM     13  H   UNL     1       7.079   3.688  13.617  0.00  0.00    +0.000 HD
ENDBRANCH   7   9
BRANCH   7  15
ATOM     14  N   UNL     1       4.395   7.108  17.301  0.00  0.00    +0.000 NA
ATOM     15  C   UNL     1       4.819   6.013  16.842  0.00  0.00    +0.000 C 
ENDBRANCH   7  15
ENDBRANCH   1   8
BRANCH   4  16
ATOM     16  O   UNL     1       0.715   3.407  20.592  0.00  0.00    +0.000 OA
ATOM     17  H   UNL     1       0.384   2.500  20.697  0.00  0.00    +0.000 HD
ENDBRANCH   4  16
BRANCH   6  18
ATOM     18  O   UNL     1       5.314   3.108  19.447  0.00  0.00    +0.000 OA
ATOM     19  H   UNL     1       5.648   3.968  19.759  0.00  0.00    +0.000 HD
ENDBRANCH   6  18
TORSDOF 5
ENDMDL
MODEL 4
REMARK VINA RESULT:      -6.6      1.624      1.747
REMARK  Name = 
REMARK  5 active torsions:
REMARK  status: ('A' for Active; 'I' for Inactive)
REMARK    1  A    between atoms: C_2  and  C_3
REMARK    2  A    between atoms: C_3  and  C_13
REMARK    3  A    between atoms: C_4  and  C_5
REMARK    4  A    between atoms: C_8  and  O_9
REMARK    5  A    between atoms: C_11  and  O_12
REMARK                            x       y       z     vdW  Elec       q    Type
REMARK                         _______ _______ _______ _____ _____    ______ ____
ROOT
ATOM      1  C   UNL     1       4.202   4.804  17.490  0.00  0.00    +0.000 A 
ATOM      2  C   UNL     1       3.846   6.049  18.028  0.00  0.00    +0.000 A 
ATOM      3  C   UNL     1       3.244   6.129  19.289  0.00  0.00    +0.000 A 
ATOM      4  C   UNL     1       3.001   4.963  20.009  0.00  0.00    +0.000 A 
ATOM      5  C   UNL     1       3.340   3.718  19.491  0.00  0.00    +0.000 A 
ATOM      6  C   UNL     1       3.942   3.644  18.236  0.00  0.00    +0.000 A 
ENDROOT
BRANCH   1   8
ATOM      7  C   UNL     1       6.227   4.636  16.059  0.00  0.00    +0.000 C 
ATOM      8  C   UNL     1       4.890   4.737  16.190  0.00  0.00    +0.000 C 
BRANCH   7   9
ATOM      9  C   UNL     1       6.822   4.565  14.698  0.00  0.00    +0.000 C 
ATOM     10  N   UNL     1       6.368   3.582  13.871  0.00  0.00    +0.000 N 
ATOM     11  O   UNL     1       7.694   5.337  14.311  0.00  0.00    +0.000 OA
ATOM     12  H   UNL     1       5.651   2.906  14.099  0.00  0.00    +0.000 HD
ATOM     13  H   UNL     1       6.774   3.542  12.944  0.00  0.00    +0.000 HD
ENDBRANCH   7   9
BRANCH   7  15
ATOM     14  N   UNL     1       7.846   4.625  18.320  0.00  0.00    +0.000 NA
ATOM     15  C   UNL     1       7.112   4.630  17.295  0.00  0.00    +0.000 C 
ENDBRANCH   7  15
ENDBRANCH   1   8
BRANCH   4  16
ATOM     16  O   UNL     1       2.428   4.998  21.246  0.00  0.00    +0.000 OA
ATOM     17  H   UNL     1       1.979   4.153  21.410  0.00  0.00    +0.000 HD
ENDBRANCH   4  16
BRANCH   6  18
ATOM     18  O   UNL     1       4.303   2.429  17.720  0.00  0.00    +0.000 OA
ATOM     19  H   UNL     1       4.208   1.757  18.418  0.00  0.00    +0.000 HD
ENDBRANCH   6  18
TORSDOF 5
ENDMDL
MODEL 5
REMARK VINA RESULT:      -6.6      1.779      1.812
REMARK  Name = 
REMARK  5 active torsions:
REMARK  status: ('A' for Active; 'I' for Inactive)
REMARK    1  A    between atoms: C_2  and  C_3
REMARK    2  A    between atoms: C_3  and  C_13
REMARK    3  A    between atoms: C_4  and  C_5
REMARK    4  A    between atoms: C_8  and  O_9
REMARK    5  A    between atoms: C_11  and  O_12
REMARK                            x       y       z     vdW  Elec       q    Type
REMARK                         _______ _______ _______ _____ _____    ______ ____
ROOT
ATOM      1  C   UNL     1       3.496   4.530  18.770  0.00  0.00    +0.000 A 
ATOM      2  C   UNL     1       2.829   5.343  19.697  0.00  0.00    +0.000 A 
ATOM      3  C   UNL     1       2.272   4.787  20.854  0.00  0.00    +0.000 A 
ATOM      4  C   UNL     1       2.384   3.418  21.081  0.00  0.00    +0.000 A 
ATOM      5  C   UNL     1       3.036   2.593  20.170  0.00  0.00    +0.000 A 
ATOM      6  C   UNL     1       3.592   3.153  19.021  0.00  0.00    +0.000 A 
ENDROOT
BRANCH   1   8
ATOM      7  C   UNL     1       5.415   5.545  17.559  0.00  0.00    +0.000 C 
ATOM      8  C   UNL     1       4.131   5.135  17.587  0.00  0.00    +0.000 C 
BRANCH   7   9
ATOM      9  C   UNL     1       5.963   6.135  16.309  0.00  0.00    +0.000 C 
ATOM     10  N   UNL     1       7.303   6.011  16.098  0.00  0.00    +0.000 N 
ATOM     11  O   UNL     1       5.265   6.723  15.489  0.00  0.00    +0.000 OA
ATOM     12  H   UNL     1       7.955   5.540  16.712  0.00  0.00    +0.000 HD
ATOM     13  H   UNL     1       7.670   6.411  15.242  0.00  0.00    +0.000 HD
ENDBRANCH   7   9
BRANCH   7  15
ATOM     14  N   UNL     1       6.989   5.338  19.842  0.00  0.00    +0.000 NA
ATOM     15  C   UNL     1       6.275   5.432  18.807  0.00  0.00    +0.000 C 
ENDBRANCH   7  15
ENDBRANCH   1   8
BRANCH   4  16
ATOM     16  O   UNL     1       1.867   2.838  22.201  0.00  0.00    +0.000 OA
ATOM     17  H   UNL     1       1.618   1.922  21.996  0.00  0.00    +0.000 HD
ENDBRANCH   4  16
BRANCH   6  18
ATOM     18  O   UNL     1       4.256   2.359  18.126  0.00  0.00    +0.000 OA
ATOM     19  H   UNL     1       5.048   1.998  18.560  0.00  0.00    +0.000 HD
ENDBRANCH   6  18
TORSDOF 5
ENDMDL
MODEL 6
REMARK VINA RESULT:      -6.5      1.828      2.454
REMARK  Name = 
REMARK  5 active torsions:
REMARK  status: ('A' for Active; 'I' for Inactive)
REMARK    1  A    between atoms: C_2  and  C_3
REMARK    2  A    between atoms: C_3  and  C_13
REMARK    3  A    between atoms: C_4  and  C_5
REMARK    4  A    between atoms: C_8  and  O_9
REMARK    5  A    between atoms: C_11  and  O_12
REMARK                            x       y       z     vdW  Elec       q    Type
REMARK                         _______ _______ _______ _____ _____    ______ ____
ROOT
ATOM      1  C   UNL     1       4.034   4.330  18.535  0.00  0.00    +0.000 A 
ATOM      2  C   UNL     1       2.863   4.791  17.920  0.00  0.00    +0.000 A 
ATOM      3  C   UNL     1       1.735   3.965  17.837  0.00  0.00    +0.000 A 
ATOM      4  C   UNL     1       1.784   2.681  18.370  0.00  0.00    +0.000 A 
ATOM      5  C   UNL     1       2.939   2.202  18.979  0.00  0.00    +0.000 A 
ATOM      6  C   UNL     1       4.058   3.030  19.062  0.00  0.00    +0.000 A 
ENDROOT
BRANCH   1   8
ATOM      7  C   UNL     1       6.162   5.339  17.741  0.00  0.00    +0.000 C 
ATOM      8  C   UNL     1       5.194   5.229  18.671  0.00  0.00    +0.000 C 
BRANCH   7   9
ATOM      9  C   UNL     1       7.287   6.285  17.970  0.00  0.00    +0.000 C 
ATOM     10  N   UNL     1       7.475   7.264  17.041  0.00  0.00    +0.000 N 
ATOM     11  O   UNL     1       8.035   6.207  18.939  0.00  0.00    +0.000 OA
ATOM     12  H   UNL     1       6.908   7.410  16.216  0.00  0.00    +0.000 HD
ATOM     13  H   UNL     1       8.240   7.907  17.205  0.00  0.00    +0.000 HD
ENDBRANCH   7   9
BRANCH   7  15
ATOM     14  N   UNL     1       6.077   3.762  15.452  0.00  0.00    +0.000 NA
ATOM     15  C   UNL     1       6.115   4.477  16.490  0.00  0.00    +0.000 C 
ENDBRANCH   7  15
ENDBRANCH   1   8
BRANCH   4  16
ATOM     16  O   UNL     1       0.704   1.850  18.322  0.00  0.00    +0.000 OA
ATOM     17  H   UNL     1       0.445   1.616  19.229  0.00  0.00    +0.000 HD
ENDBRANCH   4  16
BRANCH   6  18
ATOM     18  O   UNL     1       5.196   2.582  19.677  0.00  0.00    +0.000 OA
ATOM     19  H   UNL     1       4.982   2.362  20.600  0.00  0.00    +0.000 HD
ENDBRANCH   6  18
TORSDOF 5
ENDMDL
MODEL 7
REMARK VINA RESULT:      -6.4      1.322      1.802
REMARK  Name = 
REMARK  5 active torsions:
REMARK  status: ('A' for Active; 'I' for Inactive)
REMARK    1  A    between atoms: C_2  and  C_3
REMARK    2  A    between atoms: C_3  and  C_13
REMARK    3  A    between atoms: C_4  and  C_5
REMARK    4  A    between atoms: C_8  and  O_9
REMARK    5  A    between atoms: C_11  and  O_12
REMARK                            x       y       z     vdW  Elec       q    Type
REMARK                         _______ _______ _______ _____ _____    ______ ____
ROOT
ATOM      1  C   UNL     1       3.407   3.793  17.463  0.00  0.00    +0.000 A 
ATOM      2  C   UNL     1       3.093   2.476  17.825  0.00  0.00    +0.000 A 
ATOM      3  C   UNL     1       2.111   2.221  18.791  0.00  0.00    +0.000 A 
ATOM      4  C   UNL     1       1.447   3.287  19.391  0.00  0.00    +0.000 A 
ATOM      5  C   UNL     1       1.749   4.601  19.051  0.00  0.00    +0.000 A 
ATOM      6  C   UNL     1       2.724   4.849  18.086  0.00  0.00    +0.000 A 
ENDROOT
BRANCH   1   8
ATOM      7  C   UNL     1       5.680   4.381  16.647  0.00  0.00    +0.000 C 
ATOM      8  C   UNL     1       4.398   4.045  16.403  0.00  0.00    +0.000 C 
BRANCH   7   9
ATOM      9  C   UNL     1       6.603   4.605  15.504  0.00  0.00    +0.000 C 
ATOM     10  N   UNL     1       6.453   3.800  14.415  0.00  0.00    +0.000 N 
ATOM     11  O   UNL     1       7.480   5.464  15.515  0.00  0.00    +0.000 OA
ATOM     12  H   UNL     1       5.758   3.072  14.313  0.00  0.00    +0.000 HD
ATOM     13  H   UNL     1       7.083   3.961  13.638  0.00  0.00    +0.000 HD
ENDBRANCH   7   9
BRANCH   7  15
ATOM     14  N   UNL     1       6.556   4.707  19.266  0.00  0.00    +0.000 NA
ATOM     15  C   UNL     1       6.158   4.560  18.079  0.00  0.00    +0.000 C 
ENDBRANCH   7  15
ENDBRANCH   1   8
BRANCH   4  16
ATOM     16  O   UNL     1       0.476   3.083  20.326  0.00  0.00    +0.000 OA
ATOM     17  H   UNL     1      -0.256   3.701  20.161  0.00  0.00    +0.000 HD
ENDBRANCH   4  16
BRANCH   6  18
ATOM     18  O   UNL     1       3.018   6.135  17.724  0.00  0.00    +0.000 OA
ATOM     19  H   UNL     1       2.561   6.740  18.334  0.00  0.00    +0.000 HD
ENDBRANCH   6  18
TORSDOF 5
ENDMDL
MODEL 8
REMARK VINA RESULT:      -6.4      2.557      5.494
REMARK  Name = 
REMARK  5 active torsions:
REMARK  status: ('A' for Active; 'I' for Inactive)
REMARK    1  A    between atoms: C_2  and  C_3
REMARK    2  A    between atoms: C_3  and  C_13
REMARK    3  A    between atoms: C_4  and  C_5
REMARK    4  A    between atoms: C_8  and  O_9
REMARK    5  A    between atoms: C_11  and  O_12
REMARK                            x       y       z     vdW  Elec       q    Type
REMARK                         _______ _______ _______ _____ _____    ______ ____
ROOT
ATOM      1  C   UNL     1       3.754   4.713  17.270  0.00  0.00    +0.000 A 
ATOM      2  C   UNL     1       4.592   3.916  16.479  0.00  0.00    +0.000 A 
ATOM      3  C   UNL     1       5.840   4.397  16.062  0.00  0.00    +0.000 A 
ATOM      4  C   UNL     1       6.244   5.674  16.440  0.00  0.00    +0.000 A 
ATOM      5  C   UNL     1       5.424   6.483  17.219  0.00  0.00    +0.000 A 
ATOM      6  C   UNL     1       4.184   5.998  17.634  0.00  0.00    +0.000 A 
ENDROOT
BRANCH   1   8
ATOM      7  C   UNL     1       2.367   3.308  18.780  0.00  0.00    +0.000 C 
ATOM      8  C   UNL     1       2.471   4.173  17.752  0.00  0.00    +0.000 C 
BRANCH   7   9
ATOM      9  C   UNL     1       1.022   2.831  19.196  0.00  0.00    +0.000 C 
ATOM     10  N   UNL     1       0.598   3.173  20.445  0.00  0.00    +0.000 N 
ATOM     11  O   UNL     1       0.304   2.148  18.472  0.00  0.00    +0.000 OA
ATOM     12  H   UNL     1       1.115   3.735  21.108  0.00  0.00    +0.000 HD
ATOM     13  H   UNL     1      -0.321   2.848  20.721  0.00  0.00    +0.000 HD
ENDBRANCH   7   9
BRANCH   7  15
ATOM     14  N   UNL     1       4.659   2.389  20.060  0.00  0.00    +0.000 NA
ATOM     15  C   UNL     1       3.620   2.806  19.479  0.00  0.00    +0.000 C 
ENDBRANCH   7  15
ENDBRANCH   1   8
BRANCH   4  16
ATOM     16  O   UNL     1       7.456   6.175  16.066  0.00  0.00    +0.000 OA
ATOM     17  H   UNL     1       8.094   6.023  16.783  0.00  0.00    +0.000 HD
ENDBRANCH   4  16
BRANCH   6  18
ATOM     18  O   UNL     1       3.374   6.772  18.419  0.00  0.00    +0.000 OA
ATOM     19  H   UNL     1       2.846   7.350  17.842  0.00  0.00    +0.000 HD
ENDBRANCH   6  18
TORSDOF 5
ENDMDL
MODEL 9
REMARK VINA RESULT:      -6.3      2.258      2.744
REMARK  Name = 
REMARK  5 active torsions:
REMARK  status: ('A' for Active; 'I' for Inactive)
REMARK    1  A    between atoms: C_2  and  C_3
REMARK    2  A    between atoms: C_3  and  C_13
REMARK    3  A    between atoms: C_4  and  C_5
REMARK    4  A    between atoms: C_8  and  O_9
REMARK    5  A    between atoms: C_11  and  O_12
REMARK                            x       y       z     vdW  Elec       q    Type
REMARK                         _______ _______ _______ _____ _____    ______ ____
ROOT
ATOM      1  C   UNL     1       3.605   4.738  19.034  0.00  0.00    +0.000 A 
ATOM      2  C   UNL     1       3.745   3.344  19.063  0.00  0.00    +0.000 A 
ATOM      3  C   UNL     1       3.142   2.592  20.078  0.00  0.00    +0.000 A 
ATOM      4  C   UNL     1       2.400   3.238  21.062  0.00  0.00    +0.000 A 
ATOM      5  C   UNL     1       2.254   4.621  21.056  0.00  0.00    +0.000 A 
ATOM      6  C   UNL     1       2.854   5.365  20.040  0.00  0.00    +0.000 A 
ENDROOT
BRANCH   1   8
ATOM      7  C   UNL     1       5.487   5.883  17.885  0.00  0.00    +0.000 C 
ATOM      8  C   UNL     1       4.193   5.511  17.927  0.00  0.00    +0.000 C 
BRANCH   7   9
ATOM      9  C   UNL     1       5.985   6.655  16.715  0.00  0.00    +0.000 C 
ATOM     10  N   UNL     1       5.243   6.601  15.573  0.00  0.00    +0.000 N 
ATOM     11  O   UNL     1       7.020   7.313  16.743  0.00  0.00    +0.000 OA
ATOM     12  H   UNL     1       4.377   6.092  15.457  0.00  0.00    +0.000 HD
ATOM     13  H   UNL     1       5.585   7.132  14.781  0.00  0.00    +0.000 HD
ENDBRANCH   7   9
BRANCH   7  15
ATOM     14  N   UNL     1       7.182   5.257  19.999  0.00  0.00    +0.000 NA
ATOM     15  C   UNL     1       6.414   5.541  19.040  0.00  0.00    +0.000 C 
ENDBRANCH   7  15
ENDBRANCH   1   8
BRANCH   4  16
ATOM     16  O   UNL     1       1.785   2.543  22.061  0.00  0.00    +0.000 OA
ATOM     17  H   UNL     1       1.692   1.615  21.788  0.00  0.00    +0.000 HD
ENDBRANCH   4  16
BRANCH   6  18
ATOM     18  O   UNL     1       2.702   6.724  20.007  0.00  0.00    +0.000 OA
ATOM     19  H   UNL     1       2.422   7.026  20.888  0.00  0.00    +0.000 HD
ENDBRANCH   6  18
TORSDOF 5
ENDMDL
