MODEL 1
REMARK VINA RESULT:      -7.5      0.000      0.000
REMARK  Name = 
REMARK  7 active torsions:
REMARK  status: ('A' for Active; 'I' for Inactive)
REMARK    1  A    between atoms: C_1  and  O_2
REMARK    2  A    between atoms: O_2  and  C_3
REMARK    3  A    between atoms: C_6  and  N_7
REMARK    4  A    between atoms: C_8  and  C_10
REMARK    5  A    between atoms: C_15  and  C_16
REMARK    6  A    between atoms: C_16  and  O_18
REMARK    7  A    between atoms: C_19  and  N_20
REMARK                            x       y       z     vdW  Elec       q    Type
REMARK                         _______ _______ _______ _____ _____    ______ ____
ROOT
ATOM      1  N   UNL     1       4.518   3.899  17.346  0.00  0.00    +0.000 N 
ATOM      2  C   UNL     1       3.679   4.792  17.987  0.00  0.00    +0.000 C 
ATOM      3  O   UNL     1       3.611   5.999  17.778  0.00  0.00    +0.000 OA
ATOM      4  H   UNL     1       4.639   2.974  17.759  0.00  0.00    +0.000 HD
ENDROOT
BRANCH   1   8
ATOM      5  C   UNL     1       7.076   4.790  14.063  0.00  0.00    +0.000 A 
ATOM      6  C   UNL     1       5.840   4.184  13.869  0.00  0.00    +0.000 A 
ATOM      7  C   UNL     1       5.012   3.885  14.951  0.00  0.00    +0.000 A 
ATOM      8  C   UNL     1       5.384   4.207  16.262  0.00  0.00    +0.000 A 
ATOM      9  C   UNL     1       6.645   4.812  16.454  0.00  0.00    +0.000 A 
ATOM     10  C   UNL     1       7.488   5.096  15.357  0.00  0.00    +0.000 A 
BRANCH   9  11
ATOM     11  N   UNL     1       7.110   5.235  17.786  0.00  0.00    +0.000 N 
ATOM     12  O   UNL     1       7.417   6.426  17.950  0.00  0.00    +0.000 OA
ATOM     13  O   UNL     1       7.174   4.376  18.680  0.00  0.00    +0.000 OA
ENDBRANCH   9  11
BRANCH   5  15
ATOM     14  C   UNL     1       7.309   4.410  11.726  0.00  0.00    +0.000 C 
ATOM     15  O   UNL     1       7.771   5.041  12.913  0.00  0.00    +0.000 OA
ENDBRANCH   5  15
ENDBRANCH   1   8
BRANCH   2  16
ATOM     16  C   UNL     1       2.846   4.260  19.088  0.00  0.00    +0.000 A 
ATOM     17  C   UNL     1       1.821   5.086  19.590  0.00  0.00    +0.000 A 
ATOM     18  C   UNL     1       0.983   4.641  20.610  0.00  0.00    +0.000 A 
ATOM     19  C   UNL     1       1.147   3.362  21.130  0.00  0.00    +0.000 A 
ATOM     20  C   UNL     1       2.144   2.529  20.625  0.00  0.00    +0.000 A 
ATOM     21  C   UNL     1       3.006   2.956  19.593  0.00  0.00    +0.000 A 
BRANCH  21  22
ATOM     22  C   UNL     1       4.061   1.963  19.225  0.00  0.00    +0.000 C 
ATOM     23  O   UNL     1       3.821   1.078  18.414  0.00  0.00    +0.000 OA
BRANCH  22  24
ATOM     24  O   UNL     1       5.299   2.135  19.714  0.00  0.00    +0.000 OA
ATOM     25  H   UNL     1       5.403   2.822  20.415  0.00  0.00    +0.000 HD
ENDBRANCH  22  24
ENDBRANCH  21  22
ENDBRANCH   2  16
TORSDOF 6
ENDMDL
MODEL 2
REMARK VINA RESULT:      -7.4      0.813      1.209
REMARK  Name = 
REMARK  7 active torsions:
REMARK  status: ('A' for Active; 'I' for Inactive)
REMARK    1  A    between atoms: C_1  and  O_2
REMARK    2  A    between atoms: O_2  and  C_3
REMARK    3  A    between atoms: C_6  and  N_7
REMARK    4  A    between atoms: C_8  and  C_10
REMARK    5  A    between atoms: C_15  and  C_16
REMARK    6  A    between atoms: C_16  and  O_18
REMARK    7  A    between atoms: C_19  and  N_20
REMARK                            x       y       z     vdW  Elec       q    Type
REMARK                         _______ _______ _______ _____ _____    ______ ____
ROOT
ATOM      1  N   UNL     1       4.716   4.167  17.608  0.00  0.00    +0.000 N 
ATOM      2  C   UNL     1       3.406   3.723  17.649  0.00  0.00    +0.000 C 
ATOM      3  O   UNL     1       2.684   3.513  16.679  0.00  0.00    +0.000 OA
ATOM      4  H   UNL     1       5.131   4.514  18.473  0.00  0.00    +0.000 HD
ENDROOT
BRANCH   1   8
ATOM      5  C   UNL     1       6.989   4.732  14.055  0.00  0.00    +0.000 A 
ATOM      6  C   UNL     1       5.734   4.134  14.019  0.00  0.00    +0.000 A 
ATOM      7  C   UNL     1       5.000   3.943  15.190  0.00  0.00    +0.000 A 
ATOM      8  C   UNL     1       5.488   4.366  16.432  0.00  0.00    +0.000 A 
ATOM      9  C   UNL     1       6.767   4.962  16.462  0.00  0.00    +0.000 A 
ATOM     10  C   UNL     1       7.515   5.138  15.277  0.00  0.00    +0.000 A 
BRANCH   9  11
ATOM     11  N   UNL     1       7.350   5.487  17.709  0.00  0.00    +0.000 N 
ATOM     12  O   UNL     1       7.778   4.674  18.544  0.00  0.00    +0.000 OA
ATOM     13  O   UNL     1       7.382   6.717  17.865  0.00  0.00    +0.000 OA
ENDBRANCH   9  11
BRANCH   5  15
ATOM     14  C   UNL     1       7.088   4.063  11.773  0.00  0.00    +0.000 C 
ATOM     15  O   UNL     1       7.584   4.872  12.832  0.00  0.00    +0.000 OA
ENDBRANCH   5  15
ENDBRANCH   1   8
BRANCH   2  16
ATOM     16  C   UNL     1       2.789   3.571  18.984  0.00  0.00    +0.000 A 
ATOM     17  C   UNL     1       1.683   4.388  19.291  0.00  0.00    +0.000 A 
ATOM     18  C   UNL     1       1.038   4.281  20.521  0.00  0.00    +0.000 A 
ATOM     19  C   UNL     1       1.478   3.348  21.452  0.00  0.00    +0.000 A 
ATOM     20  C   UNL     1       2.557   2.518  21.150  0.00  0.00    +0.000 A 
ATOM     21  C   UNL     1       3.228   2.608  19.912  0.00  0.00    +0.000 A 
BRANCH  21  22
ATOM     22  C   UNL     1       4.405   1.695  19.786  0.00  0.00    +0.000 C 
ATOM     23  O   UNL     1       5.277   1.687  20.646  0.00  0.00    +0.000 OA
BRANCH  22  24
ATOM     24  O   UNL     1       4.422   0.811  18.776  0.00  0.00    +0.000 OA
ATOM     25  H   UNL     1       4.268  -0.134  19.015  0.00  0.00    +0.000 HD
ENDBRANCH  22  24
ENDBRANCH  21  22
ENDBRANCH   2  16
TORSDOF 6
ENDMDL
MODEL 3
REMARK VINA RESULT:      -7.3      0.762      1.087
REMARK  Name = 
REMARK  7 active torsions:
REMARK  status: ('A' for Active; 'I' for Inactive)
REMARK    1  A    between atoms: C_1  and  O_2
REMARK    2  A    between atoms: O_2  and  C_3
REMARK    3  A    between atoms: C_6  and  N_7
REMARK    4  A    between atoms: C_8  and  C_10
REMARK    5  A    between atoms: C_15  and  C_16
REMARK    6  A    between atoms: C_16  and  O_18
REMARK    7  A    between atoms: C_19  and  N_20
REMARK                            x       y       z     vdW  Elec       q    Type
REMARK                         _______ _______ _______ _____ _____    ______ ____
ROOT
ATOM      1  N   UNL     1       4.795   3.863  17.446  0.00  0.00    +0.000 N 
ATOM      2  C   UNL     1       3.889   4.696  18.078  0.00  0.00    +0.000 C 
ATOM      3  O   UNL     1       3.694   5.880  17.821  0.00  0.00    +0.000 OA
ATOM      4  H   UNL     1       5.020   2.975  17.893  0.00  0.00    +0.000 HD
ENDROOT
BRANCH   1   8
ATOM      5  C   UNL     1       7.147   4.859  14.042  0.00  0.00    +0.000 A 
ATOM      6  C   UNL     1       5.930   4.201  13.908  0.00  0.00    +0.000 A 
ATOM      7  C   UNL     1       5.170   3.868  15.030  0.00  0.00    +0.000 A 
ATOM      8  C   UNL     1       5.592   4.206  16.321  0.00  0.00    +0.000 A 
ATOM      9  C   UNL     1       6.834   4.865  16.451  0.00  0.00    +0.000 A 
ATOM     10  C   UNL     1       7.609   5.184  15.314  0.00  0.00    +0.000 A 
BRANCH   9  11
ATOM     11  N   UNL     1       7.346   5.308  17.759  0.00  0.00    +0.000 N 
ATOM     12  O   UNL     1       7.641   4.442  18.597  0.00  0.00    +0.000 OA
ATOM     13  O   UNL     1       7.453   6.528  17.959  0.00  0.00    +0.000 OA
ENDBRANCH   9  11
BRANCH   5  15
ATOM     14  C   UNL     1       7.349   4.409  11.714  0.00  0.00    +0.000 C 
ATOM     15  O   UNL     1       7.772   5.138  12.859  0.00  0.00    +0.000 OA
ENDBRANCH   5  15
ENDBRANCH   1   8
BRANCH   2  16
ATOM     16  C   UNL     1       3.148   4.134  19.228  0.00  0.00    +0.000 A 
ATOM     17  C   UNL     1       2.883   4.990  20.316  0.00  0.00    +0.000 A 
ATOM     18  C   UNL     1       2.170   4.535  21.423  0.00  0.00    +0.000 A 
ATOM     19  C   UNL     1       1.699   3.227  21.451  0.00  0.00    +0.000 A 
ATOM     20  C   UNL     1       1.936   2.379  20.370  0.00  0.00    +0.000 A 
ATOM     21  C   UNL     1       2.657   2.816  19.238  0.00  0.00    +0.000 A 
BRANCH  21  22
ATOM     22  C   UNL     1       2.880   1.756  18.207  0.00  0.00    +0.000 C 
ATOM     23  O   UNL     1       2.279   1.793  17.142  0.00  0.00    +0.000 OA
BRANCH  22  24
ATOM     24  O   UNL     1       3.833   0.837  18.433  0.00  0.00    +0.000 OA
ATOM     25  H   UNL     1       3.635   0.159  19.122  0.00  0.00    +0.000 HD
ENDBRANCH  22  24
ENDBRANCH  21  22
ENDBRANCH   2  16
TORSDOF 6
ENDMDL
MODEL 4
REMARK VINA RESULT:      -7.2      1.207      1.509
REMARK  Name = 
REMARK  7 active torsions:
REMARK  status: ('A' for Active; 'I' for Inactive)
REMARK    1  A    between atoms: C_1  and  O_2
REMARK    2  A    between atoms: O_2  and  C_3
REMARK    3  A    between atoms: C_6  and  N_7
REMARK    4  A    between atoms: C_8  and  C_10
REMARK    5  A    between atoms: C_15  and  C_16
REMARK    6  A    between atoms: C_16  and  O_18
REMARK    7  A    between atoms: C_19  and  N_20
REMARK                            x       y       z     vdW  Elec       q    Type
REMARK                         _______ _______ _______ _____ _____    ______ ____
ROOT
ATOM      1  N   UNL     1       4.577   4.220  17.592  0.00  0.00    +0.000 N 
ATOM      2  C   UNL     1       3.297   3.700  17.652  0.00  0.00    +0.000 C 
ATOM      3  O   UNL     1       2.580   3.431  16.693  0.00  0.00    +0.000 OA
ATOM      4  H   UNL     1       4.978   4.605  18.448  0.00  0.00    +0.000 HD
ENDROOT
BRANCH   1   8
ATOM      5  C   UNL     1       6.820   4.837  14.028  0.00  0.00    +0.000 A 
ATOM      6  C   UNL     1       6.254   3.600  14.318  0.00  0.00    +0.000 A 
ATOM      7  C   UNL     1       5.529   3.403  15.494  0.00  0.00    +0.000 A 
ATOM      8  C   UNL     1       5.326   4.445  16.406  0.00  0.00    +0.000 A 
ATOM      9  C   UNL     1       5.912   5.695  16.111  0.00  0.00    +0.000 A 
ATOM     10  C   UNL     1       6.660   5.885  14.928  0.00  0.00    +0.000 A 
BRANCH   9  11
ATOM     11  N   UNL     1       5.717   6.869  16.980  0.00  0.00    +0.000 N 
ATOM     12  O   UNL     1       6.697   7.593  17.216  0.00  0.00    +0.000 OA
ATOM     13  O   UNL     1       4.582   7.074  17.436  0.00  0.00    +0.000 OA
ENDBRANCH   9  11
BRANCH   5  15
ATOM     14  C   UNL     1       7.093   3.959  11.834  0.00  0.00    +0.000 C 
ATOM     15  O   UNL     1       7.484   4.889  12.834  0.00  0.00    +0.000 OA
ENDBRANCH   5  15
ENDBRANCH   1   8
BRANCH   2  16
ATOM     16  C   UNL     1       2.701   3.533  18.995  0.00  0.00    +0.000 A 
ATOM     17  C   UNL     1       1.581   4.324  19.317  0.00  0.00    +0.000 A 
ATOM     18  C   UNL     1       0.954   4.203  20.555  0.00  0.00    +0.000 A 
ATOM     19  C   UNL     1       1.427   3.280  21.480  0.00  0.00    +0.000 A 
ATOM     20  C   UNL     1       2.520   2.475  21.164  0.00  0.00    +0.000 A 
ATOM     21  C   UNL     1       3.173   2.580  19.917  0.00  0.00    +0.000 A 
BRANCH  21  22
ATOM     22  C   UNL     1       4.369   1.694  19.775  0.00  0.00    +0.000 C 
ATOM     23  O   UNL     1       5.267   1.729  20.607  0.00  0.00    +0.000 OA
BRANCH  22  24
ATOM     24  O   UNL     1       4.378   0.787  18.785  0.00  0.00    +0.000 OA
ATOM     25  H   UNL     1       3.573   0.751  18.215  0.00  0.00    +0.000 HD
ENDBRANCH  22  24
ENDBRANCH  21  22
ENDBRANCH   2  16
TORSDOF 6
ENDMDL
MODEL 5
REMARK VINA RESULT:      -7.2      1.176      1.351
REMARK  Name = 
REMARK  7 active torsions:
REMARK  status: ('A' for Active; 'I' for Inactive)
REMARK    1  A    between atoms: C_1  and  O_2
REMARK    2  A    between atoms: O_2  and  C_3
REMARK    3  A    between atoms: C_6  and  N_7
REMARK    4  A    between atoms: C_8  and  C_10
REMARK    5  A    between atoms: C_15  and  C_16
REMARK    6  A    between atoms: C_16  and  O_18
REMARK    7  A    between atoms: C_19  and  N_20
REMARK                            x       y       z     vdW  Elec       q    Type
REMARK                         _______ _______ _______ _____ _____    ______ ____
ROOT
ATOM      1  N   UNL     1       4.355   4.395  17.830  0.00  0.00    +0.000 N 
ATOM      2  C   UNL     1       3.624   3.241  18.047  0.00  0.00    +0.000 C 
ATOM      3  O   UNL     1       3.561   2.273  17.296  0.00  0.00    +0.000 OA
ATOM      4  H   UNL     1       4.151   5.207  18.412  0.00  0.00    +0.000 HD
ENDROOT
BRANCH   1   8
ATOM      5  C   UNL     1       6.963   5.059  14.533  0.00  0.00    +0.000 A 
ATOM      6  C   UNL     1       5.657   4.619  14.341  0.00  0.00    +0.000 A 
ATOM      7  C   UNL     1       4.812   4.393  15.428  0.00  0.00    +0.000 A 
ATOM      8  C   UNL     1       5.239   4.625  16.742  0.00  0.00    +0.000 A 
ATOM      9  C   UNL     1       6.568   5.060  16.930  0.00  0.00    +0.000 A 
ATOM     10  C   UNL     1       7.426   5.270  15.828  0.00  0.00    +0.000 A 
BRANCH   9  11
ATOM     11  N   UNL     1       7.099   5.380  18.266  0.00  0.00    +0.000 N 
ATOM     12  O   UNL     1       7.812   6.388  18.388  0.00  0.00    +0.000 OA
ATOM     13  O   UNL     1       6.811   4.621  19.204  0.00  0.00    +0.000 OA
ENDBRANCH   9  11
BRANCH   5  15
ATOM     14  C   UNL     1       7.315   4.456  12.258  0.00  0.00    +0.000 C 
ATOM     15  O   UNL     1       7.668   5.256  13.379  0.00  0.00    +0.000 OA
ENDBRANCH   5  15
ENDBRANCH   1   8
BRANCH   2  16
ATOM     16  C   UNL     1       2.770   3.203  19.254  0.00  0.00    +0.000 A 
ATOM     17  C   UNL     1       1.478   3.757  19.159  0.00  0.00    +0.000 A 
ATOM     18  C   UNL     1       0.612   3.735  20.249  0.00  0.00    +0.000 A 
ATOM     19  C   UNL     1       1.016   3.146  21.441  0.00  0.00    +0.000 A 
ATOM     20  C   UNL     1       2.284   2.573  21.539  0.00  0.00    +0.000 A 
ATOM     21  C   UNL     1       3.181   2.584  20.450  0.00  0.00    +0.000 A 
BRANCH  21  22
ATOM     22  C   UNL     1       4.520   1.993  20.753  0.00  0.00    +0.000 C 
ATOM     23  O   UNL     1       4.700   1.366  21.789  0.00  0.00    +0.000 OA
BRANCH  22  24
ATOM     24  O   UNL     1       5.478   2.068  19.815  0.00  0.00    +0.000 OA
ATOM     25  H   UNL     1       5.647   2.961  19.430  0.00  0.00    +0.000 HD
ENDBRANCH  22  24
ENDBRANCH  21  22
ENDBRANCH   2  16
TORSDOF 6
ENDMDL
MODEL 6
REMARK VINA RESULT:      -7.0      1.201      1.727
REMARK  Name = 
REMARK  7 active torsions:
REMARK  status: ('A' for Active; 'I' for Inactive)
REMARK    1  A    between atoms: C_1  and  O_2
REMARK    2  A    between atoms: O_2  and  C_3
REMARK    3  A    between atoms: C_6  and  N_7
REMARK    4  A    between atoms: C_8  and  C_10
REMARK    5  A    between atoms: C_15  and  C_16
REMARK    6  A    between atoms: C_16  and  O_18
REMARK    7  A    between atoms: C_19  and  N_20
REMARK                            x       y       z     vdW  Elec       q    Type
REMARK                         _______ _______ _______ _____ _____    ______ ____
ROOT
ATOM      1  N   UNL     1       4.367   4.150  17.413  0.00  0.00    +0.000 N 
ATOM      2  C   UNL     1       4.761   4.125  18.738  0.00  0.00    +0.000 C 
ATOM      3  O   UNL     1       5.907   4.264  19.154  0.00  0.00    +0.000 OA
ATOM      4  H   UNL     1       3.436   3.804  17.184  0.00  0.00    +0.000 HD
ENDROOT
BRANCH   1   8
ATOM      5  C   UNL     1       6.883   4.953  14.075  0.00  0.00    +0.000 A 
ATOM      6  C   UNL     1       6.349   3.687  14.286  0.00  0.00    +0.000 A 
ATOM      7  C   UNL     1       5.534   3.429  15.389  0.00  0.00    +0.000 A 
ATOM      8  C   UNL     1       5.207   4.438  16.303  0.00  0.00    +0.000 A 
ATOM      9  C   UNL     1       5.761   5.718  16.089  0.00  0.00    +0.000 A 
ATOM     10  C   UNL     1       6.600   5.970  14.981  0.00  0.00    +0.000 A 
BRANCH   9  11
ATOM     11  N   UNL     1       5.440   6.859  16.963  0.00  0.00    +0.000 N 
ATOM     12  O   UNL     1       4.245   7.147  17.138  0.00  0.00    +0.000 OA
ATOM     13  O   UNL     1       6.381   7.481  17.479  0.00  0.00    +0.000 OA
ENDBRANCH   9  11
BRANCH   5  15
ATOM     14  C   UNL     1       7.272   4.267  11.830  0.00  0.00    +0.000 C 
ATOM     15  O   UNL     1       7.646   5.064  12.946  0.00  0.00    +0.000 OA
ENDBRANCH   5  15
ENDBRANCH   1   8
BRANCH   2  16
ATOM     16  C   UNL     1       3.721   3.815  19.743  0.00  0.00    +0.000 A 
ATOM     17  C   UNL     1       2.676   4.745  19.910  0.00  0.00    +0.000 A 
ATOM     18  C   UNL     1       1.650   4.506  20.822  0.00  0.00    +0.000 A 
ATOM     19  C   UNL     1       1.645   3.332  21.565  0.00  0.00    +0.000 A 
ATOM     20  C   UNL     1       2.663   2.395  21.391  0.00  0.00    +0.000 A 
ATOM     21  C   UNL     1       3.714   2.613  20.476  0.00  0.00    +0.000 A 
BRANCH  21  22
ATOM     22  C   UNL     1       4.755   1.540  20.471  0.00  0.00    +0.000 C 
ATOM     23  O   UNL     1       5.457   1.355  21.457  0.00  0.00    +0.000 OA
BRANCH  22  24
ATOM     24  O   UNL     1       4.821   0.719  19.411  0.00  0.00    +0.000 OA
ATOM     25  H   UNL     1       4.331  -0.135  19.485  0.00  0.00    +0.000 HD
ENDBRANCH  22  24
ENDBRANCH  21  22
ENDBRANCH   2  16
TORSDOF 6
ENDMDL
MODEL 7
REMARK VINA RESULT:      -6.9      1.283      2.356
REMARK  Name = 
REMARK  7 active torsions:
REMARK  status: ('A' for Active; 'I' for Inactive)
REMARK    1  A    between atoms: C_1  and  O_2
REMARK    2  A    between atoms: O_2  and  C_3
REMARK    3  A    between atoms: C_6  and  N_7
REMARK    4  A    between atoms: C_8  and  C_10
REMARK    5  A    between atoms: C_15  and  C_16
REMARK    6  A    between atoms: C_16  and  O_18
REMARK    7  A    between atoms: C_19  and  N_20
REMARK                            x       y       z     vdW  Elec       q    Type
REMARK                         _______ _______ _______ _____ _____    ______ ____
ROOT
ATOM      1  N   UNL     1       4.213   4.100  17.308  0.00  0.00    +0.000 N 
ATOM      2  C   UNL     1       4.514   3.763  18.615  0.00  0.00    +0.000 C 
ATOM      3  O   UNL     1       5.639   3.619  19.083  0.00  0.00    +0.000 OA
ATOM      4  H   UNL     1       3.252   3.971  16.990  0.00  0.00    +0.000 HD
ENDROOT
BRANCH   1   8
ATOM      5  C   UNL     1       7.031   5.042  14.261  0.00  0.00    +0.000 A 
ATOM      6  C   UNL     1       6.318   3.849  14.238  0.00  0.00    +0.000 A 
ATOM      7  C   UNL     1       5.404   3.542  15.247  0.00  0.00    +0.000 A 
ATOM      8  C   UNL     1       5.155   4.433  16.298  0.00  0.00    +0.000 A 
ATOM      9  C   UNL     1       5.890   5.638  16.321  0.00  0.00    +0.000 A 
ATOM     10  C   UNL     1       6.828   5.936  15.308  0.00  0.00    +0.000 A 
BRANCH   9  11
ATOM     11  N   UNL     1       5.668   6.664  17.355  0.00  0.00    +0.000 N 
ATOM     12  O   UNL     1       4.514   7.087  17.523  0.00  0.00    +0.000 OA
ATOM     13  O   UNL     1       6.649   7.057  18.005  0.00  0.00    +0.000 OA
ENDBRANCH   9  11
BRANCH   5  15
ATOM     14  C   UNL     1       7.459   4.693  11.947  0.00  0.00    +0.000 C 
ATOM     15  O   UNL     1       7.875   5.217  13.201  0.00  0.00    +0.000 OA
ENDBRANCH   5  15
ENDBRANCH   1   8
BRANCH   2  16
ATOM     16  C   UNL     1       3.377   3.463  19.512  0.00  0.00    +0.000 A 
ATOM     17  C   UNL     1       3.642   2.714  20.675  0.00  0.00    +0.000 A 
ATOM     18  C   UNL     1       2.622   2.414  21.576  0.00  0.00    +0.000 A 
ATOM     19  C   UNL     1       1.332   2.872  21.337  0.00  0.00    +0.000 A 
ATOM     20  C   UNL     1       1.064   3.634  20.201  0.00  0.00    +0.000 A 
ATOM     21  C   UNL     1       2.078   3.950  19.272  0.00  0.00    +0.000 A 
BRANCH  21  22
ATOM     22  C   UNL     1       1.600   4.711  18.077  0.00  0.00    +0.000 C 
ATOM     23  O   UNL     1       0.907   4.162  17.230  0.00  0.00    +0.000 OA
BRANCH  22  24
ATOM     24  O   UNL     1       1.851   6.028  18.017  0.00  0.00    +0.000 OA
ATOM     25  H   UNL     1       2.080   6.472  18.869  0.00  0.00    +0.000 HD
ENDBRANCH  22  24
ENDBRANCH  21  22
ENDBRANCH   2  16
TORSDOF 6
ENDMDL
MODEL 8
REMARK VINA RESULT:      -6.9      1.182      2.297
REMARK  Name = 
REMARK  7 active torsions:
REMARK  status: ('A' for Active; 'I' for Inactive)
REMARK    1  A    between atoms: C_1  and  O_2
REMARK    2  A    between atoms: O_2  and  C_3
REMARK    3  A    between atoms: C_6  and  N_7
REMARK    4  A    between atoms: C_8  and  C_10
REMARK    5  A    between atoms: C_15  and  C_16
REMARK    6  A    between atoms: C_16  and  O_18
REMARK    7  A    between atoms: C_19  and  N_20
REMARK                            x       y       z     vdW  Elec       q    Type
REMARK                         _______ _______ _______ _____ _____    ______ ____
ROOT
ATOM      1  N   UNL     1       4.597   4.273  17.661  0.00  0.00    +0.000 N 
ATOM      2  C   UNL     1       3.306   3.776  17.693  0.00  0.00    +0.000 C 
ATOM      3  O   UNL     1       2.622   3.479  16.719  0.00  0.00    +0.000 OA
ATOM      4  H   UNL     1       4.972   4.687  18.515  0.00  0.00    +0.000 HD
ENDROOT
BRANCH   1   8
ATOM      5  C   UNL     1       6.942   4.737  14.140  0.00  0.00    +0.000 A 
ATOM      6  C   UNL     1       5.644   4.243  14.080  0.00  0.00    +0.000 A 
ATOM      7  C   UNL     1       4.885   4.084  15.241  0.00  0.00    +0.000 A 
ATOM      8  C   UNL     1       5.394   4.437  16.496  0.00  0.00    +0.000 A 
ATOM      9  C   UNL     1       6.717   4.928  16.551  0.00  0.00    +0.000 A 
ATOM     10  C   UNL     1       7.487   5.071  15.376  0.00  0.00    +0.000 A 
BRANCH   9  11
ATOM     11  N   UNL     1       7.328   5.374  17.815  0.00  0.00    +0.000 N 
ATOM     12  O   UNL     1       7.538   6.587  17.968  0.00  0.00    +0.000 OA
ATOM     13  O   UNL     1       7.606   4.513  18.663  0.00  0.00    +0.000 OA
ENDBRANCH   9  11
BRANCH   5  15
ATOM     14  C   UNL     1       7.079   4.034  11.871  0.00  0.00    +0.000 C 
ATOM     15  O   UNL     1       7.558   4.858  12.925  0.00  0.00    +0.000 OA
ENDBRANCH   5  15
ENDBRANCH   1   8
BRANCH   2  16
ATOM     16  C   UNL     1       2.658   3.674  19.018  0.00  0.00    +0.000 A 
ATOM     17  C   UNL     1       2.426   2.384  19.535  0.00  0.00    +0.000 A 
ATOM     18  C   UNL     1       1.841   2.214  20.788  0.00  0.00    +0.000 A 
ATOM     19  C   UNL     1       1.495   3.326  21.546  0.00  0.00    +0.000 A 
ATOM     20  C   UNL     1       1.742   4.607  21.054  0.00  0.00    +0.000 A 
ATOM     21  C   UNL     1       2.332   4.807  19.788  0.00  0.00    +0.000 A 
BRANCH  21  22
ATOM     22  C   UNL     1       2.456   6.242  19.389  0.00  0.00    +0.000 C 
ATOM     23  O   UNL     1       2.467   6.557  18.206  0.00  0.00    +0.000 OA
BRANCH  22  24
ATOM     24  O   UNL     1       2.438   7.177  20.353  0.00  0.00    +0.000 OA
ATOM     25  H   UNL     1       2.033   8.045  20.116  0.00  0.00    +0.000 HD
ENDBRANCH  22  24
ENDBRANCH  21  22
ENDBRANCH   2  16
TORSDOF 6
ENDMDL
MODEL 9
REMARK VINA RESULT:      -6.8      1.063      2.309
REMARK  Name = 
REMARK  7 active torsions:
REMARK  status: ('A' for Active; 'I' for Inactive)
REMARK    1  A    between atoms: C_1  and  O_2
REMARK    2  A    between atoms: O_2  and  C_3
REMARK    3  A    between atoms: C_6  and  N_7
REMARK    4  A    between atoms: C_8  and  C_10
REMARK    5  A    between atoms: C_15  and  C_16
REMARK    6  A    between atoms: C_16  and  O_18
REMARK    7  A    between atoms: C_19  and  N_20
REMARK                            x       y       z     vdW  Elec       q    Type
REMARK                         _______ _______ _______ _____ _____    ______ ____
ROOT
ATOM      1  N   UNL     1       4.527   4.345  17.545  0.00  0.00    +0.000 N 
ATOM      2  C   UNL     1       4.099   3.141  18.072  0.00  0.00    +0.000 C 
ATOM      3  O   UNL     1       4.336   2.027  17.616  0.00  0.00    +0.000 OA
ATOM      4  H   UNL     1       4.084   5.200  17.881  0.00  0.00    +0.000 HD
ENDROOT
BRANCH   1   8
ATOM      5  C   UNL     1       7.099   4.784  14.181  0.00  0.00    +0.000 A 
ATOM      6  C   UNL     1       5.798   4.314  14.037  0.00  0.00    +0.000 A 
ATOM      7  C   UNL     1       4.965   4.162  15.146  0.00  0.00    +0.000 A 
ATOM      8  C   UNL     1       5.399   4.501  16.433  0.00  0.00    +0.000 A 
ATOM      9  C   UNL     1       6.724   4.968  16.574  0.00  0.00    +0.000 A 
ATOM     10  C   UNL     1       7.570   5.102  15.451  0.00  0.00    +0.000 A 
BRANCH   9  11
ATOM     11  N   UNL     1       7.262   5.397  17.877  0.00  0.00    +0.000 N 
ATOM     12  O   UNL     1       7.641   6.573  17.995  0.00  0.00    +0.000 OA
ATOM     13  O   UNL     1       7.312   4.560  18.791  0.00  0.00    +0.000 OA
ENDBRANCH   9  11
BRANCH   5  15
ATOM     14  C   UNL     1       7.241   4.262  11.865  0.00  0.00    +0.000 C 
ATOM     15  O   UNL     1       7.792   4.900  13.009  0.00  0.00    +0.000 OA
ENDBRANCH   5  15
ENDBRANCH   1   8
BRANCH   2  16
ATOM     16  C   UNL     1       3.200   3.202  19.245  0.00  0.00    +0.000 A 
ATOM     17  C   UNL     1       3.540   2.428  20.371  0.00  0.00    +0.000 A 
ATOM     18  C   UNL     1       2.751   2.455  21.519  0.00  0.00    +0.000 A 
ATOM     19  C   UNL     1       1.625   3.267  21.564  0.00  0.00    +0.000 A 
ATOM     20  C   UNL     1       1.291   4.056  20.463  0.00  0.00    +0.000 A 
ATOM     21  C   UNL     1       2.073   4.044  19.288  0.00  0.00    +0.000 A 
BRANCH  21  22
ATOM     22  C   UNL     1       1.530   4.893  18.183  0.00  0.00    +0.000 C 
ATOM     23  O   UNL     1       1.843   6.073  18.097  0.00  0.00    +0.000 OA
BRANCH  22  24
ATOM     24  O   UNL     1       0.789   4.303  17.231  0.00  0.00    +0.000 OA
ATOM     25  H   UNL     1      -0.145   4.611  17.146  0.00  0.00    +0.000 HD
ENDBRANCH  22  24
ENDBRANCH  21  22
ENDBRANCH   2  16
TORSDOF 6
ENDMDL
