MODEL 1
REMARK VINA RESULT:      -6.5      0.000      0.000
REMARK  Name = 
REMARK  5 active torsions:
REMARK  status: ('A' for Active; 'I' for Inactive)
REMARK    1  A    between atoms: C_1  and  C_2
REMARK    2  A    between atoms: C_2  and  O_3
REMARK    3  A    between atoms: O_3  and  C_4
REMARK    4  A    between atoms: C_10  and  C_11
REMARK    5  A    between atoms: N_12  and  N_13
REMARK                            x       y       z     vdW  Elec       q    Type
REMARK                         _______ _______ _______ _____ _____    ______ ____
ROOT
ATOM      1  C   UNL     1       5.175   5.990  16.900  0.00  0.00    +0.000 A 
ATOM      2  C   UNL     1       4.295   6.593  17.815  0.00  0.00    +0.000 A 
ATOM      3  C   UNL     1       3.136   5.944  18.239  0.00  0.00    +0.000 A 
ATOM      4  C   UNL     1       2.837   4.679  17.757  0.00  0.00    +0.000 A 
ATOM      5 CL   UNL     1       1.401   3.889  18.273  0.00  0.00    +0.000 Cl
ATOM      6  C   UNL     1       3.694   4.053  16.858  0.00  0.00    +0.000 A 
ATOM      7  C   UNL     1       4.865   4.701  16.426  0.00  0.00    +0.000 A 
ENDROOT
BRANCH   7   8
ATOM      8  C   UNL     1       5.737   3.985  15.461  0.00  0.00    +0.000 C 
ATOM      9  N   UNL     1       5.628   4.212  14.186  0.00  0.00    +0.000 NA
BRANCH   9  10
ATOM     10  N   UNL     1       6.485   3.524  13.373  0.00  0.00    +0.000 N 
ATOM     11  C   UNL     1       6.073   3.013  12.162  0.00  0.00    +0.000 C 
ATOM     12  N   UNL     1       4.773   3.280  11.862  0.00  0.00    +0.000 N 
ATOM     13  O   UNL     1       6.802   2.375  11.417  0.00  0.00    +0.000 OA
ATOM     14  H   UNL     1       7.448   3.363  13.637  0.00  0.00    +0.000 HD
ATOM     15  H   UNL     1       4.208   3.578  12.646  0.00  0.00    +0.000 HD
ATOM     16  H   UNL     1       4.353   2.810  11.077  0.00  0.00    +0.000 HD
ENDBRANCH   9  10
ENDBRANCH   7   8
BRANCH   1  17
ATOM     17  O   UNL     1       6.323   6.599  16.447  0.00  0.00    +0.000 OA
BRANCH  17  19
ATOM     18  C   UNL     1       7.708   8.214  17.602  0.00  0.00    +0.000 C 
ATOM     19  C   UNL     1       7.368   6.749  17.418  0.00  0.00    +0.000 C 
ENDBRANCH  17  19
ENDBRANCH   1  17
TORSDOF 4
ENDMDL
MODEL 2
REMARK VINA RESULT:      -6.4      1.336      1.368
REMARK  Name = 
REMARK  5 active torsions:
REMARK  status: ('A' for Active; 'I' for Inactive)
REMARK    1  A    between atoms: C_1  and  C_2
REMARK    2  A    between atoms: C_2  and  O_3
REMARK    3  A    between atoms: O_3  and  C_4
REMARK    4  A    between atoms: C_10  and  C_11
REMARK    5  A    between atoms: N_12  and  N_13
REMARK                            x       y       z     vdW  Elec       q    Type
REMARK                         _______ _______ _______ _____ _____    ______ ____
ROOT
ATOM      1  C   UNL     1       5.838   4.593  18.321  0.00  0.00    +0.000 A 
ATOM      2  C   UNL     1       4.926   4.877  19.351  0.00  0.00    +0.000 A 
ATOM      3  C   UNL     1       3.549   4.821  19.134  0.00  0.00    +0.000 A 
ATOM      4  C   UNL     1       3.061   4.476  17.882  0.00  0.00    +0.000 A 
ATOM      5 CL   UNL     1       1.364   4.420  17.616  0.00  0.00    +0.000 Cl
ATOM      6  C   UNL     1       3.940   4.179  16.847  0.00  0.00    +0.000 A 
ATOM      7  C   UNL     1       5.329   4.234  17.058  0.00  0.00    +0.000 A 
ENDROOT
BRANCH   7   8
ATOM      8  C   UNL     1       6.217   3.913  15.912  0.00  0.00    +0.000 C 
ATOM      9  N   UNL     1       5.774   4.005  14.694  0.00  0.00    +0.000 NA
BRANCH   9  10
ATOM     10  N   UNL     1       6.666   3.710  13.701  0.00  0.00    +0.000 N 
ATOM     11  C   UNL     1       6.246   3.385  12.430  0.00  0.00    +0.000 C 
ATOM     12  N   UNL     1       4.896   3.413  12.269  0.00  0.00    +0.000 N 
ATOM     13  O   UNL     1       7.010   3.096  11.522  0.00  0.00    +0.000 OA
ATOM     14  H   UNL     1       7.663   3.716  13.869  0.00  0.00    +0.000 HD
ATOM     15  H   UNL     1       4.365   3.406  13.130  0.00  0.00    +0.000 HD
ATOM     16  H   UNL     1       4.503   3.036  11.422  0.00  0.00    +0.000 HD
ENDBRANCH   9  10
ENDBRANCH   7   8
BRANCH   1  17
ATOM     17  O   UNL     1       7.203   4.647  18.489  0.00  0.00    +0.000 OA
BRANCH  17  19
ATOM     18  C   UNL     1       7.677   6.963  17.964  0.00  0.00    +0.000 C 
ATOM     19  C   UNL     1       7.712   5.878  19.022  0.00  0.00    +0.000 C 
ENDBRANCH  17  19
ENDBRANCH   1  17
TORSDOF 4
ENDMDL
MODEL 3
REMARK VINA RESULT:      -6.4      2.311      2.975
REMARK  Name = 
REMARK  5 active torsions:
REMARK  status: ('A' for Active; 'I' for Inactive)
REMARK    1  A    between atoms: C_1  and  C_2
REMARK    2  A    between atoms: C_2  and  O_3
REMARK    3  A    between atoms: O_3  and  C_4
REMARK    4  A    between atoms: C_10  and  C_11
REMARK    5  A    between atoms: N_12  and  N_13
REMARK                            x       y       z     vdW  Elec       q    Type
REMARK                         _______ _______ _______ _____ _____    ______ ____
ROOT
ATOM      1  C   UNL     1       4.750   3.629  18.893  0.00  0.00    +0.000 A 
ATOM      2  C   UNL     1       4.119   3.058  20.011  0.00  0.00    +0.000 A 
ATOM      3  C   UNL     1       2.788   2.645  19.958  0.00  0.00    +0.000 A 
ATOM      4  C   UNL     1       2.065   2.793  18.784  0.00  0.00    +0.000 A 
ATOM      5 CL   UNL     1       0.421   2.295  18.728  0.00  0.00    +0.000 Cl
ATOM      6  C   UNL     1       2.666   3.346  17.659  0.00  0.00    +0.000 A 
ATOM      7  C   UNL     1       4.008   3.764  17.704  0.00  0.00    +0.000 A 
ENDROOT
BRANCH   7   8
ATOM      8  C   UNL     1       4.592   4.352  16.472  0.00  0.00    +0.000 C 
ATOM      9  N   UNL     1       5.359   3.637  15.704  0.00  0.00    +0.000 NA
BRANCH   9  10
ATOM     10  N   UNL     1       5.835   4.253  14.581  0.00  0.00    +0.000 N 
ATOM     11  C   UNL     1       7.070   4.862  14.564  0.00  0.00    +0.000 C 
ATOM     12  N   UNL     1       7.752   4.765  15.737  0.00  0.00    +0.000 N 
ATOM     13  O   UNL     1       7.523   5.440  13.587  0.00  0.00    +0.000 OA
ATOM     14  H   UNL     1       5.294   4.286  13.728  0.00  0.00    +0.000 HD
ATOM     15  H   UNL     1       7.188   4.503  16.536  0.00  0.00    +0.000 HD
ATOM     16  H   UNL     1       8.586   5.316  15.858  0.00  0.00    +0.000 HD
ENDBRANCH   9  10
ENDBRANCH   7   8
BRANCH   1  17
ATOM     17  O   UNL     1       6.057   4.060  18.905  0.00  0.00    +0.000 OA
BRANCH  17  19
ATOM     18  C   UNL     1       7.717   5.796  19.201  0.00  0.00    +0.000 C 
ATOM     19  C   UNL     1       6.259   5.409  19.347  0.00  0.00    +0.000 C 
ENDBRANCH  17  19
ENDBRANCH   1  17
TORSDOF 4
ENDMDL
MODEL 4
REMARK VINA RESULT:      -6.2      4.366      6.054
REMARK  Name = 
REMARK  5 active torsions:
REMARK  status: ('A' for Active; 'I' for Inactive)
REMARK    1  A    between atoms: C_1  and  C_2
REMARK    2  A    between atoms: C_2  and  O_3
REMARK    3  A    between atoms: O_3  and  C_4
REMARK    4  A    between atoms: C_10  and  C_11
REMARK    5  A    between atoms: N_12  and  N_13
REMARK                            x       y       z     vdW  Elec       q    Type
REMARK                         _______ _______ _______ _____ _____    ______ ____
ROOT
ATOM      1  C   UNL     1       4.227   5.911  17.416  0.00  0.00    +0.000 A 
ATOM      2  C   UNL     1       4.923   6.616  16.419  0.00  0.00    +0.000 A 
ATOM      3  C   UNL     1       5.543   5.950  15.362  0.00  0.00    +0.000 A 
ATOM      4  C   UNL     1       5.475   4.567  15.282  0.00  0.00    +0.000 A 
ATOM      5 CL   UNL     1       6.252   3.751  13.985  0.00  0.00    +0.000 Cl
ATOM      6  C   UNL     1       4.785   3.844  16.248  0.00  0.00    +0.000 A 
ATOM      7  C   UNL     1       4.157   4.508  17.317  0.00  0.00    +0.000 A 
ENDROOT
BRANCH   7   8
ATOM      8  C   UNL     1       3.440   3.681  18.321  0.00  0.00    +0.000 C 
ATOM      9  N   UNL     1       3.898   3.580  19.533  0.00  0.00    +0.000 NA
BRANCH   9  10
ATOM     10  N   UNL     1       3.164   2.816  20.396  0.00  0.00    +0.000 N 
ATOM     11  C   UNL     1       2.365   3.387  21.362  0.00  0.00    +0.000 C 
ATOM     12  N   UNL     1       2.366   4.747  21.348  0.00  0.00    +0.000 N 
ATOM     13  O   UNL     1       1.710   2.738  22.163  0.00  0.00    +0.000 OA
ATOM     14  H   UNL     1       3.187   1.805  20.356  0.00  0.00    +0.000 HD
ATOM     15  H   UNL     1       3.128   5.166  20.830  0.00  0.00    +0.000 HD
ATOM     16  H   UNL     1       1.939   5.238  22.116  0.00  0.00    +0.000 HD
ENDBRANCH   9  10
ENDBRANCH   7   8
BRANCH   1  17
ATOM     17  O   UNL     1       3.611   6.527  18.481  0.00  0.00    +0.000 OA
BRANCH  17  19
ATOM     18  C   UNL     1       2.377   8.542  17.955  0.00  0.00    +0.000 C 
ATOM     19  C   UNL     1       2.302   7.052  18.220  0.00  0.00    +0.000 C 
ENDBRANCH  17  19
ENDBRANCH   1  17
TORSDOF 4
ENDMDL
MODEL 5
REMARK VINA RESULT:      -6.2      2.701      3.961
REMARK  Name = 
REMARK  5 active torsions:
REMARK  status: ('A' for Active; 'I' for Inactive)
REMARK    1  A    between atoms: C_1  and  C_2
REMARK    2  A    between atoms: C_2  and  O_3
REMARK    3  A    between atoms: O_3  and  C_4
REMARK    4  A    between atoms: C_10  and  C_11
REMARK    5  A    between atoms: N_12  and  N_13
REMARK                            x       y       z     vdW  Elec       q    Type
REMARK                         _______ _______ _______ _____ _____    ______ ____
ROOT
ATOM      1  C   UNL     1       2.537   6.052  19.353  0.00  0.00    +0.000 A 
ATOM      2  C   UNL     1       1.684   5.568  20.359  0.00  0.00    +0.000 A 
ATOM      3  C   UNL     1       1.304   4.227  20.401  0.00  0.00    +0.000 A 
ATOM      4  C   UNL     1       1.772   3.345  19.439  0.00  0.00    +0.000 A 
ATOM      5 CL   UNL     1       1.290   1.697  19.487  0.00  0.00    +0.000 Cl
ATOM      6  C   UNL     1       2.625   3.794  18.436  0.00  0.00    +0.000 A 
ATOM      7  C   UNL     1       3.013   5.145  18.387  0.00  0.00    +0.000 A 
ENDROOT
BRANCH   7   8
ATOM      8  C   UNL     1       3.921   5.565  17.289  0.00  0.00    +0.000 C 
ATOM      9  N   UNL     1       4.785   4.728  16.798  0.00  0.00    +0.000 NA
BRANCH   9  10
ATOM     10  N   UNL     1       5.565   5.194  15.776  0.00  0.00    +0.000 N 
ATOM     11  C   UNL     1       6.934   5.039  15.788  0.00  0.00    +0.000 C 
ATOM     12  N   UNL     1       7.406   4.372  16.876  0.00  0.00    +0.000 N 
ATOM     13  O   UNL     1       7.666   5.458  14.905  0.00  0.00    +0.000 OA
ATOM     14  H   UNL     1       5.163   5.672  14.981  0.00  0.00    +0.000 HD
ATOM     15  H   UNL     1       6.757   4.306  17.649  0.00  0.00    +0.000 HD
ATOM     16  H   UNL     1       8.400   4.357  17.039  0.00  0.00    +0.000 HD
ENDBRANCH   9  10
ENDBRANCH   7   8
BRANCH   1  17
ATOM     17  O   UNL     1       2.928   7.369  19.267  0.00  0.00    +0.000 OA
BRANCH  17  19
ATOM     18  C   UNL     1       1.971   9.052  17.813  0.00  0.00    +0.000 C 
ATOM     19  C   UNL     1       1.864   8.323  19.137  0.00  0.00    +0.000 C 
ENDBRANCH  17  19
ENDBRANCH   1  17
TORSDOF 4
ENDMDL
MODEL 6
REMARK VINA RESULT:      -6.1      3.065      4.482
REMARK  Name = 
REMARK  5 active torsions:
REMARK  status: ('A' for Active; 'I' for Inactive)
REMARK    1  A    between atoms: C_1  and  C_2
REMARK    2  A    between atoms: C_2  and  O_3
REMARK    3  A    between atoms: O_3  and  C_4
REMARK    4  A    between atoms: C_10  and  C_11
REMARK    5  A    between atoms: N_12  and  N_13
REMARK                            x       y       z     vdW  Elec       q    Type
REMARK                         _______ _______ _______ _____ _____    ______ ____
ROOT
ATOM      1  C   UNL     1       3.408   4.525  19.289  0.00  0.00    +0.000 A 
ATOM      2  C   UNL     1       2.645   4.536  20.470  0.00  0.00    +0.000 A 
ATOM      3  C   UNL     1       1.960   5.680  20.878  0.00  0.00    +0.000 A 
ATOM      4  C   UNL     1       2.023   6.834  20.111  0.00  0.00    +0.000 A 
ATOM      5 CL   UNL     1       1.188   8.245  20.625  0.00  0.00    +0.000 Cl
ATOM      6  C   UNL     1       2.762   6.850  18.933  0.00  0.00    +0.000 A 
ATOM      7  C   UNL     1       3.455   5.700  18.515  0.00  0.00    +0.000 A 
ENDROOT
BRANCH   7   8
ATOM      8  C   UNL     1       4.232   5.781  17.251  0.00  0.00    +0.000 C 
ATOM      9  N   UNL     1       5.491   6.100  17.276  0.00  0.00    +0.000 NA
BRANCH   9  10
ATOM     10  N   UNL     1       6.132   6.130  16.069  0.00  0.00    +0.000 N 
ATOM     11  C   UNL     1       7.161   5.261  15.779  0.00  0.00    +0.000 C 
ATOM     12  N   UNL     1       7.443   4.384  16.779  0.00  0.00    +0.000 N 
ATOM     13  O   UNL     1       7.771   5.270  14.721  0.00  0.00    +0.000 OA
ATOM     14  H   UNL     1       5.874   6.794  15.351  0.00  0.00    +0.000 HD
ATOM     15  H   UNL     1       7.064   4.634  17.683  0.00  0.00    +0.000 HD
ATOM     16  H   UNL     1       8.279   3.827  16.711  0.00  0.00    +0.000 HD
ENDBRANCH   9  10
ENDBRANCH   7   8
BRANCH   1  17
ATOM     17  O   UNL     1       4.108   3.423  18.856  0.00  0.00    +0.000 OA
BRANCH  17  19
ATOM     18  C   UNL     1       2.404   2.178  17.669  0.00  0.00    +0.000 C 
ATOM     19  C   UNL     1       3.372   2.192  18.835  0.00  0.00    +0.000 C 
ENDBRANCH  17  19
ENDBRANCH   1  17
TORSDOF 4
ENDMDL
MODEL 7
REMARK VINA RESULT:      -6.1      2.301      3.147
REMARK  Name = 
REMARK  5 active torsions:
REMARK  status: ('A' for Active; 'I' for Inactive)
REMARK    1  A    between atoms: C_1  and  C_2
REMARK    2  A    between atoms: C_2  and  O_3
REMARK    3  A    between atoms: O_3  and  C_4
REMARK    4  A    between atoms: C_10  and  C_11
REMARK    5  A    between atoms: N_12  and  N_13
REMARK                            x       y       z     vdW  Elec       q    Type
REMARK                         _______ _______ _______ _____ _____    ______ ____
ROOT
ATOM      1  C   UNL     1       3.157   5.913  17.972  0.00  0.00    +0.000 A 
ATOM      2  C   UNL     1       2.174   5.286  18.757  0.00  0.00    +0.000 A 
ATOM      3  C   UNL     1       2.155   3.902  18.922  0.00  0.00    +0.000 A 
ATOM      4  C   UNL     1       3.120   3.119  18.307  0.00  0.00    +0.000 A 
ATOM      5 CL   UNL     1       3.084   1.412  18.502  0.00  0.00    +0.000 Cl
ATOM      6  C   UNL     1       4.110   3.712  17.532  0.00  0.00    +0.000 A 
ATOM      7  C   UNL     1       4.137   5.108  17.361  0.00  0.00    +0.000 A 
ENDROOT
BRANCH   7   8
ATOM      8  C   UNL     1       5.216   5.682  16.517  0.00  0.00    +0.000 C 
ATOM      9  N   UNL     1       6.131   4.911  16.010  0.00  0.00    +0.000 NA
BRANCH   9  10
ATOM     10  N   UNL     1       7.073   5.522  15.230  0.00  0.00    +0.000 N 
ATOM     11  C   UNL     1       7.390   5.043  13.978  0.00  0.00    +0.000 C 
ATOM     12  N   UNL     1       6.671   3.949  13.605  0.00  0.00    +0.000 N 
ATOM     13  O   UNL     1       8.239   5.548  13.259  0.00  0.00    +0.000 OA
ATOM     14  H   UNL     1       7.570   6.342  15.548  0.00  0.00    +0.000 HD
ATOM     15  H   UNL     1       6.199   3.473  14.362  0.00  0.00    +0.000 HD
ATOM     16  H   UNL     1       6.952   3.446  12.779  0.00  0.00    +0.000 HD
ENDBRANCH   9  10
ENDBRANCH   7   8
BRANCH   1  17
ATOM     17  O   UNL     1       3.206   7.274  17.773  0.00  0.00    +0.000 OA
BRANCH  17  19
ATOM     18  C   UNL     1       1.612   9.096  17.745  0.00  0.00    +0.000 C 
ATOM     19  C   UNL     1       2.316   8.050  18.587  0.00  0.00    +0.000 C 
ENDBRANCH  17  19
ENDBRANCH   1  17
TORSDOF 4
ENDMDL
MODEL 8
REMARK VINA RESULT:      -6.0      2.752      3.900
REMARK  Name = 
REMARK  5 active torsions:
REMARK  status: ('A' for Active; 'I' for Inactive)
REMARK    1  A    between atoms: C_1  and  C_2
REMARK    2  A    between atoms: C_2  and  O_3
REMARK    3  A    between atoms: O_3  and  C_4
REMARK    4  A    between atoms: C_10  and  C_11
REMARK    5  A    between atoms: N_12  and  N_13
REMARK                            x       y       z     vdW  Elec       q    Type
REMARK                         _______ _______ _______ _____ _____    ______ ____
ROOT
ATOM      1  C   UNL     1       2.769   6.104  18.799  0.00  0.00    +0.000 A 
ATOM      2  C   UNL     1       2.064   6.198  20.011  0.00  0.00    +0.000 A 
ATOM      3  C   UNL     1       1.954   5.105  20.871  0.00  0.00    +0.000 A 
ATOM      4  C   UNL     1       2.550   3.899  20.535  0.00  0.00    +0.000 A 
ATOM      5 CL   UNL     1       2.401   2.553  21.591  0.00  0.00    +0.000 Cl
ATOM      6  C   UNL     1       3.263   3.779  19.347  0.00  0.00    +0.000 A 
ATOM      7  C   UNL     1       3.379   4.877  18.475  0.00  0.00    +0.000 A 
ENDROOT
BRANCH   7   8
ATOM      8  C   UNL     1       4.148   4.685  17.219  0.00  0.00    +0.000 C 
ATOM      9  N   UNL     1       5.446   4.632  17.247  0.00  0.00    +0.000 NA
BRANCH   9  10
ATOM     10  N   UNL     1       6.070   4.433  16.048  0.00  0.00    +0.000 N 
ATOM     11  C   UNL     1       7.048   5.290  15.594  0.00  0.00    +0.000 C 
ATOM     12  N   UNL     1       7.334   6.307  16.452  0.00  0.00    +0.000 N 
ATOM     13  O   UNL     1       7.614   5.158  14.520  0.00  0.00    +0.000 OA
ATOM     14  H   UNL     1       5.830   3.652  15.451  0.00  0.00    +0.000 HD
ATOM     15  H   UNL     1       6.639   6.465  17.170  0.00  0.00    +0.000 HD
ATOM     16  H   UNL     1       7.917   7.061  16.128  0.00  0.00    +0.000 HD
ENDBRANCH   9  10
ENDBRANCH   7   8
BRANCH   1  17
ATOM     17  O   UNL     1       2.893   7.152  17.917  0.00  0.00    +0.000 OA
BRANCH  17  19
ATOM     18  C   UNL     1       1.318   8.966  17.611  0.00  0.00    +0.000 C 
ATOM     19  C   UNL     1       2.485   8.434  18.418  0.00  0.00    +0.000 C 
ENDBRANCH  17  19
ENDBRANCH   1  17
TORSDOF 4
ENDMDL
MODEL 9
REMARK VINA RESULT:      -6.0      1.921      2.404
REMARK  Name = 
REMARK  5 active torsions:
REMARK  status: ('A' for Active; 'I' for Inactive)
REMARK    1  A    between atoms: C_1  and  C_2
REMARK    2  A    between atoms: C_2  and  O_3
REMARK    3  A    between atoms: O_3  and  C_4
REMARK    4  A    between atoms: C_10  and  C_11
REMARK    5  A    between atoms: N_12  and  N_13
REMARK                            x       y       z     vdW  Elec       q    Type
REMARK                         _______ _______ _______ _____ _____    ______ ____
ROOT
ATOM      1  C   UNL     1       4.413   5.128  18.521  0.00  0.00    +0.000 A 
ATOM      2  C   UNL     1       3.753   4.957  19.749  0.00  0.00    +0.000 A 
ATOM      3  C   UNL     1       2.614   4.158  19.854  0.00  0.00    +0.000 A 
ATOM      4  C   UNL     1       2.117   3.514  18.731  0.00  0.00    +0.000 A 
ATOM      5 CL   UNL     1       0.706   2.542  18.862  0.00  0.00    +0.000 Cl
ATOM      6  C   UNL     1       2.755   3.657  17.504  0.00  0.00    +0.000 A 
ATOM      7  C   UNL     1       3.904   4.460  17.390  0.00  0.00    +0.000 A 
ENDROOT
BRANCH   7   8
ATOM      8  C   UNL     1       4.537   4.579  16.052  0.00  0.00    +0.000 C 
ATOM      9  N   UNL     1       5.627   3.924  15.783  0.00  0.00    +0.000 NA
BRANCH   9  10
ATOM     10  N   UNL     1       6.128   4.076  14.521  0.00  0.00    +0.000 N 
ATOM     11  C   UNL     1       7.145   4.966  14.253  0.00  0.00    +0.000 C 
ATOM     12  N   UNL     1       7.597   5.635  15.348  0.00  0.00    +0.000 N 
ATOM     13  O   UNL     1       7.606   5.146  13.137  0.00  0.00    +0.000 OA
ATOM     14  H   UNL     1       5.766   3.544  13.741  0.00  0.00    +0.000 HD
ATOM     15  H   UNL     1       6.982   5.602  16.151  0.00  0.00    +0.000 HD
ATOM     16  H   UNL     1       8.223   6.413  15.214  0.00  0.00    +0.000 HD
ENDBRANCH   9  10
ENDBRANCH   7   8
BRANCH   1  17
ATOM     17  O   UNL     1       5.531   5.915  18.371  0.00  0.00    +0.000 OA
BRANCH  17  19
ATOM     18  C   UNL     1       7.864   6.386  18.817  0.00  0.00    +0.000 C 
ATOM     19  C   UNL     1       6.753   5.357  18.876  0.00  0.00    +0.000 C 
ENDBRANCH  17  19
ENDBRANCH   1  17
TORSDOF 4
ENDMDL
