MODEL 1
REMARK VINA RESULT:      -8.0      0.000      0.000
REMARK  Name = 
REMARK  3 active torsions:
REMARK  status: ('A' for Active; 'I' for Inactive)
REMARK    1  A    between atoms: C_1  and  C_2
REMARK    2  A    between atoms: N_10  and  S_11
REMARK    3  A    between atoms: S_11  and  C_14
REMARK                            x       y       z     vdW  Elec       q    Type
REMARK                         _______ _______ _______ _____ _____    ______ ____
ROOT
ATOM      1  C   UNL     1       3.467   7.440  17.482  0.00  0.00    +0.000 C 
ATOM      2  C   UNL     1       3.483   6.395  18.591  0.00  0.00    +0.000 C 
ATOM      3  C   UNL     1       2.038   5.880  18.840  0.00  0.00    +0.000 C 
ATOM      4  C   UNL     1       2.199   4.395  18.821  0.00  0.00    +0.000 A 
ATOM      5  C   UNL     1       1.183   3.453  18.934  0.00  0.00    +0.000 A 
ATOM      6  C   UNL     1       1.520   2.103  18.856  0.00  0.00    +0.000 A 
ATOM      7  C   UNL     1       2.858   1.719  18.698  0.00  0.00    +0.000 A 
ATOM      8  C   UNL     1       3.866   2.680  18.551  0.00  0.00    +0.000 A 
ATOM      9  C   UNL     1       3.522   4.020  18.591  0.00  0.00    +0.000 A 
ATOM     10  N   UNL     1       4.282   5.177  18.234  0.00  0.00    +0.000 N 
ENDROOT
BRANCH  10  11
ATOM     11  S   UNL     1       5.951   5.218  18.050  0.00  0.00    +0.000 S 
ATOM     12  O   UNL     1       6.474   6.536  18.323  0.00  0.00    +0.000 OA
ATOM     13  O   UNL     1       6.509   4.068  18.739  0.00  0.00    +0.000 OA
BRANCH  11  14
ATOM     14  C   UNL     1       6.200   4.931  16.329  0.00  0.00    +0.000 A 
ATOM     15  C   UNL     1       5.240   4.277  15.559  0.00  0.00    +0.000 A 
ATOM     16  C   UNL     1       5.508   4.054  14.211  0.00  0.00    +0.000 A 
ATOM     17  C   UNL     1       6.713   4.509  13.698  0.00  0.00    +0.000 A 
ATOM     18 CL   UNL     1       7.145   4.211  12.067  0.00  0.00    +0.000 Cl
ATOM     19  N   UNL     1       7.640   5.181  14.413  0.00  0.00    +0.000 NA
ATOM     20  C   UNL     1       7.355   5.393  15.720  0.00  0.00    +0.000 A 
ENDBRANCH  11  14
ENDBRANCH  10  11
TORSDOF 2
ENDMDL
MODEL 2
REMARK VINA RESULT:      -7.1      0.755      1.135
REMARK  Name = 
REMARK  3 active torsions:
REMARK  status: ('A' for Active; 'I' for Inactive)
REMARK    1  A    between atoms: C_1  and  C_2
REMARK    2  A    between atoms: N_10  and  S_11
REMARK    3  A    between atoms: S_11  and  C_14
REMARK                            x       y       z     vdW  Elec       q    Type
REMARK                         _______ _______ _______ _____ _____    ______ ____
ROOT
ATOM      1  C   UNL     1       3.354   7.509  17.644  0.00  0.00    +0.000 C 
ATOM      2  C   UNL     1       3.443   6.459  18.744  0.00  0.00    +0.000 C 
ATOM      3  C   UNL     1       2.023   5.913  19.058  0.00  0.00    +0.000 C 
ATOM      4  C   UNL     1       2.212   4.432  19.021  0.00  0.00    +0.000 A 
ATOM      5  C   UNL     1       1.221   3.469  19.176  0.00  0.00    +0.000 A 
ATOM      6  C   UNL     1       1.581   2.126  19.073  0.00  0.00    +0.000 A 
ATOM      7  C   UNL     1       2.917   1.770  18.850  0.00  0.00    +0.000 A 
ATOM      8  C   UNL     1       3.898   2.753  18.662  0.00  0.00    +0.000 A 
ATOM      9  C   UNL     1       3.530   4.085  18.727  0.00  0.00    +0.000 A 
ATOM     10  N   UNL     1       4.249   5.259  18.343  0.00  0.00    +0.000 N 
ENDROOT
BRANCH  10  11
ATOM     11  S   UNL     1       5.906   5.335  18.081  0.00  0.00    +0.000 S 
ATOM     12  O   UNL     1       6.387   6.694  18.168  0.00  0.00    +0.000 OA
ATOM     13  O   UNL     1       6.537   4.298  18.880  0.00  0.00    +0.000 OA
BRANCH  11  14
ATOM     14  C   UNL     1       6.097   4.846  16.398  0.00  0.00    +0.000 A 
ATOM     15  C   UNL     1       7.278   5.099  15.702  0.00  0.00    +0.000 A 
ATOM     16  C   UNL     1       7.356   4.715  14.366  0.00  0.00    +0.000 A 
ATOM     17  C   UNL     1       6.259   4.085  13.799  0.00  0.00    +0.000 A 
ATOM     18 CL   UNL     1       6.253   3.646  12.143  0.00  0.00    +0.000 Cl
ATOM     19  N   UNL     1       5.121   3.793  14.464  0.00  0.00    +0.000 NA
ATOM     20  C   UNL     1       5.069   4.169  15.764  0.00  0.00    +0.000 A 
ENDBRANCH  11  14
ENDBRANCH  10  11
TORSDOF 2
ENDMDL
MODEL 3
REMARK VINA RESULT:      -7.1      2.835      3.329
REMARK  Name = 
REMARK  3 active torsions:
REMARK  status: ('A' for Active; 'I' for Inactive)
REMARK    1  A    between atoms: C_1  and  C_2
REMARK    2  A    between atoms: N_10  and  S_11
REMARK    3  A    between atoms: S_11  and  C_14
REMARK                            x       y       z     vdW  Elec       q    Type
REMARK                         _______ _______ _______ _____ _____    ______ ____
ROOT
ATOM      1  C   UNL     1       3.339   7.582  17.505  0.00  0.00    +0.000 C 
ATOM      2  C   UNL     1       3.643   6.345  18.340  0.00  0.00    +0.000 C 
ATOM      3  C   UNL     1       2.401   5.979  19.198  0.00  0.00    +0.000 C 
ATOM      4  C   UNL     1       2.224   4.519  18.935  0.00  0.00    +0.000 A 
ATOM      5  C   UNL     1       1.203   3.711  19.420  0.00  0.00    +0.000 A 
ATOM      6  C   UNL     1       1.179   2.371  19.035  0.00  0.00    +0.000 A 
ATOM      7  C   UNL     1       2.185   1.859  18.205  0.00  0.00    +0.000 A 
ATOM      8  C   UNL     1       3.189   2.694  17.698  0.00  0.00    +0.000 A 
ATOM      9  C   UNL     1       3.186   4.032  18.051  0.00  0.00    +0.000 A 
ATOM     10  N   UNL     1       3.920   5.130  17.505  0.00  0.00    +0.000 N 
ENDROOT
BRANCH  10  11
ATOM     11  S   UNL     1       5.288   4.994  16.540  0.00  0.00    +0.000 S 
ATOM     12  O   UNL     1       5.871   3.676  16.645  0.00  0.00    +0.000 OA
ATOM     13  O   UNL     1       4.973   5.536  15.230  0.00  0.00    +0.000 OA
BRANCH  11  14
ATOM     14  C   UNL     1       6.442   6.107  17.271  0.00  0.00    +0.000 A 
ATOM     15  C   UNL     1       7.199   5.737  18.381  0.00  0.00    +0.000 A 
ATOM     16  C   UNL     1       8.072   6.672  18.931  0.00  0.00    +0.000 A 
ATOM     17  C   UNL     1       8.155   7.921  18.336  0.00  0.00    +0.000 A 
ATOM     18 CL   UNL     1       9.153   9.147  18.997  0.00  0.00    +0.000 Cl
ATOM     19  N   UNL     1       7.463   8.289  17.238  0.00  0.00    +0.000 NA
ATOM     20  C   UNL     1       6.625   7.362  16.715  0.00  0.00    +0.000 A 
ENDBRANCH  11  14
ENDBRANCH  10  11
TORSDOF 2
ENDMDL
MODEL 4
REMARK VINA RESULT:      -6.8      1.318      3.026
REMARK  Name = 
REMARK  3 active torsions:
REMARK  status: ('A' for Active; 'I' for Inactive)
REMARK    1  A    between atoms: C_1  and  C_2
REMARK    2  A    between atoms: N_10  and  S_11
REMARK    3  A    between atoms: S_11  and  C_14
REMARK                            x       y       z     vdW  Elec       q    Type
REMARK                         _______ _______ _______ _____ _____    ______ ____
ROOT
ATOM      1  C   UNL     1       2.750   3.387  20.528  0.00  0.00    +0.000 C 
ATOM      2  C   UNL     1       2.797   4.006  19.136  0.00  0.00    +0.000 C 
ATOM      3  C   UNL     1       1.539   4.891  18.919  0.00  0.00    +0.000 C 
ATOM      4  C   UNL     1       2.110   6.173  18.407  0.00  0.00    +0.000 A 
ATOM      5  C   UNL     1       1.402   7.333  18.113  0.00  0.00    +0.000 A 
ATOM      6  C   UNL     1       2.114   8.451  17.679  0.00  0.00    +0.000 A 
ATOM      7  C   UNL     1       3.504   8.383  17.518  0.00  0.00    +0.000 A 
ATOM      8  C   UNL     1       4.206   7.217  17.851  0.00  0.00    +0.000 A 
ATOM      9  C   UNL     1       3.500   6.122  18.318  0.00  0.00    +0.000 A 
ATOM     10  N   UNL     1       3.967   4.925  18.946  0.00  0.00    +0.000 N 
ENDROOT
BRANCH  10  11
ATOM     11  S   UNL     1       5.552   4.370  18.910  0.00  0.00    +0.000 S 
ATOM     12  O   UNL     1       6.425   5.238  19.666  0.00  0.00    +0.000 OA
ATOM     13  O   UNL     1       5.537   2.946  19.191  0.00  0.00    +0.000 OA
BRANCH  11  14
ATOM     14  C   UNL     1       6.027   4.537  17.221  0.00  0.00    +0.000 A 
ATOM     15  C   UNL     1       5.311   3.909  16.204  0.00  0.00    +0.000 A 
ATOM     16  C   UNL     1       5.754   4.054  14.892  0.00  0.00    +0.000 A 
ATOM     17  C   UNL     1       6.879   4.832  14.663  0.00  0.00    +0.000 A 
ATOM     18 CL   UNL     1       7.525   5.001  13.084  0.00  0.00    +0.000 Cl
ATOM     19  N   UNL     1       7.564   5.483  15.626  0.00  0.00    +0.000 NA
ATOM     20  C   UNL     1       7.112   5.333  16.893  0.00  0.00    +0.000 A 
ENDBRANCH  11  14
ENDBRANCH  10  11
TORSDOF 2
ENDMDL
MODEL 5
REMARK VINA RESULT:      -6.7      3.413      5.995
REMARK  Name = 
REMARK  3 active torsions:
REMARK  status: ('A' for Active; 'I' for Inactive)
REMARK    1  A    between atoms: C_1  and  C_2
REMARK    2  A    between atoms: N_10  and  S_11
REMARK    3  A    between atoms: S_11  and  C_14
REMARK                            x       y       z     vdW  Elec       q    Type
REMARK                         _______ _______ _______ _____ _____    ______ ____
ROOT
ATOM      1  C   UNL     1       6.529   5.306  19.343  0.00  0.00    +0.000 C 
ATOM      2  C   UNL     1       5.940   5.737  18.006  0.00  0.00    +0.000 C 
ATOM      3  C   UNL     1       7.087   6.124  17.033  0.00  0.00    +0.000 C 
ATOM      4  C   UNL     1       6.751   5.365  15.791  0.00  0.00    +0.000 A 
ATOM      5  C   UNL     1       7.505   5.314  14.624  0.00  0.00    +0.000 A 
ATOM      6  C   UNL     1       7.049   4.518  13.575  0.00  0.00    +0.000 A 
ATOM      7  C   UNL     1       5.842   3.816  13.696  0.00  0.00    +0.000 A 
ATOM      8  C   UNL     1       5.111   3.851  14.890  0.00  0.00    +0.000 A 
ATOM      9  C   UNL     1       5.587   4.613  15.943  0.00  0.00    +0.000 A 
ATOM     10  N   UNL     1       5.190   4.636  17.316  0.00  0.00    +0.000 N 
ENDROOT
BRANCH  10  11
ATOM     11  S   UNL     1       3.748   4.016  17.916  0.00  0.00    +0.000 S 
ATOM     12  O   UNL     1       2.856   3.641  16.844  0.00  0.00    +0.000 OA
ATOM     13  O   UNL     1       4.070   3.050  18.952  0.00  0.00    +0.000 OA
BRANCH  11  14
ATOM     14  C   UNL     1       2.998   5.386  18.732  0.00  0.00    +0.000 A 
ATOM     15  C   UNL     1       2.892   6.628  18.109  0.00  0.00    +0.000 A 
ATOM     16  C   UNL     1       2.315   7.679  18.817  0.00  0.00    +0.000 A 
ATOM     17  C   UNL     1       1.861   7.431  20.104  0.00  0.00    +0.000 A 
ATOM     18 CL   UNL     1       1.204   8.690  21.063  0.00  0.00    +0.000 Cl
ATOM     19  N   UNL     1       1.915   6.228  20.712  0.00  0.00    +0.000 NA
ATOM     20  C   UNL     1       2.473   5.218  20.003  0.00  0.00    +0.000 A 
ENDBRANCH  11  14
ENDBRANCH  10  11
TORSDOF 2
ENDMDL
MODEL 6
REMARK VINA RESULT:      -6.5      2.751      4.171
REMARK  Name = 
REMARK  3 active torsions:
REMARK  status: ('A' for Active; 'I' for Inactive)
REMARK    1  A    between atoms: C_1  and  C_2
REMARK    2  A    between atoms: N_10  and  S_11
REMARK    3  A    between atoms: S_11  and  C_14
REMARK                            x       y       z     vdW  Elec       q    Type
REMARK                         _______ _______ _______ _____ _____    ______ ____
ROOT
ATOM      1  C   UNL     1       3.127   2.432  20.725  0.00  0.00    +0.000 C 
ATOM      2  C   UNL     1       2.222   3.381  19.949  0.00  0.00    +0.000 C 
ATOM      3  C   UNL     1       1.385   4.230  20.944  0.00  0.00    +0.000 C 
ATOM      4  C   UNL     1       1.579   5.625  20.448  0.00  0.00    +0.000 A 
ATOM      5  C   UNL     1       1.086   6.786  21.033  0.00  0.00    +0.000 A 
ATOM      6  C   UNL     1       1.404   8.009  20.446  0.00  0.00    +0.000 A 
ATOM      7  C   UNL     1       2.176   8.052  19.278  0.00  0.00    +0.000 A 
ATOM      8  C   UNL     1       2.694   6.876  18.720  0.00  0.00    +0.000 A 
ATOM      9  C   UNL     1       2.408   5.666  19.328  0.00  0.00    +0.000 A 
ATOM     10  N   UNL     1       2.987   4.374  19.126  0.00  0.00    +0.000 N 
ENDROOT
BRANCH  10  11
ATOM     11  S   UNL     1       3.903   3.924  17.791  0.00  0.00    +0.000 S 
ATOM     12  O   UNL     1       4.522   2.635  17.994  0.00  0.00    +0.000 OA
ATOM     13  O   UNL     1       3.107   4.158  16.599  0.00  0.00    +0.000 OA
BRANCH  11  14
ATOM     14  C   UNL     1       5.212   5.103  17.752  0.00  0.00    +0.000 A 
ATOM     15  C   UNL     1       6.181   5.141  18.752  0.00  0.00    +0.000 A 
ATOM     16  C   UNL     1       7.174   6.115  18.679  0.00  0.00    +0.000 A 
ATOM     17  C   UNL     1       7.155   6.991  17.605  0.00  0.00    +0.000 A 
ATOM     18 CL   UNL     1       8.300   8.260  17.483  0.00  0.00    +0.000 Cl
ATOM     19  N   UNL     1       6.252   6.948  16.603  0.00  0.00    +0.000 NA
ATOM     20  C   UNL     1       5.300   5.988  16.690  0.00  0.00    +0.000 A 
ENDBRANCH  11  14
ENDBRANCH  10  11
TORSDOF 2
ENDMDL
MODEL 7
REMARK VINA RESULT:      -6.5      3.039      3.498
REMARK  Name = 
REMARK  3 active torsions:
REMARK  status: ('A' for Active; 'I' for Inactive)
REMARK    1  A    between atoms: C_1  and  C_2
REMARK    2  A    between atoms: N_10  and  S_11
REMARK    3  A    between atoms: S_11  and  C_14
REMARK                            x       y       z     vdW  Elec       q    Type
REMARK                         _______ _______ _______ _____ _____    ______ ____
ROOT
ATOM      1  C   UNL     1       2.718   7.199  17.636  0.00  0.00    +0.000 C 
ATOM      2  C   UNL     1       3.462   6.533  18.786  0.00  0.00    +0.000 C 
ATOM      3  C   UNL     1       2.488   6.313  19.976  0.00  0.00    +0.000 C 
ATOM      4  C   UNL     1       2.709   4.880  20.336  0.00  0.00    +0.000 A 
ATOM      5  C   UNL     1       2.028   4.159  21.309  0.00  0.00    +0.000 A 
ATOM      6  C   UNL     1       2.345   2.812  21.479  0.00  0.00    +0.000 A 
ATOM      7  C   UNL     1       3.350   2.222  20.703  0.00  0.00    +0.000 A 
ATOM      8  C   UNL     1       4.004   2.953  19.703  0.00  0.00    +0.000 A 
ATOM      9  C   UNL     1       3.659   4.280  19.511  0.00  0.00    +0.000 A 
ATOM     10  N   UNL     1       3.976   5.168  18.437  0.00  0.00    +0.000 N 
ENDROOT
BRANCH  10  11
ATOM     11  S   UNL     1       5.202   4.927  17.314  0.00  0.00    +0.000 S 
ATOM     12  O   UNL     1       5.861   3.660  17.525  0.00  0.00    +0.000 OA
ATOM     13  O   UNL     1       4.679   5.254  15.999  0.00  0.00    +0.000 OA
BRANCH  11  14
ATOM     14  C   UNL     1       6.386   6.174  17.698  0.00  0.00    +0.000 A 
ATOM     15  C   UNL     1       7.363   5.968  18.670  0.00  0.00    +0.000 A 
ATOM     16  C   UNL     1       8.252   7.003  18.949  0.00  0.00    +0.000 A 
ATOM     17  C   UNL     1       8.129   8.184  18.232  0.00  0.00    +0.000 A 
ATOM     18 CL   UNL     1       9.140   9.526  18.567  0.00  0.00    +0.000 Cl
ATOM     19  N   UNL     1       7.219   8.392  17.258  0.00  0.00    +0.000 NA
ATOM     20  C   UNL     1       6.369   7.370  16.999  0.00  0.00    +0.000 A 
ENDBRANCH  11  14
ENDBRANCH  10  11
TORSDOF 2
ENDMDL
MODEL 8
REMARK VINA RESULT:      -6.5      6.644      8.791
REMARK  Name = 
REMARK  3 active torsions:
REMARK  status: ('A' for Active; 'I' for Inactive)
REMARK    1  A    between atoms: C_1  and  C_2
REMARK    2  A    between atoms: N_10  and  S_11
REMARK    3  A    between atoms: S_11  and  C_14
REMARK                            x       y       z     vdW  Elec       q    Type
REMARK                         _______ _______ _______ _____ _____    ______ ____
ROOT
ATOM      1  C   UNL     1      -0.564   9.167  22.110  0.00  0.00    +0.000 C 
ATOM      2  C   UNL     1       0.835   9.236  21.512  0.00  0.00    +0.000 C 
ATOM      3  C   UNL     1       1.444   7.809  21.447  0.00  0.00    +0.000 C 
ATOM      4  C   UNL     1       1.943   7.715  20.043  0.00  0.00    +0.000 A 
ATOM      5  C   UNL     1       2.524   6.602  19.445  0.00  0.00    +0.000 A 
ATOM      6  C   UNL     1       2.896   6.689  18.105  0.00  0.00    +0.000 A 
ATOM      7  C   UNL     1       2.711   7.885  17.398  0.00  0.00    +0.000 A 
ATOM      8  C   UNL     1       2.093   8.986  18.004  0.00  0.00    +0.000 A 
ATOM      9  C   UNL     1       1.690   8.883  19.324  0.00  0.00    +0.000 A 
ATOM     10  N   UNL     1       0.841   9.735  20.097  0.00  0.00    +0.000 N 
ENDROOT
BRANCH  10  11
ATOM     11  S   UNL     1       0.434  11.314  19.697  0.00  0.00    +0.000 S 
ATOM     12  O   UNL     1       0.306  12.135  20.879  0.00  0.00    +0.000 OA
ATOM     13  O   UNL     1       1.305  11.744  18.617  0.00  0.00    +0.000 OA
BRANCH  11  14
ATOM     14  C   UNL     1      -1.181  11.180  19.007  0.00  0.00    +0.000 A 
ATOM     15  C   UNL     1      -1.473  10.230  18.029  0.00  0.00    +0.000 A 
ATOM     16  C   UNL     1      -2.761  10.193  17.501  0.00  0.00    +0.000 A 
ATOM     17  C   UNL     1      -3.694  11.095  17.988  0.00  0.00    +0.000 A 
ATOM     18 CL   UNL     1      -5.280  11.158  17.340  0.00  0.00    +0.000 Cl
ATOM     19  N   UNL     1      -3.448  11.996  18.963  0.00  0.00    +0.000 NA
ATOM     20  C   UNL     1      -2.191  12.009  19.467  0.00  0.00    +0.000 A 
ENDBRANCH  11  14
ENDBRANCH  10  11
TORSDOF 2
ENDMDL
MODEL 9
REMARK VINA RESULT:      -6.4      3.409      5.902
REMARK  Name = 
REMARK  3 active torsions:
REMARK  status: ('A' for Active; 'I' for Inactive)
REMARK    1  A    between atoms: C_1  and  C_2
REMARK    2  A    between atoms: N_10  and  S_11
REMARK    3  A    between atoms: S_11  and  C_14
REMARK                            x       y       z     vdW  Elec       q    Type
REMARK                         _______ _______ _______ _____ _____    ______ ____
ROOT
ATOM      1  C   UNL     1       6.577   5.340  19.414  0.00  0.00    +0.000 C 
ATOM      2  C   UNL     1       5.983   5.786  18.084  0.00  0.00    +0.000 C 
ATOM      3  C   UNL     1       7.128   6.130  17.093  0.00  0.00    +0.000 C 
ATOM      4  C   UNL     1       6.746   5.379  15.859  0.00  0.00    +0.000 A 
ATOM      5  C   UNL     1       7.481   5.298  14.681  0.00  0.00    +0.000 A 
ATOM      6  C   UNL     1       6.981   4.514  13.642  0.00  0.00    +0.000 A 
ATOM      7  C   UNL     1       5.753   3.856  13.784  0.00  0.00    +0.000 A 
ATOM      8  C   UNL     1       5.041   3.920  14.989  0.00  0.00    +0.000 A 
ATOM      9  C   UNL     1       5.560   4.668  16.032  0.00  0.00    +0.000 A 
ATOM     10  N   UNL     1       5.184   4.710  17.411  0.00  0.00    +0.000 N 
ENDROOT
BRANCH  10  11
ATOM     11  S   UNL     1       3.732   4.142  18.034  0.00  0.00    +0.000 S 
ATOM     12  O   UNL     1       2.842   3.716  16.979  0.00  0.00    +0.000 OA
ATOM     13  O   UNL     1       4.034   3.235  19.127  0.00  0.00    +0.000 OA
BRANCH  11  14
ATOM     14  C   UNL     1       2.992   5.566  18.763  0.00  0.00    +0.000 A 
ATOM     15  C   UNL     1       2.506   5.540  20.069  0.00  0.00    +0.000 A 
ATOM     16  C   UNL     1       1.906   6.688  20.578  0.00  0.00    +0.000 A 
ATOM     17  C   UNL     1       1.837   7.808  19.763  0.00  0.00    +0.000 A 
ATOM     18 CL   UNL     1       1.051   9.236  20.293  0.00  0.00    +0.000 Cl
ATOM     19  N   UNL     1       2.337   7.871  18.511  0.00  0.00    +0.000 NA
ATOM     20  C   UNL     1       2.922   6.745  18.039  0.00  0.00    +0.000 A 
ENDBRANCH  11  14
ENDBRANCH  10  11
TORSDOF 2
ENDMDL
