MODEL 1
REMARK VINA RESULT:      -6.9      0.000      0.000
REMARK  Name = 
REMARK  5 active torsions:
REMARK  status: ('A' for Active; 'I' for Inactive)
REMARK    1  A    between atoms: C_1  and  C_2
REMARK    2  A    between atoms: C_5  and  N_6
REMARK    3  A    between atoms: C_7  and  C_9
REMARK    4  A    between atoms: C_9  and  C_10
REMARK    5  A    between atoms: C_10  and  C_11
REMARK                            x       y       z     vdW  Elec       q    Type
REMARK                         _______ _______ _______ _____ _____    ______ ____
ROOT
ATOM      1  N   UNL     1       3.578   6.015  18.148  0.00  0.00    +0.000 N 
ATOM      2  C   UNL     1       3.139   4.787  17.686  0.00  0.00    +0.000 C 
ATOM      3  O   UNL     1       1.973   4.436  17.535  0.00  0.00    +0.000 OA
ATOM      4  H   UNL     1       4.563   6.226  18.044  0.00  0.00    +0.000 HD
ENDROOT
BRANCH   1   9
ATOM      5  C   UNL     1       0.308  10.305  20.088  0.00  0.00    +0.000 C 
ATOM      6  C   UNL     1       1.149   9.180  19.565  0.00  0.00    +0.000 A 
ATOM      7  C   UNL     1       1.586   9.179  18.239  0.00  0.00    +0.000 A 
ATOM      8  C   UNL     1       2.381   8.137  17.754  0.00  0.00    +0.000 A 
ATOM      9  C   UNL     1       2.756   7.079  18.582  0.00  0.00    +0.000 A 
ATOM     10  C   UNL     1       2.297   7.063  19.904  0.00  0.00    +0.000 A 
ATOM     11  C   UNL     1       1.508   8.111  20.394  0.00  0.00    +0.000 A 
ENDBRANCH   1   9
BRANCH   2  12
ATOM     12  C   UNL     1       4.259   3.841  17.299  0.00  0.00    +0.000 C 
BRANCH  12  13
ATOM     13  C   UNL     1       5.599   4.563  17.396  0.00  0.00    +0.000 C 
BRANCH  13  14
ATOM     14  C   UNL     1       6.229   4.715  16.055  0.00  0.00    +0.000 A 
ATOM     15  N   UNL     1       7.222   5.494  15.742  0.00  0.00    +0.000 NA
ATOM     16  N   UNL     1       7.405   5.222  14.422  0.00  0.00    +0.000 N 
ATOM     17  C   UNL     1       6.520   4.277  14.000  0.00  0.00    +0.000 A 
ATOM     18  S   UNL     1       6.333   3.594  12.520  0.00  0.00    +0.000 S 
ATOM     19  O   UNL     1       5.752   3.931  15.061  0.00  0.00    +0.000 OA
ATOM     20  H   UNL     1       8.113   5.680  13.861  0.00  0.00    +0.000 HD
ENDBRANCH  13  14
ENDBRANCH  12  13
ENDBRANCH   2  12
TORSDOF 4
ENDMDL
MODEL 2
REMARK VINA RESULT:      -6.9      3.038      3.968
REMARK  Name = 
REMARK  5 active torsions:
REMARK  status: ('A' for Active; 'I' for Inactive)
REMARK    1  A    between atoms: C_1  and  C_2
REMARK    2  A    between atoms: C_5  and  N_6
REMARK    3  A    between atoms: C_7  and  C_9
REMARK    4  A    between atoms: C_9  and  C_10
REMARK    5  A    between atoms: C_10  and  C_11
REMARK                            x       y       z     vdW  Elec       q    Type
REMARK                         _______ _______ _______ _____ _____    ______ ____
ROOT
ATOM      1  N   UNL     1       5.230   5.265  18.559  0.00  0.00    +0.000 N 
ATOM      2  C   UNL     1       6.532   5.524  18.946  0.00  0.00    +0.000 C 
ATOM      3  O   UNL     1       7.048   5.234  20.021  0.00  0.00    +0.000 OA
ATOM      4  H   UNL     1       5.000   5.395  17.581  0.00  0.00    +0.000 HD
ENDROOT
BRANCH   1   9
ATOM      5  C   UNL     1       1.313   2.663  21.838  0.00  0.00    +0.000 C 
ATOM      6  C   UNL     1       2.321   3.351  20.969  0.00  0.00    +0.000 A 
ATOM      7  C   UNL     1       2.268   4.734  20.780  0.00  0.00    +0.000 A 
ATOM      8  C   UNL     1       3.214   5.379  19.980  0.00  0.00    +0.000 A 
ATOM      9  C   UNL     1       4.233   4.658  19.357  0.00  0.00    +0.000 A 
ATOM     10  C   UNL     1       4.275   3.270  19.522  0.00  0.00    +0.000 A 
ATOM     11  C   UNL     1       3.332   2.623  20.331  0.00  0.00    +0.000 A 
ENDBRANCH   1   9
BRANCH   2  12
ATOM     12  C   UNL     1       7.369   6.195  17.873  0.00  0.00    +0.000 C 
BRANCH  12  13
ATOM     13  C   UNL     1       6.510   6.461  16.642  0.00  0.00    +0.000 C 
BRANCH  13  14
ATOM     14  C   UNL     1       6.489   5.282  15.732  0.00  0.00    +0.000 A 
ATOM     15  N   UNL     1       6.202   4.054  16.048  0.00  0.00    +0.000 NA
ATOM     16  N   UNL     1       6.309   3.410  14.856  0.00  0.00    +0.000 N 
ATOM     17  C   UNL     1       6.644   4.284  13.867  0.00  0.00    +0.000 A 
ATOM     18  S   UNL     1       6.878   4.023  12.264  0.00  0.00    +0.000 S 
ATOM     19  O   UNL     1       6.756   5.513  14.425  0.00  0.00    +0.000 OA
ATOM     20  H   UNL     1       6.154   2.414  14.754  0.00  0.00    +0.000 HD
ENDBRANCH  13  14
ENDBRANCH  12  13
ENDBRANCH   2  12
TORSDOF 4
ENDMDL
MODEL 3
REMARK VINA RESULT:      -6.9      0.154      1.143
REMARK  Name = 
REMARK  5 active torsions:
REMARK  status: ('A' for Active; 'I' for Inactive)
REMARK    1  A    between atoms: C_1  and  C_2
REMARK    2  A    between atoms: C_5  and  N_6
REMARK    3  A    between atoms: C_7  and  C_9
REMARK    4  A    between atoms: C_9  and  C_10
REMARK    5  A    between atoms: C_10  and  C_11
REMARK                            x       y       z     vdW  Elec       q    Type
REMARK                         _______ _______ _______ _____ _____    ______ ____
ROOT
ATOM      1  N   UNL     1       3.559   6.150  18.215  0.00  0.00    +0.000 N 
ATOM      2  C   UNL     1       3.127   4.921  17.749  0.00  0.00    +0.000 C 
ATOM      3  O   UNL     1       1.964   4.555  17.618  0.00  0.00    +0.000 OA
ATOM      4  H   UNL     1       4.539   6.376  18.094  0.00  0.00    +0.000 HD
ENDROOT
BRANCH   1   9
ATOM      5  C   UNL     1       0.142  10.435  19.899  0.00  0.00    +0.000 C 
ATOM      6  C   UNL     1       1.049   9.319  19.476  0.00  0.00    +0.000 A 
ATOM      7  C   UNL     1       1.353   8.279  20.357  0.00  0.00    +0.000 A 
ATOM      8  C   UNL     1       2.187   7.231  19.960  0.00  0.00    +0.000 A 
ATOM      9  C   UNL     1       2.730   7.199  18.675  0.00  0.00    +0.000 A 
ATOM     10  C   UNL     1       2.449   8.252  17.798  0.00  0.00    +0.000 A 
ATOM     11  C   UNL     1       1.606   9.298  18.192  0.00  0.00    +0.000 A 
ENDBRANCH   1   9
BRANCH   2  12
ATOM     12  C   UNL     1       4.253   3.994  17.331  0.00  0.00    +0.000 C 
BRANCH  12  13
ATOM     13  C   UNL     1       5.583   4.737  17.400  0.00  0.00    +0.000 C 
BRANCH  13  14
ATOM     14  C   UNL     1       6.225   4.821  16.058  0.00  0.00    +0.000 A 
ATOM     15  N   UNL     1       7.247   5.552  15.725  0.00  0.00    +0.000 NA
ATOM     16  N   UNL     1       7.426   5.231  14.416  0.00  0.00    +0.000 N 
ATOM     17  C   UNL     1       6.508   4.307  14.020  0.00  0.00    +0.000 A 
ATOM     18  S   UNL     1       6.301   3.583  12.562  0.00  0.00    +0.000 S 
ATOM     19  O   UNL     1       5.723   4.024  15.087  0.00  0.00    +0.000 OA
ATOM     20  H   UNL     1       8.153   5.643  13.844  0.00  0.00    +0.000 HD
ENDBRANCH  13  14
ENDBRANCH  12  13
ENDBRANCH   2  12
TORSDOF 4
ENDMDL
MODEL 4
REMARK VINA RESULT:      -6.9      3.940      4.336
REMARK  Name = 
REMARK  5 active torsions:
REMARK  status: ('A' for Active; 'I' for Inactive)
REMARK    1  A    between atoms: C_1  and  C_2
REMARK    2  A    between atoms: C_5  and  N_6
REMARK    3  A    between atoms: C_7  and  C_9
REMARK    4  A    between atoms: C_9  and  C_10
REMARK    5  A    between atoms: C_10  and  C_11
REMARK                            x       y       z     vdW  Elec       q    Type
REMARK                         _______ _______ _______ _____ _____    ______ ____
ROOT
ATOM      1  N   UNL     1       5.786   4.011  18.610  0.00  0.00    +0.000 N 
ATOM      2  C   UNL     1       6.180   5.209  19.177  0.00  0.00    +0.000 C 
ATOM      3  O   UNL     1       5.470   5.993  19.799  0.00  0.00    +0.000 OA
ATOM      4  H   UNL     1       6.515   3.385  18.290  0.00  0.00    +0.000 HD
ENDROOT
BRANCH   1   9
ATOM      5  C   UNL     1       0.447   1.929  18.765  0.00  0.00    +0.000 C 
ATOM      6  C   UNL     1       1.847   2.461  18.707  0.00  0.00    +0.000 A 
ATOM      7  C   UNL     1       2.328   3.066  17.544  0.00  0.00    +0.000 A 
ATOM      8  C   UNL     1       3.628   3.574  17.493  0.00  0.00    +0.000 A 
ATOM      9  C   UNL     1       4.472   3.491  18.601  0.00  0.00    +0.000 A 
ATOM     10  C   UNL     1       4.003   2.862  19.759  0.00  0.00    +0.000 A 
ATOM     11  C   UNL     1       2.696   2.361  19.815  0.00  0.00    +0.000 A 
ENDBRANCH   1   9
BRANCH   2  12
ATOM     12  C   UNL     1       7.660   5.505  19.020  0.00  0.00    +0.000 C 
BRANCH  12  13
ATOM     13  C   UNL     1       7.862   6.542  17.920  0.00  0.00    +0.000 C 
BRANCH  13  14
ATOM     14  C   UNL     1       7.003   6.253  16.739  0.00  0.00    +0.000 A 
ATOM     15  N   UNL     1       6.037   6.989  16.276  0.00  0.00    +0.000 NA
ATOM     16  N   UNL     1       5.619   6.281  15.193  0.00  0.00    +0.000 N 
ATOM     17  C   UNL     1       6.362   5.150  15.044  0.00  0.00    +0.000 A 
ATOM     18  S   UNL     1       6.277   3.974  13.902  0.00  0.00    +0.000 S 
ATOM     19  O   UNL     1       7.277   5.125  16.043  0.00  0.00    +0.000 OA
ATOM     20  H   UNL     1       4.854   6.583  14.601  0.00  0.00    +0.000 HD
ENDBRANCH  13  14
ENDBRANCH  12  13
ENDBRANCH   2  12
TORSDOF 4
ENDMDL
MODEL 5
REMARK VINA RESULT:      -6.9      3.873      4.725
REMARK  Name = 
REMARK  5 active torsions:
REMARK  status: ('A' for Active; 'I' for Inactive)
REMARK    1  A    between atoms: C_1  and  C_2
REMARK    2  A    between atoms: C_5  and  N_6
REMARK    3  A    between atoms: C_7  and  C_9
REMARK    4  A    between atoms: C_9  and  C_10
REMARK    5  A    between atoms: C_10  and  C_11
REMARK                            x       y       z     vdW  Elec       q    Type
REMARK                         _______ _______ _______ _____ _____    ______ ____
ROOT
ATOM      1  N   UNL     1       4.006   4.848  17.452  0.00  0.00    +0.000 N 
ATOM      2  C   UNL     1       4.208   6.198  17.228  0.00  0.00    +0.000 C 
ATOM      3  O   UNL     1       3.823   7.123  17.936  0.00  0.00    +0.000 OA
ATOM      4  H   UNL     1       4.538   4.197  16.886  0.00  0.00    +0.000 HD
ENDROOT
BRANCH   1   9
ATOM      5  C   UNL     1       1.177   2.587  21.896  0.00  0.00    +0.000 C 
ATOM      6  C   UNL     1       1.904   3.167  20.720  0.00  0.00    +0.000 A 
ATOM      7  C   UNL     1       1.205   3.836  19.714  0.00  0.00    +0.000 A 
ATOM      8  C   UNL     1       1.883   4.388  18.624  0.00  0.00    +0.000 A 
ATOM      9  C   UNL     1       3.270   4.286  18.519  0.00  0.00    +0.000 A 
ATOM     10  C   UNL     1       3.971   3.593  19.512  0.00  0.00    +0.000 A 
ATOM     11  C   UNL     1       3.294   3.047  20.610  0.00  0.00    +0.000 A 
ENDBRANCH   1   9
BRANCH   2  12
ATOM     12  C   UNL     1       5.035   6.498  15.992  0.00  0.00    +0.000 C 
BRANCH  12  13
ATOM     13  C   UNL     1       6.427   5.896  16.147  0.00  0.00    +0.000 C 
BRANCH  13  14
ATOM     14  C   UNL     1       7.214   6.614  17.188  0.00  0.00    +0.000 A 
ATOM     15  N   UNL     1       7.760   6.099  18.250  0.00  0.00    +0.000 NA
ATOM     16  N   UNL     1       8.365   7.174  18.822  0.00  0.00    +0.000 N 
ATOM     17  C   UNL     1       8.166   8.292  18.070  0.00  0.00    +0.000 A 
ATOM     18  S   UNL     1       8.691   9.829  18.306  0.00  0.00    +0.000 S 
ATOM     19  O   UNL     1       7.423   7.937  16.995  0.00  0.00    +0.000 OA
ATOM     20  H   UNL     1       8.883   7.115  19.690  0.00  0.00    +0.000 HD
ENDBRANCH  13  14
ENDBRANCH  12  13
ENDBRANCH   2  12
TORSDOF 4
ENDMDL
MODEL 6
REMARK VINA RESULT:      -6.8      1.340      1.928
REMARK  Name = 
REMARK  5 active torsions:
REMARK  status: ('A' for Active; 'I' for Inactive)
REMARK    1  A    between atoms: C_1  and  C_2
REMARK    2  A    between atoms: C_5  and  N_6
REMARK    3  A    between atoms: C_7  and  C_9
REMARK    4  A    between atoms: C_9  and  C_10
REMARK    5  A    between atoms: C_10  and  C_11
REMARK                            x       y       z     vdW  Elec       q    Type
REMARK                         _______ _______ _______ _____ _____    ______ ____
ROOT
ATOM      1  N   UNL     1       3.177   6.207  19.541  0.00  0.00    +0.000 N 
ATOM      2  C   UNL     1       2.897   5.029  18.873  0.00  0.00    +0.000 C 
ATOM      3  O   UNL     1       1.907   4.792  18.189  0.00  0.00    +0.000 OA
ATOM      4  H   UNL     1       4.113   6.323  19.910  0.00  0.00    +0.000 HD
ENDROOT
BRANCH   1   9
ATOM      5  C   UNL     1      -0.242  10.809  19.582  0.00  0.00    +0.000 C 
ATOM      6  C   UNL     1       0.662   9.614  19.589  0.00  0.00    +0.000 A 
ATOM      7  C   UNL     1       0.781   8.820  20.732  0.00  0.00    +0.000 A 
ATOM      8  C   UNL     1       1.613   7.698  20.735  0.00  0.00    +0.000 A 
ATOM      9  C   UNL     1       2.341   7.345  19.598  0.00  0.00    +0.000 A 
ATOM     10  C   UNL     1       2.246   8.153  18.460  0.00  0.00    +0.000 A 
ATOM     11  C   UNL     1       1.404   9.272  18.452  0.00  0.00    +0.000 A 
ENDBRANCH   1   9
BRANCH   2  12
ATOM     12  C   UNL     1       3.986   3.979  19.000  0.00  0.00    +0.000 C 
BRANCH  12  13
ATOM     13  C   UNL     1       5.324   4.656  19.270  0.00  0.00    +0.000 C 
BRANCH  13  14
ATOM     14  C   UNL     1       6.218   4.581  18.081  0.00  0.00    +0.000 A 
ATOM     15  N   UNL     1       7.518   4.547  18.080  0.00  0.00    +0.000 NA
ATOM     16  N   UNL     1       7.810   4.455  16.756  0.00  0.00    +0.000 N 
ATOM     17  C   UNL     1       6.669   4.424  16.014  0.00  0.00    +0.000 A 
ATOM     18  S   UNL     1       6.469   4.305  14.390  0.00  0.00    +0.000 S 
ATOM     19  O   UNL     1       5.621   4.497  16.869  0.00  0.00    +0.000 OA
ATOM     20  H   UNL     1       8.760   4.417  16.405  0.00  0.00    +0.000 HD
ENDBRANCH  13  14
ENDBRANCH  12  13
ENDBRANCH   2  12
TORSDOF 4
ENDMDL
MODEL 7
REMARK VINA RESULT:      -6.8      4.082      6.757
REMARK  Name = 
REMARK  5 active torsions:
REMARK  status: ('A' for Active; 'I' for Inactive)
REMARK    1  A    between atoms: C_1  and  C_2
REMARK    2  A    between atoms: C_5  and  N_6
REMARK    3  A    between atoms: C_7  and  C_9
REMARK    4  A    between atoms: C_9  and  C_10
REMARK    5  A    between atoms: C_10  and  C_11
REMARK                            x       y       z     vdW  Elec       q    Type
REMARK                         _______ _______ _______ _____ _____    ______ ____
ROOT
ATOM      1  N   UNL     1       7.469   5.671  15.930  0.00  0.00    +0.000 N 
ATOM      2  C   UNL     1       6.820   6.714  16.566  0.00  0.00    +0.000 C 
ATOM      3  O   UNL     1       5.708   7.156  16.298  0.00  0.00    +0.000 OA
ATOM      4  H   UNL     1       8.298   5.297  16.377  0.00  0.00    +0.000 HD
ENDROOT
BRANCH   1   9
ATOM      5  C   UNL     1       5.327   2.763  11.478  0.00  0.00    +0.000 C 
ATOM      6  C   UNL     1       5.906   3.513  12.640  0.00  0.00    +0.000 A 
ATOM      7  C   UNL     1       7.072   4.265  12.487  0.00  0.00    +0.000 A 
ATOM      8  C   UNL     1       7.606   4.975  13.566  0.00  0.00    +0.000 A 
ATOM      9  C   UNL     1       6.985   4.951  14.815  0.00  0.00    +0.000 A 
ATOM     10  C   UNL     1       5.831   4.177  14.978  0.00  0.00    +0.000 A 
ATOM     11  C   UNL     1       5.290   3.472  13.895  0.00  0.00    +0.000 A 
ENDBRANCH   1   9
BRANCH   2  12
ATOM     12  C   UNL     1       7.594   7.298  17.733  0.00  0.00    +0.000 C 
BRANCH  12  13
ATOM     13  C   UNL     1       7.810   6.225  18.794  0.00  0.00    +0.000 C 
BRANCH  13  14
ATOM     14  C   UNL     1       6.643   5.304  18.879  0.00  0.00    +0.000 A 
ATOM     15  N   UNL     1       6.608   4.051  18.532  0.00  0.00    +0.000 NA
ATOM     16  N   UNL     1       5.331   3.696  18.839  0.00  0.00    +0.000 N 
ATOM     17  C   UNL     1       4.655   4.751  19.370  0.00  0.00    +0.000 A 
ATOM     18  S   UNL     1       3.109   4.847  19.914  0.00  0.00    +0.000 S 
ATOM     19  O   UNL     1       5.504   5.806  19.410  0.00  0.00    +0.000 OA
ATOM     20  H   UNL     1       4.968   2.764  18.679  0.00  0.00    +0.000 HD
ENDBRANCH  13  14
ENDBRANCH  12  13
ENDBRANCH   2  12
TORSDOF 4
ENDMDL
MODEL 8
REMARK VINA RESULT:      -6.8      3.661      4.419
REMARK  Name = 
REMARK  5 active torsions:
REMARK  status: ('A' for Active; 'I' for Inactive)
REMARK    1  A    between atoms: C_1  and  C_2
REMARK    2  A    between atoms: C_5  and  N_6
REMARK    3  A    between atoms: C_7  and  C_9
REMARK    4  A    between atoms: C_9  and  C_10
REMARK    5  A    between atoms: C_10  and  C_11
REMARK                            x       y       z     vdW  Elec       q    Type
REMARK                         _______ _______ _______ _____ _____    ______ ____
ROOT
ATOM      1  N   UNL     1       5.794   4.072  18.467  0.00  0.00    +0.000 N 
ATOM      2  C   UNL     1       6.269   5.201  19.108  0.00  0.00    +0.000 C 
ATOM      3  O   UNL     1       5.649   5.916  19.889  0.00  0.00    +0.000 OA
ATOM      4  H   UNL     1       6.471   3.482  17.999  0.00  0.00    +0.000 HD
ENDROOT
BRANCH   1   9
ATOM      5  C   UNL     1       0.437   2.039  18.650  0.00  0.00    +0.000 C 
ATOM      6  C   UNL     1       1.836   2.575  18.623  0.00  0.00    +0.000 A 
ATOM      7  C   UNL     1       2.810   2.057  19.480  0.00  0.00    +0.000 A 
ATOM      8  C   UNL     1       4.118   2.547  19.447  0.00  0.00    +0.000 A 
ATOM      9  C   UNL     1       4.480   3.559  18.558  0.00  0.00    +0.000 A 
ATOM     10  C   UNL     1       3.501   4.099  17.717  0.00  0.00    +0.000 A 
ATOM     11  C   UNL     1       2.191   3.602  17.742  0.00  0.00    +0.000 A 
ENDBRANCH   1   9
BRANCH   2  12
ATOM     12  C   UNL     1       7.725   5.509  18.810  0.00  0.00    +0.000 C 
BRANCH  12  13
ATOM     13  C   UNL     1       7.814   6.536  17.687  0.00  0.00    +0.000 C 
BRANCH  13  14
ATOM     14  C   UNL     1       6.914   6.180  16.555  0.00  0.00    +0.000 A 
ATOM     15  N   UNL     1       5.828   6.798  16.194  0.00  0.00    +0.000 NA
ATOM     16  N   UNL     1       5.427   6.081  15.111  0.00  0.00    +0.000 N 
ATOM     17  C   UNL     1       6.299   5.066  14.858  0.00  0.00    +0.000 A 
ATOM     18  S   UNL     1       6.283   3.933  13.671  0.00  0.00    +0.000 S 
ATOM     19  O   UNL     1       7.280   5.125  15.790  0.00  0.00    +0.000 OA
ATOM     20  H   UNL     1       4.588   6.300  14.588  0.00  0.00    +0.000 HD
ENDBRANCH  13  14
ENDBRANCH  12  13
ENDBRANCH   2  12
TORSDOF 4
ENDMDL
MODEL 9
REMARK VINA RESULT:      -6.7      2.472      3.420
REMARK  Name = 
REMARK  5 active torsions:
REMARK  status: ('A' for Active; 'I' for Inactive)
REMARK    1  A    between atoms: C_1  and  C_2
REMARK    2  A    between atoms: C_5  and  N_6
REMARK    3  A    between atoms: C_7  and  C_9
REMARK    4  A    between atoms: C_9  and  C_10
REMARK    5  A    between atoms: C_10  and  C_11
REMARK                            x       y       z     vdW  Elec       q    Type
REMARK                         _______ _______ _______ _____ _____    ______ ____
ROOT
ATOM      1  N   UNL     1       2.409   5.877  20.811  0.00  0.00    +0.000 N 
ATOM      2  C   UNL     1       1.720   4.682  20.711  0.00  0.00    +0.000 C 
ATOM      3  O   UNL     1       0.646   4.501  20.146  0.00  0.00    +0.000 OA
ATOM      4  H   UNL     1       3.365   5.837  21.143  0.00  0.00    +0.000 HD
ENDROOT
BRANCH   1   9
ATOM      5  C   UNL     1       0.640  10.880  18.641  0.00  0.00    +0.000 C 
ATOM      6  C   UNL     1       1.112   9.583  19.225  0.00  0.00    +0.000 A 
ATOM      7  C   UNL     1       0.788   9.237  20.538  0.00  0.00    +0.000 A 
ATOM      8  C   UNL     1       1.216   8.022  21.079  0.00  0.00    +0.000 A 
ATOM      9  C   UNL     1       1.972   7.129  20.320  0.00  0.00    +0.000 A 
ATOM     10  C   UNL     1       2.322   7.484  19.013  0.00  0.00    +0.000 A 
ATOM     11  C   UNL     1       1.886   8.697  18.466  0.00  0.00    +0.000 A 
ENDBRANCH   1   9
BRANCH   2  12
ATOM     12  C   UNL     1       2.439   3.505  21.342  0.00  0.00    +0.000 C 
BRANCH  12  13
ATOM     13  C   UNL     1       2.874   2.526  20.257  0.00  0.00    +0.000 C 
BRANCH  13  14
ATOM     14  C   UNL     1       3.976   3.091  19.429  0.00  0.00    +0.000 A 
ATOM     15  N   UNL     1       5.209   3.285  19.795  0.00  0.00    +0.000 NA
ATOM     16  N   UNL     1       5.777   3.785  18.665  0.00  0.00    +0.000 N 
ATOM     17  C   UNL     1       4.860   3.859  17.661  0.00  0.00    +0.000 A 
ATOM     18  S   UNL     1       5.034   4.370  16.111  0.00  0.00    +0.000 S 
ATOM     19  O   UNL     1       3.682   3.399  18.145  0.00  0.00    +0.000 OA
ATOM     20  H   UNL     1       6.751   4.056  18.615  0.00  0.00    +0.000 HD
ENDBRANCH  13  14
ENDBRANCH  12  13
ENDBRANCH   2  12
TORSDOF 4
ENDMDL
