MODEL 1
REMARK VINA RESULT:      -8.6      0.000      0.000
REMARK  Name = 
REMARK  7 active torsions:
REMARK  status: ('A' for Active; 'I' for Inactive)
REMARK    1  A    between atoms: C_1  and  N_2
REMARK    2  A    between atoms: N_2  and  C_17
REMARK    3  A    between atoms: C_3  and  C_5
REMARK    4  A    between atoms: C_5  and  C_6
REMARK    5  A    between atoms: C_21  and  C_22
REMARK    6  A    between atoms: C_22  and  C_23
REMARK    7  A    between atoms: C_23  and  O_25
REMARK                            x       y       z     vdW  Elec       q    Type
REMARK                         _______ _______ _______ _____ _____    ______ ____
ROOT
ATOM      1  C   UNL     1       1.372   9.721  18.817  0.00  0.00    +0.000 C 
ATOM      2  C   UNL     1       1.563   9.428  20.303  0.00  0.00    +0.000 C 
ATOM      3  C   UNL     1       1.261   7.982  20.625  0.00  0.00    +0.000 C 
ATOM      4  C   UNL     1       2.068   7.097  19.760  0.00  0.00    +0.000 A 
ATOM      5  C   UNL     1       2.437   5.781  19.949  0.00  0.00    +0.000 A 
ATOM      6  C   UNL     1       3.268   5.433  18.837  0.00  0.00    +0.000 A 
ATOM      7  C   UNL     1       3.972   4.273  18.471  0.00  0.00    +0.000 A 
ATOM      8  C   UNL     1       4.769   4.286  17.313  0.00  0.00    +0.000 A 
ATOM      9  C   UNL     1       4.876   5.433  16.534  0.00  0.00    +0.000 A 
ATOM     10  C   UNL     1       4.183   6.595  16.870  0.00  0.00    +0.000 A 
ATOM     11  C   UNL     1       3.377   6.566  18.018  0.00  0.00    +0.000 A 
ATOM     12  N   UNL     1       2.601   7.548  18.580  0.00  0.00    +0.000 N 
ATOM     13  C   UNL     1       2.486   8.925  18.090  0.00  0.00    +0.000 C 
ENDROOT
BRANCH   1  15
ATOM     14  C   UNL     1       2.534  11.862  18.162  0.00  0.00    +0.000 C 
ATOM     15  N   UNL     1       1.289  11.190  18.545  0.00  0.00    +0.000 N 
ATOM     16  C   UNL     1       0.126  11.997  18.576  0.00  0.00    +0.000 C 
ATOM     17  O   UNL     1       0.231  13.216  18.374  0.00  0.00    +0.000 OA
BRANCH  16  18
ATOM     18  C   UNL     1      -1.311  11.429  18.919  0.00  0.00    +0.000 C 
ATOM     19  C   UNL     1      -2.364  12.067  17.969  0.00  0.00    +0.000 C 
ATOM     20  C   UNL     1      -3.517  11.065  17.917  0.00  0.00    +0.000 C 
ATOM     21  C   UNL     1      -2.864   9.698  18.017  0.00  0.00    +0.000 C 
ATOM     22  C   UNL     1      -1.427   9.955  18.459  0.00  0.00    +0.000 C 
BRANCH  18  23
ATOM     23  C   UNL     1      -1.763  11.782  20.365  0.00  0.00    +0.000 A 
ATOM     24  C   UNL     1      -1.097  11.230  21.483  0.00  0.00    +0.000 A 
ATOM     25  C   UNL     1      -1.586  11.412  22.783  0.00  0.00    +0.000 A 
ATOM     26  C   UNL     1      -2.725  12.174  22.990  0.00  0.00    +0.000 A 
ATOM     27  F   UNL     1      -3.203  12.332  24.232  0.00  0.00    +0.000 F 
ATOM     28  C   UNL     1      -3.385  12.764  21.923  0.00  0.00    +0.000 A 
ATOM     29  C   UNL     1      -2.907  12.573  20.623  0.00  0.00    +0.000 A 
ENDBRANCH  18  23
ENDBRANCH  16  18
ENDBRANCH   1  15
BRANCH   5  30
ATOM     30  C   UNL     1       2.083   4.933  21.147  0.00  0.00    +0.000 C 
BRANCH  30  31
ATOM     31  C   UNL     1       1.443   3.599  20.820  0.00  0.00    +0.000 C 
ATOM     32  O   UNL     1       1.921   2.523  21.174  0.00  0.00    +0.000 OA
BRANCH  31  33
ATOM     33  O   UNL     1       0.330   3.651  20.051  0.00  0.00    +0.000 OA
ATOM     34  H   UNL     1      -0.465   3.308  20.506  0.00  0.00    +0.000 HD
ENDBRANCH  31  33
ENDBRANCH  30  31
ENDBRANCH   5  30
TORSDOF 6
ENDMDL
MODEL 2
REMARK VINA RESULT:      -8.5      0.289      1.008
REMARK  Name = 
REMARK  7 active torsions:
REMARK  status: ('A' for Active; 'I' for Inactive)
REMARK    1  A    between atoms: C_1  and  N_2
REMARK    2  A    between atoms: N_2  and  C_17
REMARK    3  A    between atoms: C_3  and  C_5
REMARK    4  A    between atoms: C_5  and  C_6
REMARK    5  A    between atoms: C_21  and  C_22
REMARK    6  A    between atoms: C_22  and  C_23
REMARK    7  A    between atoms: C_23  and  O_25
REMARK                            x       y       z     vdW  Elec       q    Type
REMARK                         _______ _______ _______ _____ _____    ______ ____
ROOT
ATOM      1  C   UNL     1       1.361   9.741  18.752  0.00  0.00    +0.000 C 
ATOM      2  C   UNL     1       1.523   9.408  20.233  0.00  0.00    +0.000 C 
ATOM      3  C   UNL     1       1.245   7.945  20.503  0.00  0.00    +0.000 C 
ATOM      4  C   UNL     1       2.093   7.106  19.633  0.00  0.00    +0.000 A 
ATOM      5  C   UNL     1       2.488   5.793  19.791  0.00  0.00    +0.000 A 
ATOM      6  C   UNL     1       3.353   5.498  18.690  0.00  0.00    +0.000 A 
ATOM      7  C   UNL     1       4.093   4.366  18.308  0.00  0.00    +0.000 A 
ATOM      8  C   UNL     1       4.918   4.431  17.171  0.00  0.00    +0.000 A 
ATOM      9  C   UNL     1       5.018   5.604  16.430  0.00  0.00    +0.000 A 
ATOM     10  C   UNL     1       4.290   6.739  16.784  0.00  0.00    +0.000 A 
ATOM     11  C   UNL     1       3.457   6.657  17.909  0.00  0.00    +0.000 A 
ATOM     12  N   UNL     1       2.645   7.604  18.481  0.00  0.00    +0.000 N 
ATOM     13  C   UNL     1       2.511   8.993  18.029  0.00  0.00    +0.000 C 
ENDROOT
BRANCH   1  15
ATOM     14  C   UNL     1       2.489  11.926  18.187  0.00  0.00    +0.000 C 
ATOM     15  N   UNL     1       1.251  11.216  18.523  0.00  0.00    +0.000 N 
ATOM     16  C   UNL     1       0.071  11.996  18.552  0.00  0.00    +0.000 C 
ATOM     17  O   UNL     1       0.153  13.223  18.390  0.00  0.00    +0.000 OA
BRANCH  16  18
ATOM     18  C   UNL     1      -1.360  11.387  18.848  0.00  0.00    +0.000 C 
ATOM     19  C   UNL     1      -2.408  12.036  17.900  0.00  0.00    +0.000 C 
ATOM     20  C   UNL     1      -3.539  11.014  17.791  0.00  0.00    +0.000 C 
ATOM     21  C   UNL     1      -2.859   9.658  17.857  0.00  0.00    +0.000 C 
ATOM     22  C   UNL     1      -1.437   9.929  18.336  0.00  0.00    +0.000 C 
BRANCH  18  23
ATOM     23  C   UNL     1      -1.847  11.682  20.297  0.00  0.00    +0.000 A 
ATOM     24  C   UNL     1      -2.920  12.572  20.529  0.00  0.00    +0.000 A 
ATOM     25  C   UNL     1      -3.266  12.968  21.826  0.00  0.00    +0.000 A 
ATOM     26  C   UNL     1      -2.573  12.457  22.912  0.00  0.00    +0.000 A 
ATOM     27  F   UNL     1      -2.893  12.851  24.151  0.00  0.00    +0.000 F 
ATOM     28  C   UNL     1      -1.539  11.552  22.728  0.00  0.00    +0.000 A 
ATOM     29  C   UNL     1      -1.181  11.165  21.433  0.00  0.00    +0.000 A 
ENDBRANCH  18  23
ENDBRANCH  16  18
ENDBRANCH   1  15
BRANCH   5  30
ATOM     30  C   UNL     1       2.124   4.901  20.954  0.00  0.00    +0.000 C 
BRANCH  30  31
ATOM     31  C   UNL     1       1.216   3.738  20.608  0.00  0.00    +0.000 C 
ATOM     32  O   UNL     1       0.655   3.626  19.521  0.00  0.00    +0.000 OA
BRANCH  31  33
ATOM     33  O   UNL     1       1.002   2.842  21.601  0.00  0.00    +0.000 OA
ATOM     34  H   UNL     1       1.155   1.917  21.321  0.00  0.00    +0.000 HD
ENDBRANCH  31  33
ENDBRANCH  30  31
ENDBRANCH   5  30
TORSDOF 6
ENDMDL
MODEL 3
REMARK VINA RESULT:      -7.9      1.400      1.773
REMARK  Name = 
REMARK  7 active torsions:
REMARK  status: ('A' for Active; 'I' for Inactive)
REMARK    1  A    between atoms: C_1  and  N_2
REMARK    2  A    between atoms: N_2  and  C_17
REMARK    3  A    between atoms: C_3  and  C_5
REMARK    4  A    between atoms: C_5  and  C_6
REMARK    5  A    between atoms: C_21  and  C_22
REMARK    6  A    between atoms: C_22  and  C_23
REMARK    7  A    between atoms: C_23  and  O_25
REMARK                            x       y       z     vdW  Elec       q    Type
REMARK                         _______ _______ _______ _____ _____    ______ ____
ROOT
ATOM      1  C   UNL     1       1.922   9.353  18.265  0.00  0.00    +0.000 C 
ATOM      2  C   UNL     1       2.115   8.901  19.710  0.00  0.00    +0.000 C 
ATOM      3  C   UNL     1       1.879   7.414  19.860  0.00  0.00    +0.000 C 
ATOM      4  C   UNL     1       2.733   6.673  18.910  0.00  0.00    +0.000 A 
ATOM      5  C   UNL     1       3.163   5.363  18.952  0.00  0.00    +0.000 A 
ATOM      6  C   UNL     1       4.018   5.183  17.819  0.00  0.00    +0.000 A 
ATOM      7  C   UNL     1       4.780   4.107  17.332  0.00  0.00    +0.000 A 
ATOM      8  C   UNL     1       5.585   4.290  16.194  0.00  0.00    +0.000 A 
ATOM      9  C   UNL     1       5.644   5.522  15.553  0.00  0.00    +0.000 A 
ATOM     10  C   UNL     1       4.893   6.604  16.011  0.00  0.00    +0.000 A 
ATOM     11  C   UNL     1       4.080   6.407  17.137  0.00  0.00    +0.000 A 
ATOM     12  N   UNL     1       3.254   7.281  17.797  0.00  0.00    +0.000 N 
ATOM     13  C   UNL     1       3.079   8.698  17.466  0.00  0.00    +0.000 C 
ENDROOT
BRANCH   1  15
ATOM     14  C   UNL     1       2.946  11.591  17.709  0.00  0.00    +0.000 C 
ATOM     15  N   UNL     1       1.772  10.838  18.162  0.00  0.00    +0.000 N 
ATOM     16  C   UNL     1       0.603  11.595  18.415  0.00  0.00    +0.000 C 
ATOM     17  O   UNL     1       0.654  12.832  18.333  0.00  0.00    +0.000 OA
BRANCH  16  18
ATOM     18  C   UNL     1      -0.768  10.943  18.863  0.00  0.00    +0.000 C 
ATOM     19  C   UNL     1      -1.911  11.989  18.727  0.00  0.00    +0.000 C 
ATOM     20  C   UNL     1      -3.188  11.169  18.553  0.00  0.00    +0.000 C 
ATOM     21  C   UNL     1      -2.770   9.942  17.763  0.00  0.00    +0.000 C 
ATOM     22  C   UNL     1      -1.246   9.921  17.803  0.00  0.00    +0.000 C 
BRANCH  18  23
ATOM     23  C   UNL     1      -0.760  10.502  20.355  0.00  0.00    +0.000 A 
ATOM     24  C   UNL     1      -0.620  11.457  21.387  0.00  0.00    +0.000 A 
ATOM     25  C   UNL     1      -0.454  11.065  22.721  0.00  0.00    +0.000 A 
ATOM     26  C   UNL     1      -0.459   9.718  23.050  0.00  0.00    +0.000 A 
ATOM     27  F   UNL     1      -0.280   9.344  24.323  0.00  0.00    +0.000 F 
ATOM     28  C   UNL     1      -0.631   8.753  22.071  0.00  0.00    +0.000 A 
ATOM     29  C   UNL     1      -0.785   9.140  20.736  0.00  0.00    +0.000 A 
ENDBRANCH  18  23
ENDBRANCH  16  18
ENDBRANCH   1  15
BRANCH   5  30
ATOM     30  C   UNL     1       2.839   4.367  20.040  0.00  0.00    +0.000 C 
BRANCH  30  31
ATOM     31  C   UNL     1       1.689   3.430  19.729  0.00  0.00    +0.000 C 
ATOM     32  O   UNL     1       1.739   2.581  18.843  0.00  0.00    +0.000 OA
BRANCH  31  33
ATOM     33  O   UNL     1       0.559   3.624  20.451  0.00  0.00    +0.000 OA
ATOM     34  H   UNL     1      -0.244   3.295  19.998  0.00  0.00    +0.000 HD
ENDBRANCH  31  33
ENDBRANCH  30  31
ENDBRANCH   5  30
TORSDOF 6
ENDMDL
MODEL 4
REMARK VINA RESULT:      -7.4      2.309      3.502
REMARK  Name = 
REMARK  7 active torsions:
REMARK  status: ('A' for Active; 'I' for Inactive)
REMARK    1  A    between atoms: C_1  and  N_2
REMARK    2  A    between atoms: N_2  and  C_17
REMARK    3  A    between atoms: C_3  and  C_5
REMARK    4  A    between atoms: C_5  and  C_6
REMARK    5  A    between atoms: C_21  and  C_22
REMARK    6  A    between atoms: C_22  and  C_23
REMARK    7  A    between atoms: C_23  and  O_25
REMARK                            x       y       z     vdW  Elec       q    Type
REMARK                         _______ _______ _______ _____ _____    ______ ____
ROOT
ATOM      1  C   UNL     1       1.193   8.110  20.448  0.00  0.00    +0.000 C 
ATOM      2  C   UNL     1       1.155   6.792  21.217  0.00  0.00    +0.000 C 
ATOM      3  C   UNL     1       0.924   5.619  20.290  0.00  0.00    +0.000 C 
ATOM      4  C   UNL     1       1.937   5.624  19.215  0.00  0.00    +0.000 A 
ATOM      5  C   UNL     1       2.378   4.588  18.417  0.00  0.00    +0.000 A 
ATOM      6  C   UNL     1       3.411   5.129  17.588  0.00  0.00    +0.000 A 
ATOM      7  C   UNL     1       4.262   4.587  16.610  0.00  0.00    +0.000 A 
ATOM      8  C   UNL     1       5.239   5.404  16.015  0.00  0.00    +0.000 A 
ATOM      9  C   UNL     1       5.379   6.735  16.391  0.00  0.00    +0.000 A 
ATOM     10  C   UNL     1       4.544   7.300  17.353  0.00  0.00    +0.000 A 
ATOM     11  C   UNL     1       3.561   6.481  17.928  0.00  0.00    +0.000 A 
ATOM     12  N   UNL     1       2.622   6.765  18.887  0.00  0.00    +0.000 N 
ATOM     13  C   UNL     1       2.477   8.049  19.581  0.00  0.00    +0.000 C 
ENDROOT
BRANCH   1  15
ATOM     14  C   UNL     1       1.114   9.028  22.797  0.00  0.00    +0.000 C 
ATOM     15  N   UNL     1       1.035   9.289  21.356  0.00  0.00    +0.000 N 
ATOM     16  C   UNL     1       0.859  10.640  20.974  0.00  0.00    +0.000 C 
ATOM     17  O   UNL     1       0.691  11.500  21.852  0.00  0.00    +0.000 OA
BRANCH  16  18
ATOM     18  C   UNL     1       0.801  11.110  19.463  0.00  0.00    +0.000 C 
ATOM     19  C   UNL     1       1.053  12.643  19.385  0.00  0.00    +0.000 C 
ATOM     20  C   UNL     1       1.598  12.889  17.979  0.00  0.00    +0.000 C 
ATOM     21  C   UNL     1       2.423  11.657  17.649  0.00  0.00    +0.000 C 
ATOM     22  C   UNL     1       2.056  10.617  18.702  0.00  0.00    +0.000 C 
BRANCH  18  23
ATOM     23  C   UNL     1      -0.592  10.867  18.815  0.00  0.00    +0.000 A 
ATOM     24  C   UNL     1      -0.743   9.937  17.761  0.00  0.00    +0.000 A 
ATOM     25  C   UNL     1      -1.952   9.820  17.063  0.00  0.00    +0.000 A 
ATOM     26  C   UNL     1      -3.037  10.603  17.428  0.00  0.00    +0.000 A 
ATOM     27  F   UNL     1      -4.186  10.503  16.748  0.00  0.00    +0.000 F 
ATOM     28  C   UNL     1      -2.939  11.499  18.481  0.00  0.00    +0.000 A 
ATOM     29  C   UNL     1      -1.730  11.627  19.171  0.00  0.00    +0.000 A 
ENDBRANCH  18  23
ENDBRANCH  16  18
ENDBRANCH   1  15
BRANCH   5  30
ATOM     30  C   UNL     1       1.899   3.158  18.492  0.00  0.00    +0.000 C 
BRANCH  30  31
ATOM     31  C   UNL     1       2.862   2.193  19.155  0.00  0.00    +0.000 C 
ATOM     32  O   UNL     1       3.306   2.363  20.288  0.00  0.00    +0.000 OA
BRANCH  31  33
ATOM     33  O   UNL     1       3.264   1.146  18.395  0.00  0.00    +0.000 OA
ATOM     34  H   UNL     1       2.945   0.285  18.732  0.00  0.00    +0.000 HD
ENDBRANCH  31  33
ENDBRANCH  30  31
ENDBRANCH   5  30
TORSDOF 6
ENDMDL
MODEL 5
REMARK VINA RESULT:      -7.4      4.236      6.937
REMARK  Name = 
REMARK  7 active torsions:
REMARK  status: ('A' for Active; 'I' for Inactive)
REMARK    1  A    between atoms: C_1  and  N_2
REMARK    2  A    between atoms: N_2  and  C_17
REMARK    3  A    between atoms: C_3  and  C_5
REMARK    4  A    between atoms: C_5  and  C_6
REMARK    5  A    between atoms: C_21  and  C_22
REMARK    6  A    between atoms: C_22  and  C_23
REMARK    7  A    between atoms: C_23  and  O_25
REMARK                            x       y       z     vdW  Elec       q    Type
REMARK                         _______ _______ _______ _____ _____    ______ ____
ROOT
ATOM      1  C   UNL     1      -2.961  14.174  21.927  0.00  0.00    +0.000 C 
ATOM      2  C   UNL     1      -1.467  14.248  22.228  0.00  0.00    +0.000 C 
ATOM      3  C   UNL     1      -0.848  12.869  22.294  0.00  0.00    +0.000 C 
ATOM      4  C   UNL     1      -1.145  12.127  21.052  0.00  0.00    +0.000 A 
ATOM      5  C   UNL     1      -0.486  11.051  20.492  0.00  0.00    +0.000 A 
ATOM      6  C   UNL     1      -1.155  10.768  19.259  0.00  0.00    +0.000 A 
ATOM      7  C   UNL     1      -0.947   9.835  18.229  0.00  0.00    +0.000 A 
ATOM      8  C   UNL     1      -1.772   9.869  17.091  0.00  0.00    +0.000 A 
ATOM      9  C   UNL     1      -2.779  10.819  16.968  0.00  0.00    +0.000 A 
ATOM     10  C   UNL     1      -3.010  11.753  17.977  0.00  0.00    +0.000 A 
ATOM     11  C   UNL     1      -2.193  11.699  19.117  0.00  0.00    +0.000 A 
ATOM     12  N   UNL     1      -2.191  12.483  20.243  0.00  0.00    +0.000 N 
ATOM     13  C   UNL     1      -3.067  13.636  20.476  0.00  0.00    +0.000 C 
ENDROOT
BRANCH   1  15
ATOM     14  C   UNL     1      -2.854  16.688  22.120  0.00  0.00    +0.000 C 
ATOM     15  N   UNL     1      -3.655  15.464  22.232  0.00  0.00    +0.000 N 
ATOM     16  C   UNL     1      -5.016  15.638  22.578  0.00  0.00    +0.000 C 
ATOM     17  O   UNL     1      -5.430  16.774  22.852  0.00  0.00    +0.000 OA
BRANCH  16  18
ATOM     18  C   UNL     1      -6.038  14.434  22.695  0.00  0.00    +0.000 C 
ATOM     19  C   UNL     1      -5.435  13.327  23.606  0.00  0.00    +0.000 C 
ATOM     20  C   UNL     1      -6.637  12.568  24.165  0.00  0.00    +0.000 C 
ATOM     21  C   UNL     1      -7.725  13.613  24.338  0.00  0.00    +0.000 C 
ATOM     22  C   UNL     1      -7.246  14.842  23.573  0.00  0.00    +0.000 C 
BRANCH  18  23
ATOM     23  C   UNL     1      -6.323  13.757  21.324  0.00  0.00    +0.000 A 
ATOM     24  C   UNL     1      -6.121  12.369  21.150  0.00  0.00    +0.000 A 
ATOM     25  C   UNL     1      -6.222  11.774  19.887  0.00  0.00    +0.000 A 
ATOM     26  C   UNL     1      -6.559  12.545  18.786  0.00  0.00    +0.000 A 
ATOM     27  F   UNL     1      -6.636  11.978  17.575  0.00  0.00    +0.000 F 
ATOM     28  C   UNL     1      -6.802  13.903  18.922  0.00  0.00    +0.000 A 
ATOM     29  C   UNL     1      -6.689  14.503  20.179  0.00  0.00    +0.000 A 
ENDBRANCH  18  23
ENDBRANCH  16  18
ENDBRANCH   1  15
BRANCH   5  30
ATOM     30  C   UNL     1       0.744  10.384  21.058  0.00  0.00    +0.000 C 
BRANCH  30  31
ATOM     31  C   UNL     1       0.549   8.946  21.494  0.00  0.00    +0.000 C 
ATOM     32  O   UNL     1      -0.553   8.469  21.754  0.00  0.00    +0.000 OA
BRANCH  31  33
ATOM     33  O   UNL     1       1.681   8.216  21.645  0.00  0.00    +0.000 OA
ATOM     34  H   UNL     1       2.069   7.933  20.793  0.00  0.00    +0.000 HD
ENDBRANCH  31  33
ENDBRANCH  30  31
ENDBRANCH   5  30
TORSDOF 6
ENDMDL
MODEL 6
REMARK VINA RESULT:      -7.3      4.195      7.244
REMARK  Name = 
REMARK  7 active torsions:
REMARK  status: ('A' for Active; 'I' for Inactive)
REMARK    1  A    between atoms: C_1  and  N_2
REMARK    2  A    between atoms: N_2  and  C_17
REMARK    3  A    between atoms: C_3  and  C_5
REMARK    4  A    between atoms: C_5  and  C_6
REMARK    5  A    between atoms: C_21  and  C_22
REMARK    6  A    between atoms: C_22  and  C_23
REMARK    7  A    between atoms: C_23  and  O_25
REMARK                            x       y       z     vdW  Elec       q    Type
REMARK                         _______ _______ _______ _____ _____    ______ ____
ROOT
ATOM      1  C   UNL     1      -3.215  13.884  21.310  0.00  0.00    +0.000 C 
ATOM      2  C   UNL     1      -1.691  13.854  21.391  0.00  0.00    +0.000 C 
ATOM      3  C   UNL     1      -1.159  12.442  21.288  0.00  0.00    +0.000 C 
ATOM      4  C   UNL     1      -1.679  11.800  20.063  0.00  0.00    +0.000 A 
ATOM      5  C   UNL     1      -1.179  10.729  19.352  0.00  0.00    +0.000 A 
ATOM      6  C   UNL     1      -2.035  10.565  18.217  0.00  0.00    +0.000 A 
ATOM      7  C   UNL     1      -2.038   9.691  17.116  0.00  0.00    +0.000 A 
ATOM      8  C   UNL     1      -3.013   9.845  16.115  0.00  0.00    +0.000 A 
ATOM      9  C   UNL     1      -3.964  10.856  16.197  0.00  0.00    +0.000 A 
ATOM     10  C   UNL     1      -3.987  11.733  17.280  0.00  0.00    +0.000 A 
ATOM     11  C   UNL     1      -3.020  11.559  18.282  0.00  0.00    +0.000 A 
ATOM     12  N   UNL     1      -2.806  12.267  19.438  0.00  0.00    +0.000 N 
ATOM     13  C   UNL     1      -3.563  13.449  19.863  0.00  0.00    +0.000 C 
ENDROOT
BRANCH   1  15
ATOM     14  C   UNL     1      -2.931  16.375  21.598  0.00  0.00    +0.000 C 
ATOM     15  N   UNL     1      -3.772  15.188  21.787  0.00  0.00    +0.000 N 
ATOM     16  C   UNL     1      -5.046  15.410  22.364  0.00  0.00    +0.000 C 
ATOM     17  O   UNL     1      -5.342  16.548  22.756  0.00  0.00    +0.000 OA
BRANCH  16  18
ATOM     18  C   UNL     1      -6.101  14.253  22.596  0.00  0.00    +0.000 C 
ATOM     19  C   UNL     1      -5.445  13.106  23.415  0.00  0.00    +0.000 C 
ATOM     20  C   UNL     1      -6.605  12.395  24.111  0.00  0.00    +0.000 C 
ATOM     21  C   UNL     1      -7.611  13.487  24.428  0.00  0.00    +0.000 C 
ATOM     22  C   UNL     1      -7.171  14.703  23.621  0.00  0.00    +0.000 C 
BRANCH  18  23
ATOM     23  C   UNL     1      -6.586  13.611  21.264  0.00  0.00    +0.000 A 
ATOM     24  C   UNL     1      -6.517  12.213  21.072  0.00  0.00    +0.000 A 
ATOM     25  C   UNL     1      -6.800  11.636  19.828  0.00  0.00    +0.000 A 
ATOM     26  C   UNL     1      -7.190  12.440  18.768  0.00  0.00    +0.000 A 
ATOM     27  F   UNL     1      -7.443  11.890  17.573  0.00  0.00    +0.000 F 
ATOM     28  C   UNL     1      -7.307  13.812  18.927  0.00  0.00    +0.000 A 
ATOM     29  C   UNL     1      -7.011  14.393  20.165  0.00  0.00    +0.000 A 
ENDBRANCH  18  23
ENDBRANCH  16  18
ENDBRANCH   1  15
BRANCH   5  30
ATOM     30  C   UNL     1       0.075   9.958  19.691  0.00  0.00    +0.000 C 
BRANCH  30  31
ATOM     31  C   UNL     1       1.243  10.193  18.756  0.00  0.00    +0.000 C 
ATOM     32  O   UNL     1       1.786  11.287  18.624  0.00  0.00    +0.000 OA
BRANCH  31  33
ATOM     33  O   UNL     1       1.626   9.128  18.011  0.00  0.00    +0.000 OA
ATOM     34  H   UNL     1       1.806   8.331  18.549  0.00  0.00    +0.000 HD
ENDBRANCH  31  33
ENDBRANCH  30  31
ENDBRANCH   5  30
TORSDOF 6
ENDMDL
MODEL 7
REMARK VINA RESULT:      -7.3      2.579      3.674
REMARK  Name = 
REMARK  7 active torsions:
REMARK  status: ('A' for Active; 'I' for Inactive)
REMARK    1  A    between atoms: C_1  and  N_2
REMARK    2  A    between atoms: N_2  and  C_17
REMARK    3  A    between atoms: C_3  and  C_5
REMARK    4  A    between atoms: C_5  and  C_6
REMARK    5  A    between atoms: C_21  and  C_22
REMARK    6  A    between atoms: C_22  and  C_23
REMARK    7  A    between atoms: C_23  and  O_25
REMARK                            x       y       z     vdW  Elec       q    Type
REMARK                         _______ _______ _______ _____ _____    ______ ____
ROOT
ATOM      1  C   UNL     1       1.360   7.908  20.407  0.00  0.00    +0.000 C 
ATOM      2  C   UNL     1       1.406   6.598  21.189  0.00  0.00    +0.000 C 
ATOM      3  C   UNL     1       1.184   5.406  20.284  0.00  0.00    +0.000 C 
ATOM      4  C   UNL     1       2.150   5.439  19.167  0.00  0.00    +0.000 A 
ATOM      5  C   UNL     1       2.599   4.412  18.362  0.00  0.00    +0.000 A 
ATOM      6  C   UNL     1       3.574   4.985  17.485  0.00  0.00    +0.000 A 
ATOM      7  C   UNL     1       4.405   4.465  16.478  0.00  0.00    +0.000 A 
ATOM      8  C   UNL     1       5.323   5.313  15.835  0.00  0.00    +0.000 A 
ATOM      9  C   UNL     1       5.426   6.653  16.191  0.00  0.00    +0.000 A 
ATOM     10  C   UNL     1       4.610   7.196  17.182  0.00  0.00    +0.000 A 
ATOM     11  C   UNL     1       3.685   6.345  17.805  0.00  0.00    +0.000 A 
ATOM     12  N   UNL     1       2.776   6.602  18.800  0.00  0.00    +0.000 N 
ATOM     13  C   UNL     1       2.609   7.887  19.487  0.00  0.00    +0.000 C 
ENDROOT
BRANCH   1  15
ATOM     14  C   UNL     1       1.659   8.936  22.691  0.00  0.00    +0.000 C 
ATOM     15  N   UNL     1       1.193   9.090  21.309  0.00  0.00    +0.000 N 
ATOM     16  C   UNL     1       0.671  10.359  20.962  0.00  0.00    +0.000 C 
ATOM     17  O   UNL     1       0.550  11.224  21.843  0.00  0.00    +0.000 OA
BRANCH  16  18
ATOM     18  C   UNL     1       0.167  10.716  19.505  0.00  0.00    +0.000 C 
ATOM     19  C   UNL     1       0.558   9.574  18.524  0.00  0.00    +0.000 C 
ATOM     20  C   UNL     1      -0.450   9.665  17.380  0.00  0.00    +0.000 C 
ATOM     21  C   UNL     1      -1.749  10.114  18.026  0.00  0.00    +0.000 C 
ATOM     22  C   UNL     1      -1.374  10.590  19.425  0.00  0.00    +0.000 C 
BRANCH  18  23
ATOM     23  C   UNL     1       0.826  12.010  18.946  0.00  0.00    +0.000 A 
ATOM     24  C   UNL     1       2.155  11.992  18.465  0.00  0.00    +0.000 A 
ATOM     25  C   UNL     1       2.815  13.174  18.107  0.00  0.00    +0.000 A 
ATOM     26  C   UNL     1       2.148  14.387  18.190  0.00  0.00    +0.000 A 
ATOM     27  F   UNL     1       2.786  15.519  17.865  0.00  0.00    +0.000 F 
ATOM     28  C   UNL     1       0.832  14.443  18.621  0.00  0.00    +0.000 A 
ATOM     29  C   UNL     1       0.175  13.265  18.992  0.00  0.00    +0.000 A 
ENDBRANCH  18  23
ENDBRANCH  16  18
ENDBRANCH   1  15
BRANCH   5  30
ATOM     30  C   UNL     1       2.180   2.965  18.470  0.00  0.00    +0.000 C 
BRANCH  30  31
ATOM     31  C   UNL     1       3.218   2.042  19.074  0.00  0.00    +0.000 C 
ATOM     32  O   UNL     1       3.685   2.204  20.199  0.00  0.00    +0.000 OA
BRANCH  31  33
ATOM     33  O   UNL     1       3.661   1.045  18.269  0.00  0.00    +0.000 OA
ATOM     34  H   UNL     1       4.566   0.748  18.492  0.00  0.00    +0.000 HD
ENDBRANCH  31  33
ENDBRANCH  30  31
ENDBRANCH   5  30
TORSDOF 6
ENDMDL
MODEL 8
REMARK VINA RESULT:      -7.2      8.845     11.681
REMARK  Name = 
REMARK  7 active torsions:
REMARK  status: ('A' for Active; 'I' for Inactive)
REMARK    1  A    between atoms: C_1  and  N_2
REMARK    2  A    between atoms: N_2  and  C_17
REMARK    3  A    between atoms: C_3  and  C_5
REMARK    4  A    between atoms: C_5  and  C_6
REMARK    5  A    between atoms: C_21  and  C_22
REMARK    6  A    between atoms: C_22  and  C_23
REMARK    7  A    between atoms: C_23  and  O_25
REMARK                            x       y       z     vdW  Elec       q    Type
REMARK                         _______ _______ _______ _____ _____    ______ ____
ROOT
ATOM      1  C   UNL     1       7.558  14.531  21.802  0.00  0.00    +0.000 C 
ATOM      2  C   UNL     1       6.247  13.868  22.214  0.00  0.00    +0.000 C 
ATOM      3  C   UNL     1       6.479  12.758  23.216  0.00  0.00    +0.000 C 
ATOM      4  C   UNL     1       7.244  13.277  24.368  0.00  0.00    +0.000 A 
ATOM      5  C   UNL     1       7.334  12.788  25.655  0.00  0.00    +0.000 A 
ATOM      6  C   UNL     1       8.157  13.709  26.378  0.00  0.00    +0.000 A 
ATOM      7  C   UNL     1       8.587  13.791  27.714  0.00  0.00    +0.000 A 
ATOM      8  C   UNL     1       9.358  14.893  28.124  0.00  0.00    +0.000 A 
ATOM      9  C   UNL     1       9.687  15.905  27.229  0.00  0.00    +0.000 A 
ATOM     10  C   UNL     1       9.279  15.845  25.898  0.00  0.00    +0.000 A 
ATOM     11  C   UNL     1       8.525  14.732  25.495  0.00  0.00    +0.000 A 
ATOM     12  N   UNL     1       7.994  14.420  24.269  0.00  0.00    +0.000 N 
ATOM     13  C   UNL     1       8.071  15.261  23.070  0.00  0.00    +0.000 C 
ENDROOT
BRANCH   1  15
ATOM     14  C   UNL     1       6.235  16.231  20.488  0.00  0.00    +0.000 C 
ATOM     15  N   UNL     1       7.403  15.346  20.557  0.00  0.00    +0.000 N 
ATOM     16  C   UNL     1       8.286  15.389  19.451  0.00  0.00    +0.000 C 
ATOM     17  O   UNL     1       7.989  16.082  18.467  0.00  0.00    +0.000 OA
BRANCH  16  18
ATOM     18  C   UNL     1       9.620  14.539  19.378  0.00  0.00    +0.000 C 
ATOM     19  C   UNL     1      10.397  14.902  18.081  0.00  0.00    +0.000 C 
ATOM     20  C   UNL     1      11.858  14.570  18.382  0.00  0.00    +0.000 C 
ATOM     21  C   UNL     1      12.043  14.883  19.857  0.00  0.00    +0.000 C 
ATOM     22  C   UNL     1      10.638  15.052  20.425  0.00  0.00    +0.000 C 
BRANCH  18  23
ATOM     23  C   UNL     1       9.349  13.009  19.306  0.00  0.00    +0.000 A 
ATOM     24  C   UNL     1       9.597  12.181  20.425  0.00  0.00    +0.000 A 
ATOM     25  C   UNL     1       9.510  10.786  20.329  0.00  0.00    +0.000 A 
ATOM     26  C   UNL     1       9.140  10.199  19.129  0.00  0.00    +0.000 A 
ATOM     27  F   UNL     1       9.075   8.865  19.034  0.00  0.00    +0.000 F 
ATOM     28  C   UNL     1       8.852  10.979  18.020  0.00  0.00    +0.000 A 
ATOM     29  C   UNL     1       8.952  12.371  18.108  0.00  0.00    +0.000 A 
ENDBRANCH  18  23
ENDBRANCH  16  18
ENDBRANCH   1  15
BRANCH   5  30
ATOM     30  C   UNL     1       6.624  11.563  26.180  0.00  0.00    +0.000 C 
BRANCH  30  31
ATOM     31  C   UNL     1       5.316  11.840  26.894  0.00  0.00    +0.000 C 
ATOM     32  O   UNL     1       4.573  12.771  26.593  0.00  0.00    +0.000 OA
BRANCH  31  33
ATOM     33  O   UNL     1       5.032  11.028  27.941  0.00  0.00    +0.000 OA
ATOM     34  H   UNL     1       4.073  10.963  28.124  0.00  0.00    +0.000 HD
ENDBRANCH  31  33
ENDBRANCH  30  31
ENDBRANCH   5  30
TORSDOF 6
ENDMDL
MODEL 9
REMARK VINA RESULT:      -7.2      4.661      9.869
REMARK  Name = 
REMARK  7 active torsions:
REMARK  status: ('A' for Active; 'I' for Inactive)
REMARK    1  A    between atoms: C_1  and  N_2
REMARK    2  A    between atoms: N_2  and  C_17
REMARK    3  A    between atoms: C_3  and  C_5
REMARK    4  A    between atoms: C_5  and  C_6
REMARK    5  A    between atoms: C_21  and  C_22
REMARK    6  A    between atoms: C_22  and  C_23
REMARK    7  A    between atoms: C_23  and  O_25
REMARK                            x       y       z     vdW  Elec       q    Type
REMARK                         _______ _______ _______ _____ _____    ______ ____
ROOT
ATOM      1  C   UNL     1      -1.848  12.430  22.080  0.00  0.00    +0.000 C 
ATOM      2  C   UNL     1      -1.141  13.459  22.958  0.00  0.00    +0.000 C 
ATOM      3  C   UNL     1      -1.741  14.837  22.786  0.00  0.00    +0.000 C 
ATOM      4  C   UNL     1      -3.197  14.783  23.029  0.00  0.00    +0.000 A 
ATOM      5  C   UNL     1      -4.068  15.793  23.385  0.00  0.00    +0.000 A 
ATOM      6  C   UNL     1      -5.349  15.179  23.551  0.00  0.00    +0.000 A 
ATOM      7  C   UNL     1      -6.615  15.653  23.936  0.00  0.00    +0.000 A 
ATOM      8  C   UNL     1      -7.682  14.746  24.067  0.00  0.00    +0.000 A 
ATOM      9  C   UNL     1      -7.495  13.389  23.832  0.00  0.00    +0.000 A 
ATOM     10  C   UNL     1      -6.252  12.893  23.443  0.00  0.00    +0.000 A 
ATOM     11  C   UNL     1      -5.199  13.808  23.298  0.00  0.00    +0.000 A 
ATOM     12  N   UNL     1      -3.891  13.604  22.939  0.00  0.00    +0.000 N 
ATOM     13  C   UNL     1      -3.280  12.300  22.662  0.00  0.00    +0.000 C 
ENDROOT
BRANCH   1  15
ATOM     14  C   UNL     1      -0.733  10.451  23.177  0.00  0.00    +0.000 C 
ATOM     15  N   UNL     1      -1.048  11.174  21.940  0.00  0.00    +0.000 N 
ATOM     16  C   UNL     1      -0.595  10.582  20.737  0.00  0.00    +0.000 C 
ATOM     17  O   UNL     1       0.105   9.560  20.792  0.00  0.00    +0.000 OA
BRANCH  16  18
ATOM     18  C   UNL     1      -0.887  11.199  19.308  0.00  0.00    +0.000 C 
ATOM     19  C   UNL     1      -0.724  10.097  18.223  0.00  0.00    +0.000 C 
ATOM     20  C   UNL     1      -1.593  10.555  17.052  0.00  0.00    +0.000 C 
ATOM     21  C   UNL     1      -2.780  11.257  17.686  0.00  0.00    +0.000 C 
ATOM     22  C   UNL     1      -2.400  11.480  19.146  0.00  0.00    +0.000 C 
BRANCH  18  23
ATOM     23  C   UNL     1       0.114  12.329  18.930  0.00  0.00    +0.000 A 
ATOM     24  C   UNL     1       1.463  12.028  18.636  0.00  0.00    +0.000 A 
ATOM     25  C   UNL     1       2.409  13.043  18.449  0.00  0.00    +0.000 A 
ATOM     26  C   UNL     1       2.018  14.371  18.518  0.00  0.00    +0.000 A 
ATOM     27  F   UNL     1       2.928  15.341  18.357  0.00  0.00    +0.000 F 
ATOM     28  C   UNL     1       0.697  14.707  18.766  0.00  0.00    +0.000 A 
ATOM     29  C   UNL     1      -0.248  13.696  18.967  0.00  0.00    +0.000 A 
ENDBRANCH  18  23
ENDBRANCH  16  18
ENDBRANCH   1  15
BRANCH   5  30
ATOM     30  C   UNL     1      -3.689  17.235  23.622  0.00  0.00    +0.000 C 
BRANCH  30  31
ATOM     31  C   UNL     1      -3.543  17.627  25.078  0.00  0.00    +0.000 C 
ATOM     32  O   UNL     1      -4.363  18.326  25.669  0.00  0.00    +0.000 OA
BRANCH  31  33
ATOM     33  O   UNL     1      -2.407  17.213  25.690  0.00  0.00    +0.000 OA
ATOM     34  H   UNL     1      -1.600  17.611  25.307  0.00  0.00    +0.000 HD
ENDBRANCH  31  33
ENDBRANCH  30  31
ENDBRANCH   5  30
TORSDOF 6
ENDMDL
