MODEL 1
REMARK VINA RESULT:      -7.8      0.000      0.000
REMARK  Name = 
REMARK  8 active torsions:
REMARK  status: ('A' for Active; 'I' for Inactive)
REMARK    1  A    between atoms: C_1  and  C_2
REMARK    2  A    between atoms: C_6  and  C_7
REMARK    3  A    between atoms: C_9  and  C_11
REMARK    4  A    between atoms: C_11  and  O_12
REMARK    5  A    between atoms: O_12  and  C_13
REMARK    6  A    between atoms: C_13  and  C_15
REMARK    7  A    between atoms: C_15  and  N_16
REMARK    8  A    between atoms: C_17  and  C_19
REMARK                            x       y       z     vdW  Elec       q    Type
REMARK                         _______ _______ _______ _____ _____    ______ ____
ROOT
ATOM      1  C   UNL     1       7.310   6.445  18.297  0.00  0.00    +0.000 C 
ATOM      2  O   UNL     1       8.288   7.129  18.571  0.00  0.00    +0.000 OA
ENDROOT
BRANCH   1   3
ATOM      3  O   UNL     1       7.039   5.220  18.817  0.00  0.00    +0.000 OA
BRANCH   3   4
ATOM      4  C   UNL     1       5.848   5.131  19.589  0.00  0.00    +0.000 C 
BRANCH   4  13
ATOM      5  C   UNL     1       2.346   6.134  18.217  0.00  0.00    +0.000 C 
ATOM      6  C   UNL     1       2.923   5.515  19.496  0.00  0.00    +0.000 C 
ATOM      7  C   UNL     1       1.877   5.426  20.617  0.00  0.00    +0.000 C 
ATOM      8  C   UNL     1       0.827   4.357  20.348  0.00  0.00    +0.000 C 
ATOM      9  C   UNL     1       1.488   3.013  20.064  0.00  0.00    +0.000 C 
ATOM     10  C   UNL     1       2.540   3.103  18.943  0.00  0.00    +0.000 C 
ATOM     11  C   UNL     1       3.070   1.692  18.667  0.00  0.00    +0.000 C 
ATOM     12  N   UNL     1       3.523   4.182  19.243  0.00  0.00    +0.000 N 
ATOM     13  C   UNL     1       4.906   3.954  19.271  0.00  0.00    +0.000 C 
ATOM     14  O   UNL     1       5.413   2.841  19.116  0.00  0.00    +0.000 OA
ENDBRANCH   4  13
ENDBRANCH   3   4
ENDBRANCH   1   3
BRANCH   1  15
ATOM     15  C   UNL     1       6.273   6.848  17.258  0.00  0.00    +0.000 C 
BRANCH  15  16
ATOM     16  N   UNL     1       6.524   6.263  15.950  0.00  0.00    +0.000 N 
ATOM     17  C   UNL     1       5.794   5.198  15.474  0.00  0.00    +0.000 C 
ATOM     18  O   UNL     1       4.898   4.662  16.115  0.00  0.00    +0.000 OA
ATOM     19  H   UNL     1       7.291   6.642  15.414  0.00  0.00    +0.000 HD
BRANCH  17  20
ATOM     20  C   UNL     1       6.178   4.676  14.129  0.00  0.00    +0.000 A 
ATOM     21  C   UNL     1       5.322   3.759  13.508  0.00  0.00    +0.000 A 
ATOM     22  C   UNL     1       5.653   3.214  12.267  0.00  0.00    +0.000 A 
ATOM     23  C   UNL     1       6.839   3.587  11.635  0.00  0.00    +0.000 A 
ATOM     24  C   UNL     1       7.687   4.518  12.236  0.00  0.00    +0.000 A 
ATOM     25  C   UNL     1       7.357   5.068  13.477  0.00  0.00    +0.000 A 
ENDBRANCH  17  20
ENDBRANCH  15  16
ENDBRANCH   1  15
TORSDOF 6
ENDMDL
MODEL 2
REMARK VINA RESULT:      -7.8      1.174      1.277
REMARK  Name = 
REMARK  8 active torsions:
REMARK  status: ('A' for Active; 'I' for Inactive)
REMARK    1  A    between atoms: C_1  and  C_2
REMARK    2  A    between atoms: C_6  and  C_7
REMARK    3  A    between atoms: C_9  and  C_11
REMARK    4  A    between atoms: C_11  and  O_12
REMARK    5  A    between atoms: O_12  and  C_13
REMARK    6  A    between atoms: C_13  and  C_15
REMARK    7  A    between atoms: C_15  and  N_16
REMARK    8  A    between atoms: C_17  and  C_19
REMARK                            x       y       z     vdW  Elec       q    Type
REMARK                         _______ _______ _______ _____ _____    ______ ____
ROOT
ATOM      1  C   UNL     1       7.442   5.272  18.769  0.00  0.00    +0.000 C 
ATOM      2  O   UNL     1       8.452   4.585  18.850  0.00  0.00    +0.000 OA
ENDROOT
BRANCH   1   3
ATOM      3  O   UNL     1       6.407   5.251  19.649  0.00  0.00    +0.000 OA
BRANCH   3   4
ATOM      4  C   UNL     1       5.140   5.616  19.115  0.00  0.00    +0.000 C 
BRANCH   4  13
ATOM      5  C   UNL     1       1.406   5.774  20.200  0.00  0.00    +0.000 C 
ATOM      6  C   UNL     1       2.628   4.894  20.486  0.00  0.00    +0.000 C 
ATOM      7  C   UNL     1       2.379   3.916  21.643  0.00  0.00    +0.000 C 
ATOM      8  C   UNL     1       1.422   2.794  21.260  0.00  0.00    +0.000 C 
ATOM      9  C   UNL     1       1.902   2.086  19.998  0.00  0.00    +0.000 C 
ATOM     10  C   UNL     1       2.158   3.067  18.838  0.00  0.00    +0.000 C 
ATOM     11  C   UNL     1       2.536   2.253  17.596  0.00  0.00    +0.000 C 
ATOM     12  N   UNL     1       3.073   4.158  19.277  0.00  0.00    +0.000 N 
ATOM     13  C   UNL     1       4.256   4.469  18.591  0.00  0.00    +0.000 C 
ATOM     14  O   UNL     1       4.663   3.831  17.617  0.00  0.00    +0.000 OA
ENDBRANCH   4  13
ENDBRANCH   3   4
ENDBRANCH   1   3
BRANCH   1  15
ATOM     15  C   UNL     1       7.163   6.216  17.608  0.00  0.00    +0.000 C 
BRANCH  15  16
ATOM     16  N   UNL     1       7.202   5.551  16.315  0.00  0.00    +0.000 N 
ATOM     17  C   UNL     1       6.217   5.732  15.371  0.00  0.00    +0.000 C 
ATOM     18  O   UNL     1       5.239   6.448  15.553  0.00  0.00    +0.000 OA
ATOM     19  H   UNL     1       7.964   4.910  16.147  0.00  0.00    +0.000 HD
BRANCH  17  20
ATOM     20  C   UNL     1       6.366   4.964  14.099  0.00  0.00    +0.000 A 
ATOM     21  C   UNL     1       5.377   4.026  13.776  0.00  0.00    +0.000 A 
ATOM     22  C   UNL     1       5.487   3.256  12.617  0.00  0.00    +0.000 A 
ATOM     23  C   UNL     1       6.582   3.424  11.770  0.00  0.00    +0.000 A 
ATOM     24  C   UNL     1       7.560   4.372  12.072  0.00  0.00    +0.000 A 
ATOM     25  C   UNL     1       7.452   5.146  13.230  0.00  0.00    +0.000 A 
ENDBRANCH  17  20
ENDBRANCH  15  16
ENDBRANCH   1  15
TORSDOF 6
ENDMDL
MODEL 3
REMARK VINA RESULT:      -7.7      1.364      1.917
REMARK  Name = 
REMARK  8 active torsions:
REMARK  status: ('A' for Active; 'I' for Inactive)
REMARK    1  A    between atoms: C_1  and  C_2
REMARK    2  A    between atoms: C_6  and  C_7
REMARK    3  A    between atoms: C_9  and  C_11
REMARK    4  A    between atoms: C_11  and  O_12
REMARK    5  A    between atoms: O_12  and  C_13
REMARK    6  A    between atoms: C_13  and  C_15
REMARK    7  A    between atoms: C_15  and  N_16
REMARK    8  A    between atoms: C_17  and  C_19
REMARK                            x       y       z     vdW  Elec       q    Type
REMARK                         _______ _______ _______ _____ _____    ______ ____
ROOT
ATOM      1  C   UNL     1       7.322   5.474  19.352  0.00  0.00    +0.000 C 
ATOM      2  O   UNL     1       7.998   5.428  20.372  0.00  0.00    +0.000 OA
ENDROOT
BRANCH   1   3
ATOM      3  O   UNL     1       6.215   4.726  19.111  0.00  0.00    +0.000 OA
BRANCH   3   4
ATOM      4  C   UNL     1       4.976   5.420  19.189  0.00  0.00    +0.000 C 
BRANCH   4  13
ATOM      5  C   UNL     1       1.574   5.986  20.994  0.00  0.00    +0.000 C 
ATOM      6  C   UNL     1       2.541   4.821  20.746  0.00  0.00    +0.000 C 
ATOM      7  C   UNL     1       2.177   3.581  21.574  0.00  0.00    +0.000 C 
ATOM      8  C   UNL     1       0.917   2.892  21.065  0.00  0.00    +0.000 C 
ATOM      9  C   UNL     1       1.039   2.580  19.578  0.00  0.00    +0.000 C 
ATOM     10  C   UNL     1       1.409   3.823  18.747  0.00  0.00    +0.000 C 
ATOM     11  C   UNL     1       1.408   3.429  17.267  0.00  0.00    +0.000 C 
ATOM     12  N   UNL     1       2.628   4.473  19.307  0.00  0.00    +0.000 N 
ATOM     13  C   UNL     1       3.762   4.743  18.527  0.00  0.00    +0.000 C 
ATOM     14  O   UNL     1       3.866   4.410  17.344  0.00  0.00    +0.000 OA
ENDBRANCH   4  13
ENDBRANCH   3   4
ENDBRANCH   1   3
BRANCH   1  15
ATOM     15  C   UNL     1       7.675   6.344  18.154  0.00  0.00    +0.000 C 
BRANCH  15  16
ATOM     16  N   UNL     1       7.545   5.642  16.886  0.00  0.00    +0.000 N 
ATOM     17  C   UNL     1       6.576   5.972  15.966  0.00  0.00    +0.000 C 
ATOM     18  O   UNL     1       5.753   6.861  16.150  0.00  0.00    +0.000 OA
ATOM     19  H   UNL     1       8.169   4.866  16.721  0.00  0.00    +0.000 HD
BRANCH  17  20
ATOM     20  C   UNL     1       6.535   5.149  14.721  0.00  0.00    +0.000 A 
ATOM     21  C   UNL     1       7.568   5.310  13.790  0.00  0.00    +0.000 A 
ATOM     22  C   UNL     1       7.558   4.590  12.593  0.00  0.00    +0.000 A 
ATOM     23  C   UNL     1       6.518   3.700  12.324  0.00  0.00    +0.000 A 
ATOM     24  C   UNL     1       5.497   3.517  13.256  0.00  0.00    +0.000 A 
ATOM     25  C   UNL     1       5.505   4.233  14.456  0.00  0.00    +0.000 A 
ENDBRANCH  17  20
ENDBRANCH  15  16
ENDBRANCH   1  15
TORSDOF 6
ENDMDL
MODEL 4
REMARK VINA RESULT:      -7.7      3.507      6.085
REMARK  Name = 
REMARK  8 active torsions:
REMARK  status: ('A' for Active; 'I' for Inactive)
REMARK    1  A    between atoms: C_1  and  C_2
REMARK    2  A    between atoms: C_6  and  C_7
REMARK    3  A    between atoms: C_9  and  C_11
REMARK    4  A    between atoms: C_11  and  O_12
REMARK    5  A    between atoms: O_12  and  C_13
REMARK    6  A    between atoms: C_13  and  C_15
REMARK    7  A    between atoms: C_15  and  N_16
REMARK    8  A    between atoms: C_17  and  C_19
REMARK                            x       y       z     vdW  Elec       q    Type
REMARK                         _______ _______ _______ _____ _____    ______ ____
ROOT
ATOM      1  C   UNL     1       7.678   5.768  19.161  0.00  0.00    +0.000 C 
ATOM      2  O   UNL     1       8.585   4.966  19.341  0.00  0.00    +0.000 OA
ENDROOT
BRANCH   1   3
ATOM      3  O   UNL     1       6.439   5.688  19.711  0.00  0.00    +0.000 OA
BRANCH   3   4
ATOM      4  C   UNL     1       5.382   5.399  18.804  0.00  0.00    +0.000 C 
BRANCH   4  13
ATOM      5  C   UNL     1       4.521   1.946  20.379  0.00  0.00    +0.000 C 
ATOM      6  C   UNL     1       4.093   2.768  19.158  0.00  0.00    +0.000 C 
ATOM      7  C   UNL     1       3.226   1.953  18.187  0.00  0.00    +0.000 C 
ATOM      8  C   UNL     1       1.831   1.689  18.736  0.00  0.00    +0.000 C 
ATOM      9  C   UNL     1       1.161   2.994  19.152  0.00  0.00    +0.000 C 
ATOM     10  C   UNL     1       2.032   3.815  20.123  0.00  0.00    +0.000 C 
ATOM     11  C   UNL     1       1.235   5.049  20.557  0.00  0.00    +0.000 C 
ATOM     12  N   UNL     1       3.393   4.016  19.550  0.00  0.00    +0.000 N 
ATOM     13  C   UNL     1       3.968   5.286  19.405  0.00  0.00    +0.000 C 
ATOM     14  O   UNL     1       3.377   6.333  19.677  0.00  0.00    +0.000 OA
ENDBRANCH   4  13
ENDBRANCH   3   4
ENDBRANCH   1   3
BRANCH   1  15
ATOM     15  C   UNL     1       7.789   6.958  18.218  0.00  0.00    +0.000 C 
BRANCH  15  16
ATOM     16  N   UNL     1       8.602   8.037  18.759  0.00  0.00    +0.000 N 
ATOM     17  C   UNL     1       8.467   9.338  18.330  0.00  0.00    +0.000 C 
ATOM     18  O   UNL     1       7.672   9.677  17.461  0.00  0.00    +0.000 OA
ATOM     19  H   UNL     1       9.307   7.789  19.438  0.00  0.00    +0.000 HD
BRANCH  17  20
ATOM     20  C   UNL     1       9.387  10.339  18.946  0.00  0.00    +0.000 A 
ATOM     21  C   UNL     1      10.368  10.920  18.134  0.00  0.00    +0.000 A 
ATOM     22  C   UNL     1      11.277  11.835  18.670  0.00  0.00    +0.000 A 
ATOM     23  C   UNL     1      11.205  12.181  20.019  0.00  0.00    +0.000 A 
ATOM     24  C   UNL     1      10.216  11.623  20.830  0.00  0.00    +0.000 A 
ATOM     25  C   UNL     1       9.303  10.709  20.297  0.00  0.00    +0.000 A 
ENDBRANCH  17  20
ENDBRANCH  15  16
ENDBRANCH   1  15
TORSDOF 6
ENDMDL
MODEL 5
REMARK VINA RESULT:      -7.6      1.632      1.984
REMARK  Name = 
REMARK  8 active torsions:
REMARK  status: ('A' for Active; 'I' for Inactive)
REMARK    1  A    between atoms: C_1  and  C_2
REMARK    2  A    between atoms: C_6  and  C_7
REMARK    3  A    between atoms: C_9  and  C_11
REMARK    4  A    between atoms: C_11  and  O_12
REMARK    5  A    between atoms: O_12  and  C_13
REMARK    6  A    between atoms: C_13  and  C_15
REMARK    7  A    between atoms: C_15  and  N_16
REMARK    8  A    between atoms: C_17  and  C_19
REMARK                            x       y       z     vdW  Elec       q    Type
REMARK                         _______ _______ _______ _____ _____    ______ ____
ROOT
ATOM      1  C   UNL     1       7.025   5.490  16.816  0.00  0.00    +0.000 C 
ATOM      2  O   UNL     1       7.905   4.639  16.818  0.00  0.00    +0.000 OA
ENDROOT
BRANCH   1   3
ATOM      3  O   UNL     1       6.511   6.090  17.921  0.00  0.00    +0.000 OA
BRANCH   3   4
ATOM      4  C   UNL     1       5.159   5.767  18.221  0.00  0.00    +0.000 C 
BRANCH   4  13
ATOM      5  C   UNL     1       1.623   4.216  17.734  0.00  0.00    +0.000 C 
ATOM      6  C   UNL     1       2.420   4.877  18.865  0.00  0.00    +0.000 C 
ATOM      7  C   UNL     1       1.544   5.177  20.091  0.00  0.00    +0.000 C 
ATOM      8  C   UNL     1       1.152   3.916  20.848  0.00  0.00    +0.000 C 
ATOM      9  C   UNL     1       2.387   3.098  21.206  0.00  0.00    +0.000 C 
ATOM     10  C   UNL     1       3.269   2.799  19.978  0.00  0.00    +0.000 C 
ATOM     11  C   UNL     1       4.422   1.895  20.423  0.00  0.00    +0.000 C 
ATOM     12  N   UNL     1       3.596   4.063  19.260  0.00  0.00    +0.000 N 
ATOM     13  C   UNL     1       4.914   4.444  18.970  0.00  0.00    +0.000 C 
ATOM     14  O   UNL     1       5.901   3.804  19.339  0.00  0.00    +0.000 OA
ENDBRANCH   4  13
ENDBRANCH   3   4
ENDBRANCH   1   3
BRANCH   1  15
ATOM     15  C   UNL     1       6.316   5.957  15.552  0.00  0.00    +0.000 C 
BRANCH  15  16
ATOM     16  N   UNL     1       6.126   4.889  14.582  0.00  0.00    +0.000 N 
ATOM     17  C   UNL     1       6.914   4.776  13.459  0.00  0.00    +0.000 C 
ATOM     18  O   UNL     1       7.814   5.563  13.189  0.00  0.00    +0.000 OA
ATOM     19  H   UNL     1       5.360   4.252  14.739  0.00  0.00    +0.000 HD
BRANCH  17  20
ATOM     20  C   UNL     1       6.589   3.652  12.530  0.00  0.00    +0.000 A 
ATOM     21  C   UNL     1       5.240   3.368  12.287  0.00  0.00    +0.000 A 
ATOM     22  C   UNL     1       4.883   2.305  11.455  0.00  0.00    +0.000 A 
ATOM     23  C   UNL     1       5.871   1.526  10.855  0.00  0.00    +0.000 A 
ATOM     24  C   UNL     1       7.218   1.817  11.074  0.00  0.00    +0.000 A 
ATOM     25  C   UNL     1       7.580   2.881  11.904  0.00  0.00    +0.000 A 
ENDBRANCH  17  20
ENDBRANCH  15  16
ENDBRANCH   1  15
TORSDOF 6
ENDMDL
MODEL 6
REMARK VINA RESULT:      -7.6      0.984      1.451
REMARK  Name = 
REMARK  8 active torsions:
REMARK  status: ('A' for Active; 'I' for Inactive)
REMARK    1  A    between atoms: C_1  and  C_2
REMARK    2  A    between atoms: C_6  and  C_7
REMARK    3  A    between atoms: C_9  and  C_11
REMARK    4  A    between atoms: C_11  and  O_12
REMARK    5  A    between atoms: O_12  and  C_13
REMARK    6  A    between atoms: C_13  and  C_15
REMARK    7  A    between atoms: C_15  and  N_16
REMARK    8  A    between atoms: C_17  and  C_19
REMARK                            x       y       z     vdW  Elec       q    Type
REMARK                         _______ _______ _______ _____ _____    ______ ____
ROOT
ATOM      1  C   UNL     1       7.417   5.768  18.591  0.00  0.00    +0.000 C 
ATOM      2  O   UNL     1       7.719   6.887  18.196  0.00  0.00    +0.000 OA
ENDROOT
BRANCH   1   3
ATOM      3  O   UNL     1       6.682   5.500  19.701  0.00  0.00    +0.000 OA
BRANCH   3   4
ATOM      4  C   UNL     1       5.276   5.417  19.501  0.00  0.00    +0.000 C 
BRANCH   4  13
ATOM      5  C   UNL     1       1.736   5.273  17.889  0.00  0.00    +0.000 C 
ATOM      6  C   UNL     1       2.361   5.019  19.266  0.00  0.00    +0.000 C 
ATOM      7  C   UNL     1       1.298   4.829  20.358  0.00  0.00    +0.000 C 
ATOM      8  C   UNL     1       0.568   3.499  20.233  0.00  0.00    +0.000 C 
ATOM      9  C   UNL     1       1.561   2.343  20.186  0.00  0.00    +0.000 C 
ATOM     10  C   UNL     1       2.631   2.535  19.094  0.00  0.00    +0.000 C 
ATOM     11  C   UNL     1       3.514   1.283  19.062  0.00  0.00    +0.000 C 
ATOM     12  N   UNL     1       3.291   3.863  19.246  0.00  0.00    +0.000 N 
ATOM     13  C   UNL     1       4.682   4.005  19.349  0.00  0.00    +0.000 C 
ATOM     14  O   UNL     1       5.460   3.049  19.387  0.00  0.00    +0.000 OA
ENDBRANCH   4  13
ENDBRANCH   3   4
ENDBRANCH   1   3
BRANCH   1  15
ATOM     15  C   UNL     1       7.894   4.488  17.920  0.00  0.00    +0.000 C 
BRANCH  15  16
ATOM     16  N   UNL     1       7.839   4.555  16.467  0.00  0.00    +0.000 N 
ATOM     17  C   UNL     1       6.708   4.210  15.763  0.00  0.00    +0.000 C 
ATOM     18  O   UNL     1       5.680   3.814  16.300  0.00  0.00    +0.000 OA
ATOM     19  H   UNL     1       8.684   4.824  15.985  0.00  0.00    +0.000 HD
BRANCH  17  20
ATOM     20  C   UNL     1       6.800   4.294  14.275  0.00  0.00    +0.000 A 
ATOM     21  C   UNL     1       7.711   5.202  13.722  0.00  0.00    +0.000 A 
ATOM     22  C   UNL     1       7.810   5.345  12.337  0.00  0.00    +0.000 A 
ATOM     23  C   UNL     1       7.005   4.576  11.496  0.00  0.00    +0.000 A 
ATOM     24  C   UNL     1       6.111   3.653  12.039  0.00  0.00    +0.000 A 
ATOM     25  C   UNL     1       6.011   3.505  13.425  0.00  0.00    +0.000 A 
ENDBRANCH  17  20
ENDBRANCH  15  16
ENDBRANCH   1  15
TORSDOF 6
ENDMDL
MODEL 7
REMARK VINA RESULT:      -7.5      1.740      2.822
REMARK  Name = 
REMARK  8 active torsions:
REMARK  status: ('A' for Active; 'I' for Inactive)
REMARK    1  A    between atoms: C_1  and  C_2
REMARK    2  A    between atoms: C_6  and  C_7
REMARK    3  A    between atoms: C_9  and  C_11
REMARK    4  A    between atoms: C_11  and  O_12
REMARK    5  A    between atoms: O_12  and  C_13
REMARK    6  A    between atoms: C_13  and  C_15
REMARK    7  A    between atoms: C_15  and  N_16
REMARK    8  A    between atoms: C_17  and  C_19
REMARK                            x       y       z     vdW  Elec       q    Type
REMARK                         _______ _______ _______ _____ _____    ______ ____
ROOT
ATOM      1  C   UNL     1       7.226   4.878  17.306  0.00  0.00    +0.000 C 
ATOM      2  O   UNL     1       8.213   4.170  17.457  0.00  0.00    +0.000 OA
ENDROOT
BRANCH   1   3
ATOM      3  O   UNL     1       6.273   5.106  18.247  0.00  0.00    +0.000 OA
BRANCH   3   4
ATOM      4  C   UNL     1       4.979   5.417  17.747  0.00  0.00    +0.000 C 
BRANCH   4  13
ATOM      5  C   UNL     1       4.395   2.147  19.775  0.00  0.00    +0.000 C 
ATOM      6  C   UNL     1       3.660   2.953  18.697  0.00  0.00    +0.000 C 
ATOM      7  C   UNL     1       2.457   2.191  18.124  0.00  0.00    +0.000 C 
ATOM      8  C   UNL     1       1.302   2.099  19.112  0.00  0.00    +0.000 C 
ATOM      9  C   UNL     1       0.919   3.485  19.621  0.00  0.00    +0.000 C 
ATOM     10  C   UNL     1       2.127   4.253  20.192  0.00  0.00    +0.000 C 
ATOM     11  C   UNL     1       1.623   5.582  20.764  0.00  0.00    +0.000 C 
ATOM     12  N   UNL     1       3.236   4.284  19.197  0.00  0.00    +0.000 N 
ATOM     13  C   UNL     1       3.836   5.479  18.778  0.00  0.00    +0.000 C 
ATOM     14  O   UNL     1       3.458   6.594  19.145  0.00  0.00    +0.000 OA
ENDBRANCH   4  13
ENDBRANCH   3   4
ENDBRANCH   1   3
BRANCH   1  15
ATOM     15  C   UNL     1       6.880   5.562  15.991  0.00  0.00    +0.000 C 
BRANCH  15  16
ATOM     16  N   UNL     1       6.470   4.625  14.955  0.00  0.00    +0.000 N 
ATOM     17  C   UNL     1       6.960   4.697  13.671  0.00  0.00    +0.000 C 
ATOM     18  O   UNL     1       7.758   5.552  13.306  0.00  0.00    +0.000 OA
ATOM     19  H   UNL     1       5.772   3.940  15.202  0.00  0.00    +0.000 HD
BRANCH  17  20
ATOM     20  C   UNL     1       6.430   3.694  12.701  0.00  0.00    +0.000 A 
ATOM     21  C   UNL     1       7.345   2.853  12.055  0.00  0.00    +0.000 A 
ATOM     22  C   UNL     1       6.904   1.923  11.112  0.00  0.00    +0.000 A 
ATOM     23  C   UNL     1       5.545   1.821  10.815  0.00  0.00    +0.000 A 
ATOM     24  C   UNL     1       4.624   2.639  11.471  0.00  0.00    +0.000 A 
ATOM     25  C   UNL     1       5.061   3.570  12.417  0.00  0.00    +0.000 A 
ENDBRANCH  17  20
ENDBRANCH  15  16
ENDBRANCH   1  15
TORSDOF 6
ENDMDL
MODEL 8
REMARK VINA RESULT:      -7.5      3.270      5.710
REMARK  Name = 
REMARK  8 active torsions:
REMARK  status: ('A' for Active; 'I' for Inactive)
REMARK    1  A    between atoms: C_1  and  C_2
REMARK    2  A    between atoms: C_6  and  C_7
REMARK    3  A    between atoms: C_9  and  C_11
REMARK    4  A    between atoms: C_11  and  O_12
REMARK    5  A    between atoms: O_12  and  C_13
REMARK    6  A    between atoms: C_13  and  C_15
REMARK    7  A    between atoms: C_15  and  N_16
REMARK    8  A    between atoms: C_17  and  C_19
REMARK                            x       y       z     vdW  Elec       q    Type
REMARK                         _______ _______ _______ _____ _____    ______ ____
ROOT
ATOM      1  C   UNL     1       7.551   5.664  19.217  0.00  0.00    +0.000 C 
ATOM      2  O   UNL     1       7.997   5.650  20.357  0.00  0.00    +0.000 OA
ENDROOT
BRANCH   1   3
ATOM      3  O   UNL     1       6.860   4.652  18.633  0.00  0.00    +0.000 OA
BRANCH   3   4
ATOM      4  C   UNL     1       5.765   5.047  17.816  0.00  0.00    +0.000 C 
BRANCH   4  13
ATOM      5  C   UNL     1       2.292   6.759  18.203  0.00  0.00    +0.000 C 
ATOM      6  C   UNL     1       3.185   5.820  19.023  0.00  0.00    +0.000 C 
ATOM      7  C   UNL     1       2.670   5.638  20.458  0.00  0.00    +0.000 C 
ATOM      8  C   UNL     1       1.404   4.794  20.518  0.00  0.00    +0.000 C 
ATOM      9  C   UNL     1       1.610   3.463  19.804  0.00  0.00    +0.000 C 
ATOM     10  C   UNL     1       2.132   3.645  18.365  0.00  0.00    +0.000 C 
ATOM     11  C   UNL     1       2.210   2.264  17.705  0.00  0.00    +0.000 C 
ATOM     12  N   UNL     1       3.351   4.501  18.363  0.00  0.00    +0.000 N 
ATOM     13  C   UNL     1       4.556   4.094  17.773  0.00  0.00    +0.000 C 
ATOM     14  O   UNL     1       4.722   2.981  17.269  0.00  0.00    +0.000 OA
ENDBRANCH   4  13
ENDBRANCH   3   4
ENDBRANCH   1   3
BRANCH   1  15
ATOM     15  C   UNL     1       7.775   6.814  18.245  0.00  0.00    +0.000 C 
BRANCH  15  16
ATOM     16  N   UNL     1       8.575   7.889  18.814  0.00  0.00    +0.000 N 
ATOM     17  C   UNL     1       8.442   9.195  18.398  0.00  0.00    +0.000 C 
ATOM     18  O   UNL     1       7.661   9.542  17.520  0.00  0.00    +0.000 OA
ATOM     19  H   UNL     1       9.269   7.635  19.501  0.00  0.00    +0.000 HD
BRANCH  17  20
ATOM     20  C   UNL     1       9.348  10.192  19.042  0.00  0.00    +0.000 A 
ATOM     21  C   UNL     1       9.110  10.531  20.380  0.00  0.00    +0.000 A 
ATOM     22  C   UNL     1       9.905  11.485  21.017  0.00  0.00    +0.000 A 
ATOM     23  C   UNL     1      10.948  12.099  20.325  0.00  0.00    +0.000 A 
ATOM     24  C   UNL     1      11.207  11.750  18.999  0.00  0.00    +0.000 A 
ATOM     25  C   UNL     1      10.414  10.794  18.358  0.00  0.00    +0.000 A 
ENDBRANCH  17  20
ENDBRANCH  15  16
ENDBRANCH   1  15
TORSDOF 6
ENDMDL
MODEL 9
REMARK VINA RESULT:      -7.4      1.562      2.025
REMARK  Name = 
REMARK  8 active torsions:
REMARK  status: ('A' for Active; 'I' for Inactive)
REMARK    1  A    between atoms: C_1  and  C_2
REMARK    2  A    between atoms: C_6  and  C_7
REMARK    3  A    between atoms: C_9  and  C_11
REMARK    4  A    between atoms: C_11  and  O_12
REMARK    5  A    between atoms: O_12  and  C_13
REMARK    6  A    between atoms: C_13  and  C_15
REMARK    7  A    between atoms: C_15  and  N_16
REMARK    8  A    between atoms: C_17  and  C_19
REMARK                            x       y       z     vdW  Elec       q    Type
REMARK                         _______ _______ _______ _____ _____    ______ ____
ROOT
ATOM      1  C   UNL     1       6.838   5.814  17.017  0.00  0.00    +0.000 C 
ATOM      2  O   UNL     1       7.757   5.004  17.020  0.00  0.00    +0.000 OA
ENDROOT
BRANCH   1   3
ATOM      3  O   UNL     1       6.216   6.298  18.123  0.00  0.00    +0.000 OA
BRANCH   3   4
ATOM      4  C   UNL     1       4.905   5.800  18.358  0.00  0.00    +0.000 C 
BRANCH   4  13
ATOM      5  C   UNL     1       1.510   3.953  17.895  0.00  0.00    +0.000 C 
ATOM      6  C   UNL     1       2.276   4.641  19.032  0.00  0.00    +0.000 C 
ATOM      7  C   UNL     1       1.411   4.815  20.289  0.00  0.00    +0.000 C 
ATOM      8  C   UNL     1       1.154   3.495  21.005  0.00  0.00    +0.000 C 
ATOM      9  C   UNL     1       2.467   2.779  21.301  0.00  0.00    +0.000 C 
ATOM     10  C   UNL     1       3.338   2.609  20.041  0.00  0.00    +0.000 C 
ATOM     11  C   UNL     1       4.580   1.796  20.422  0.00  0.00    +0.000 C 
ATOM     12  N   UNL     1       3.531   3.923  19.365  0.00  0.00    +0.000 N 
ATOM     13  C   UNL     1       4.801   4.433  19.060  0.00  0.00    +0.000 C 
ATOM     14  O   UNL     1       5.851   3.872  19.379  0.00  0.00    +0.000 OA
ENDBRANCH   4  13
ENDBRANCH   3   4
ENDBRANCH   1   3
BRANCH   1  15
ATOM     15  C   UNL     1       6.200   6.352  15.744  0.00  0.00    +0.000 C 
BRANCH  15  16
ATOM     16  N   UNL     1       5.921   5.311  14.766  0.00  0.00    +0.000 N 
ATOM     17  C   UNL     1       6.828   4.964  13.791  0.00  0.00    +0.000 C 
ATOM     18  O   UNL     1       7.918   5.509  13.666  0.00  0.00    +0.000 OA
ATOM     19  H   UNL     1       5.011   4.876  14.801  0.00  0.00    +0.000 HD
BRANCH  17  20
ATOM     20  C   UNL     1       6.399   3.902  12.833  0.00  0.00    +0.000 A 
ATOM     21  C   UNL     1       7.393   3.151  12.193  0.00  0.00    +0.000 A 
ATOM     22  C   UNL     1       7.047   2.171  11.261  0.00  0.00    +0.000 A 
ATOM     23  C   UNL     1       5.705   1.929  10.970  0.00  0.00    +0.000 A 
ATOM     24  C   UNL     1       4.707   2.656  11.620  0.00  0.00    +0.000 A 
ATOM     25  C   UNL     1       5.050   3.637  12.555  0.00  0.00    +0.000 A 
ENDBRANCH  17  20
ENDBRANCH  15  16
ENDBRANCH   1  15
TORSDOF 6
ENDMDL
