MODEL 1
REMARK VINA RESULT:      -6.4      0.000      0.000
REMARK  Name = 
REMARK  15 active torsions:
REMARK  status: ('A' for Active; 'I' for Inactive)
REMARK    1  A    between atoms: C_1  and  C_2
REMARK    2  A    between atoms: C_2  and  C_3
REMARK    3  A    between atoms: C_3  and  C_4
REMARK    4  A    between atoms: C_4  and  C_5
REMARK    5  A    between atoms: C_5  and  C_6
REMARK    6  A    between atoms: C_6  and  C_7
REMARK    7  A    between atoms: C_7  and  C_8
REMARK    8  A    between atoms: C_8  and  C_9
REMARK    9  A    between atoms: C_9  and  C_10
REMARK   10  A    between atoms: C_10  and  C_11
REMARK   11  A    between atoms: N_13  and  C_14
REMARK   12  A    between atoms: C_14  and  C_15
REMARK   13  A    between atoms: C_18  and  O_19
REMARK   14  A    between atoms: C_20  and  O_21
REMARK   15  A    between atoms: O_21  and  C_22
REMARK                            x       y       z     vdW  Elec       q    Type
REMARK                         _______ _______ _______ _____ _____    ______ ____
ROOT
ATOM      1  C   UNL     1       6.527   4.967  16.841  0.00  0.00    +0.000 C 
ATOM      2  O   UNL     1       6.214   6.126  16.578  0.00  0.00    +0.000 OA
ATOM      3  N   UNL     1       6.393   4.425  18.095  0.00  0.00    +0.000 N 
ATOM      4  H   UNL     1       6.656   3.463  18.260  0.00  0.00    +0.000 HD
ENDROOT
BRANCH   1   5
ATOM      5  C   UNL     1       7.079   4.004  15.806  0.00  0.00    +0.000 C 
BRANCH   5   6
ATOM      6  C   UNL     1       6.281   4.102  14.509  0.00  0.00    +0.000 C 
BRANCH   6   7
ATOM      7  C   UNL     1       7.004   4.909  13.435  0.00  0.00    +0.000 C 
BRANCH   7   8
ATOM      8  C   UNL     1       6.745   4.305  12.056  0.00  0.00    +0.000 C 
BRANCH   8   9
ATOM      9  C   UNL     1       6.530   2.798  12.149  0.00  0.00    +0.000 C 
BRANCH   9  10
ATOM     10  C   UNL     1       5.245   2.387  11.435  0.00  0.00    +0.000 C 
BRANCH  10  11
ATOM     11  C   UNL     1       4.249   3.544  11.409  0.00  0.00    +0.000 C 
BRANCH  11  12
ATOM     12  C   UNL     1       3.028   3.191  10.566  0.00  0.00    +0.000 C 
BRANCH  12  14
ATOM     13  C   UNL     1       2.134   5.041   9.124  0.00  0.00    +0.000 C 
ATOM     14  C   UNL     1       3.093   3.866   9.197  0.00  0.00    +0.000 C 
ENDBRANCH  12  14
ENDBRANCH  11  12
ENDBRANCH  10  11
ENDBRANCH   9  10
ENDBRANCH   8   9
ENDBRANCH   7   8
ENDBRANCH   6   7
ENDBRANCH   5   6
ENDBRANCH   1   5
BRANCH   3  15
ATOM     15  C   UNL     1       5.821   5.177  19.187  0.00  0.00    +0.000 C 
BRANCH  15  16
ATOM     16  C   UNL     1       4.468   4.643  19.564  0.00  0.00    +0.000 A 
ATOM     17  C   UNL     1       4.250   3.263  19.595  0.00  0.00    +0.000 A 
ATOM     18  C   UNL     1       3.005   2.756  19.968  0.00  0.00    +0.000 A 
ATOM     19  C   UNL     1       1.960   3.625  20.297  0.00  0.00    +0.000 A 
ATOM     20  C   UNL     1       2.149   5.010  20.256  0.00  0.00    +0.000 A 
ATOM     21  C   UNL     1       3.408   5.504  19.881  0.00  0.00    +0.000 A 
BRANCH  19  22
ATOM     22  O   UNL     1       0.759   3.075  20.656  0.00  0.00    +0.000 OA
ATOM     23  H   UNL     1       0.795   2.116  20.520  0.00  0.00    +0.000 HD
ENDBRANCH  19  22
BRANCH  20  24
ATOM     24  O   UNL     1       1.251   6.001  20.543  0.00  0.00    +0.000 OA
ATOM     25  C   UNL     1       1.759   7.288  20.868  0.00  0.00    +0.000 C 
ENDBRANCH  20  24
ENDBRANCH  15  16
ENDBRANCH   3  15
TORSDOF 13
ENDMDL
MODEL 2
REMARK VINA RESULT:      -6.4      3.609      6.131
REMARK  Name = 
REMARK  15 active torsions:
REMARK  status: ('A' for Active; 'I' for Inactive)
REMARK    1  A    between atoms: C_1  and  C_2
REMARK    2  A    between atoms: C_2  and  C_3
REMARK    3  A    between atoms: C_3  and  C_4
REMARK    4  A    between atoms: C_4  and  C_5
REMARK    5  A    between atoms: C_5  and  C_6
REMARK    6  A    between atoms: C_6  and  C_7
REMARK    7  A    between atoms: C_7  and  C_8
REMARK    8  A    between atoms: C_8  and  C_9
REMARK    9  A    between atoms: C_9  and  C_10
REMARK   10  A    between atoms: C_10  and  C_11
REMARK   11  A    between atoms: N_13  and  C_14
REMARK   12  A    between atoms: C_14  and  C_15
REMARK   13  A    between atoms: C_18  and  O_19
REMARK   14  A    between atoms: C_20  and  O_21
REMARK   15  A    between atoms: O_21  and  C_22
REMARK                            x       y       z     vdW  Elec       q    Type
REMARK                         _______ _______ _______ _____ _____    ______ ____
ROOT
ATOM      1  C   UNL     1       2.693   3.760  19.232  0.00  0.00    +0.000 C 
ATOM      2  O   UNL     1       1.515   3.598  18.922  0.00  0.00    +0.000 OA
ATOM      3  N   UNL     1       3.121   4.795  20.026  0.00  0.00    +0.000 N 
ATOM      4  H   UNL     1       4.100   4.881  20.261  0.00  0.00    +0.000 HD
ENDROOT
BRANCH   1   5
ATOM      5  C   UNL     1       3.801   2.824  18.787  0.00  0.00    +0.000 C 
BRANCH   5   6
ATOM      6  C   UNL     1       3.927   2.834  17.267  0.00  0.00    +0.000 C 
BRANCH   6   7
ATOM      7  C   UNL     1       4.498   4.144  16.733  0.00  0.00    +0.000 C 
BRANCH   7   8
ATOM      8  C   UNL     1       5.640   3.865  15.757  0.00  0.00    +0.000 C 
BRANCH   8   9
ATOM      9  C   UNL     1       6.852   4.737  16.066  0.00  0.00    +0.000 C 
BRANCH   9  10
ATOM     10  C   UNL     1       7.187   4.693  17.555  0.00  0.00    +0.000 C 
BRANCH  10  11
ATOM     11  C   UNL     1       6.801   6.004  18.234  0.00  0.00    +0.000 C 
BRANCH  11  12
ATOM     12  C   UNL     1       7.415   7.195  17.506  0.00  0.00    +0.000 C 
BRANCH  12  14
ATOM     13  C   UNL     1       8.362   9.452  18.064  0.00  0.00    +0.000 C 
ATOM     14  C   UNL     1       8.350   7.978  18.425  0.00  0.00    +0.000 C 
ENDBRANCH  12  14
ENDBRANCH  11  12
ENDBRANCH  10  11
ENDBRANCH   9  10
ENDBRANCH   8   9
ENDBRANCH   7   8
ENDBRANCH   6   7
ENDBRANCH   5   6
ENDBRANCH   1   5
BRANCH   3  15
ATOM     15  C   UNL     1       2.192   5.745  20.595  0.00  0.00    +0.000 C 
BRANCH  15  16
ATOM     16  C   UNL     1       2.120   6.996  19.766  0.00  0.00    +0.000 A 
ATOM     17  C   UNL     1       2.753   7.042  18.520  0.00  0.00    +0.000 A 
ATOM     18  C   UNL     1       2.670   8.189  17.731  0.00  0.00    +0.000 A 
ATOM     19  C   UNL     1       1.970   9.310  18.188  0.00  0.00    +0.000 A 
ATOM     20  C   UNL     1       1.345   9.294  19.439  0.00  0.00    +0.000 A 
ATOM     21  C   UNL     1       1.434   8.132  20.219  0.00  0.00    +0.000 A 
BRANCH  19  22
ATOM     22  O   UNL     1       1.921  10.410  17.375  0.00  0.00    +0.000 OA
ATOM     23  H   UNL     1       2.410  10.224  16.559  0.00  0.00    +0.000 HD
ENDBRANCH  19  22
BRANCH  20  24
ATOM     24  O   UNL     1       0.622  10.287  20.042  0.00  0.00    +0.000 OA
ATOM     25  C   UNL     1      -0.702  10.522  19.583  0.00  0.00    +0.000 C 
ENDBRANCH  20  24
ENDBRANCH  15  16
ENDBRANCH   3  15
TORSDOF 13
ENDMDL
MODEL 3
REMARK VINA RESULT:      -6.4      4.578      8.010
REMARK  Name = 
REMARK  15 active torsions:
REMARK  status: ('A' for Active; 'I' for Inactive)
REMARK    1  A    between atoms: C_1  and  C_2
REMARK    2  A    between atoms: C_2  and  C_3
REMARK    3  A    between atoms: C_3  and  C_4
REMARK    4  A    between atoms: C_4  and  C_5
REMARK    5  A    between atoms: C_5  and  C_6
REMARK    6  A    between atoms: C_6  and  C_7
REMARK    7  A    between atoms: C_7  and  C_8
REMARK    8  A    between atoms: C_8  and  C_9
REMARK    9  A    between atoms: C_9  and  C_10
REMARK   10  A    between atoms: C_10  and  C_11
REMARK   11  A    between atoms: N_13  and  C_14
REMARK   12  A    between atoms: C_14  and  C_15
REMARK   13  A    between atoms: C_18  and  O_19
REMARK   14  A    between atoms: C_20  and  O_21
REMARK   15  A    between atoms: O_21  and  C_22
REMARK                            x       y       z     vdW  Elec       q    Type
REMARK                         _______ _______ _______ _____ _____    ______ ____
ROOT
ATOM      1  C   UNL     1       1.954   8.011  19.102  0.00  0.00    +0.000 C 
ATOM      2  O   UNL     1       1.976   7.620  20.266  0.00  0.00    +0.000 OA
ATOM      3  N   UNL     1       1.409   9.216  18.730  0.00  0.00    +0.000 N 
ATOM      4  H   UNL     1       1.422   9.498  17.760  0.00  0.00    +0.000 HD
ENDROOT
BRANCH   1   5
ATOM      5  C   UNL     1       2.539   7.216  17.950  0.00  0.00    +0.000 C 
BRANCH   5   6
ATOM      6  C   UNL     1       3.702   6.355  18.435  0.00  0.00    +0.000 C 
BRANCH   6   7
ATOM      7  C   UNL     1       4.666   5.985  17.312  0.00  0.00    +0.000 C 
BRANCH   7   8
ATOM      8  C   UNL     1       4.452   4.531  16.890  0.00  0.00    +0.000 C 
BRANCH   8   9
ATOM      9  C   UNL     1       3.939   3.692  18.055  0.00  0.00    +0.000 C 
BRANCH   9  10
ATOM     10  C   UNL     1       2.732   2.858  17.635  0.00  0.00    +0.000 C 
BRANCH  10  11
ATOM     11  C   UNL     1       1.431   3.571  17.996  0.00  0.00    +0.000 C 
BRANCH  11  12
ATOM     12  C   UNL     1       0.927   3.123  19.364  0.00  0.00    +0.000 C 
BRANCH  12  14
ATOM     13  C   UNL     1       2.152   3.794  21.450  0.00  0.00    +0.000 C 
ATOM     14  C   UNL     1       1.131   4.217  20.409  0.00  0.00    +0.000 C 
ENDBRANCH  12  14
ENDBRANCH  11  12
ENDBRANCH  10  11
ENDBRANCH   9  10
ENDBRANCH   8   9
ENDBRANCH   7   8
ENDBRANCH   6   7
ENDBRANCH   5   6
ENDBRANCH   1   5
BRANCH   3  15
ATOM     15  C   UNL     1       0.867  10.133  19.705  0.00  0.00    +0.000 C 
BRANCH  15  16
ATOM     16  C   UNL     1      -0.487  10.632  19.285  0.00  0.00    +0.000 A 
ATOM     17  C   UNL     1      -1.110  11.648  20.015  0.00  0.00    +0.000 A 
ATOM     18  C   UNL     1      -2.355  12.137  19.620  0.00  0.00    +0.000 A 
ATOM     19  C   UNL     1      -2.999  11.601  18.501  0.00  0.00    +0.000 A 
ATOM     20  C   UNL     1      -2.405  10.570  17.766  0.00  0.00    +0.000 A 
ATOM     21  C   UNL     1      -1.151  10.092  18.174  0.00  0.00    +0.000 A 
BRANCH  19  22
ATOM     22  O   UNL     1      -4.220  12.115  18.157  0.00  0.00    +0.000 OA
ATOM     23  H   UNL     1      -4.224  13.069  18.333  0.00  0.00    +0.000 HD
ENDBRANCH  19  22
BRANCH  20  24
ATOM     24  O   UNL     1      -2.883   9.931  16.654  0.00  0.00    +0.000 OA
ATOM     25  C   UNL     1      -2.760  10.590  15.401  0.00  0.00    +0.000 C 
ENDBRANCH  20  24
ENDBRANCH  15  16
ENDBRANCH   3  15
TORSDOF 13
ENDMDL
MODEL 4
REMARK VINA RESULT:      -6.3      5.703      8.785
REMARK  Name = 
REMARK  15 active torsions:
REMARK  status: ('A' for Active; 'I' for Inactive)
REMARK    1  A    between atoms: C_1  and  C_2
REMARK    2  A    between atoms: C_2  and  C_3
REMARK    3  A    between atoms: C_3  and  C_4
REMARK    4  A    between atoms: C_4  and  C_5
REMARK    5  A    between atoms: C_5  and  C_6
REMARK    6  A    between atoms: C_6  and  C_7
REMARK    7  A    between atoms: C_7  and  C_8
REMARK    8  A    between atoms: C_8  and  C_9
REMARK    9  A    between atoms: C_9  and  C_10
REMARK   10  A    between atoms: C_10  and  C_11
REMARK   11  A    between atoms: N_13  and  C_14
REMARK   12  A    between atoms: C_14  and  C_15
REMARK   13  A    between atoms: C_18  and  O_19
REMARK   14  A    between atoms: C_20  and  O_21
REMARK   15  A    between atoms: O_21  and  C_22
REMARK                            x       y       z     vdW  Elec       q    Type
REMARK                         _______ _______ _______ _____ _____    ______ ____
ROOT
ATOM      1  C   UNL     1       7.817   7.728  17.824  0.00  0.00    +0.000 C 
ATOM      2  O   UNL     1       8.322   7.074  18.733  0.00  0.00    +0.000 OA
ATOM      3  N   UNL     1       7.102   7.155  16.801  0.00  0.00    +0.000 N 
ATOM      4  H   UNL     1       6.698   7.737  16.080  0.00  0.00    +0.000 HD
ENDROOT
BRANCH   1   5
ATOM      5  C   UNL     1       7.915   9.240  17.740  0.00  0.00    +0.000 C 
BRANCH   5   6
ATOM      6  C   UNL     1       8.919   9.766  18.762  0.00  0.00    +0.000 C 
BRANCH   6   7
ATOM      7  C   UNL     1       9.806  10.871  18.197  0.00  0.00    +0.000 C 
BRANCH   7   8
ATOM      8  C   UNL     1       8.971  12.111  17.883  0.00  0.00    +0.000 C 
BRANCH   8   9
ATOM      9  C   UNL     1       9.793  13.384  18.052  0.00  0.00    +0.000 C 
BRANCH   9  10
ATOM     10  C   UNL     1      10.686  13.294  19.286  0.00  0.00    +0.000 C 
BRANCH  10  11
ATOM     11  C   UNL     1      10.359  14.414  20.271  0.00  0.00    +0.000 C 
BRANCH  11  12
ATOM     12  C   UNL     1       9.823  13.846  21.581  0.00  0.00    +0.000 C 
BRANCH  12  14
ATOM     13  C   UNL     1       8.497  11.801  22.184  0.00  0.00    +0.000 C 
ATOM     14  C   UNL     1       9.768  12.321  21.536  0.00  0.00    +0.000 C 
ENDBRANCH  12  14
ENDBRANCH  11  12
ENDBRANCH  10  11
ENDBRANCH   9  10
ENDBRANCH   8   9
ENDBRANCH   7   8
ENDBRANCH   6   7
ENDBRANCH   5   6
ENDBRANCH   1   5
BRANCH   3  15
ATOM     15  C   UNL     1       6.852   5.734  16.757  0.00  0.00    +0.000 C 
BRANCH  15  16
ATOM     16  C   UNL     1       5.423   5.423  17.102  0.00  0.00    +0.000 A 
ATOM     17  C   UNL     1       4.897   4.160  16.814  0.00  0.00    +0.000 A 
ATOM     18  C   UNL     1       3.579   3.853  17.153  0.00  0.00    +0.000 A 
ATOM     19  C   UNL     1       2.768   4.812  17.766  0.00  0.00    +0.000 A 
ATOM     20  C   UNL     1       3.265   6.088  18.046  0.00  0.00    +0.000 A 
ATOM     21  C   UNL     1       4.594   6.381  17.703  0.00  0.00    +0.000 A 
BRANCH  19  22
ATOM     22  O   UNL     1       1.482   4.459  18.077  0.00  0.00    +0.000 OA
ATOM     23  H   UNL     1       0.970   4.370  17.258  0.00  0.00    +0.000 HD
ENDBRANCH  19  22
BRANCH  20  24
ATOM     24  O   UNL     1       2.623   7.143  18.637  0.00  0.00    +0.000 OA
ATOM     25  C   UNL     1       2.292   8.262  17.827  0.00  0.00    +0.000 C 
ENDBRANCH  20  24
ENDBRANCH  15  16
ENDBRANCH   3  15
TORSDOF 13
ENDMDL
MODEL 5
REMARK VINA RESULT:      -6.3      4.610      6.622
REMARK  Name = 
REMARK  15 active torsions:
REMARK  status: ('A' for Active; 'I' for Inactive)
REMARK    1  A    between atoms: C_1  and  C_2
REMARK    2  A    between atoms: C_2  and  C_3
REMARK    3  A    between atoms: C_3  and  C_4
REMARK    4  A    between atoms: C_4  and  C_5
REMARK    5  A    between atoms: C_5  and  C_6
REMARK    6  A    between atoms: C_6  and  C_7
REMARK    7  A    between atoms: C_7  and  C_8
REMARK    8  A    between atoms: C_8  and  C_9
REMARK    9  A    between atoms: C_9  and  C_10
REMARK   10  A    between atoms: C_10  and  C_11
REMARK   11  A    between atoms: N_13  and  C_14
REMARK   12  A    between atoms: C_14  and  C_15
REMARK   13  A    between atoms: C_18  and  O_19
REMARK   14  A    between atoms: C_20  and  O_21
REMARK   15  A    between atoms: O_21  and  C_22
REMARK                            x       y       z     vdW  Elec       q    Type
REMARK                         _______ _______ _______ _____ _____    ______ ____
ROOT
ATOM      1  C   UNL     1       4.961   6.536  17.022  0.00  0.00    +0.000 C 
ATOM      2  O   UNL     1       5.046   6.826  15.831  0.00  0.00    +0.000 OA
ATOM      3  N   UNL     1       3.999   7.060  17.850  0.00  0.00    +0.000 N 
ATOM      4  H   UNL     1       3.964   6.785  18.822  0.00  0.00    +0.000 HD
ENDROOT
BRANCH   1   5
ATOM      5  C   UNL     1       5.896   5.555  17.704  0.00  0.00    +0.000 C 
BRANCH   5   6
ATOM      6  C   UNL     1       5.098   4.517  18.488  0.00  0.00    +0.000 C 
BRANCH   6   7
ATOM      7  C   UNL     1       3.929   3.950  17.689  0.00  0.00    +0.000 C 
BRANCH   7   8
ATOM      8  C   UNL     1       3.846   2.435  17.876  0.00  0.00    +0.000 C 
BRANCH   8   9
ATOM      9  C   UNL     1       2.396   1.971  17.955  0.00  0.00    +0.000 C 
BRANCH   9  10
ATOM     10  C   UNL     1       1.456   3.155  18.165  0.00  0.00    +0.000 C 
BRANCH  10  11
ATOM     11  C   UNL     1       0.725   3.034  19.500  0.00  0.00    +0.000 C 
BRANCH  11  12
ATOM     12  C   UNL     1       0.948   4.275  20.357  0.00  0.00    +0.000 C 
BRANCH  12  14
ATOM     13  C   UNL     1       2.506   2.790  21.650  0.00  0.00    +0.000 C 
ATOM     14  C   UNL     1       2.274   4.190  21.110  0.00  0.00    +0.000 C 
ENDBRANCH  12  14
ENDBRANCH  11  12
ENDBRANCH  10  11
ENDBRANCH   9  10
ENDBRANCH   8   9
ENDBRANCH   7   8
ENDBRANCH   6   7
ENDBRANCH   5   6
ENDBRANCH   1   5
BRANCH   3  15
ATOM     15  C   UNL     1       2.984   7.960  17.355  0.00  0.00    +0.000 C 
BRANCH  15  16
ATOM     16  C   UNL     1       2.089   8.433  18.465  0.00  0.00    +0.000 A 
ATOM     17  C   UNL     1       2.101   7.772  19.696  0.00  0.00    +0.000 A 
ATOM     18  C   UNL     1       1.293   8.219  20.743  0.00  0.00    +0.000 A 
ATOM     19  C   UNL     1       0.451   9.320  20.561  0.00  0.00    +0.000 A 
ATOM     20  C   UNL     1       0.407   9.985  19.333  0.00  0.00    +0.000 A 
ATOM     21  C   UNL     1       1.228   9.527  18.291  0.00  0.00    +0.000 A 
BRANCH  19  22
ATOM     22  O   UNL     1      -0.322   9.716  21.620  0.00  0.00    +0.000 OA
ATOM     23  H   UNL     1      -1.089   9.126  21.692  0.00  0.00    +0.000 HD
ENDBRANCH  19  22
BRANCH  20  24
ATOM     24  O   UNL     1      -0.347  11.070  18.978  0.00  0.00    +0.000 OA
ATOM     25  C   UNL     1       0.153  12.363  19.292  0.00  0.00    +0.000 C 
ENDBRANCH  20  24
ENDBRANCH  15  16
ENDBRANCH   3  15
TORSDOF 13
ENDMDL
MODEL 6
REMARK VINA RESULT:      -6.3      3.105      7.835
REMARK  Name = 
REMARK  15 active torsions:
REMARK  status: ('A' for Active; 'I' for Inactive)
REMARK    1  A    between atoms: C_1  and  C_2
REMARK    2  A    between atoms: C_2  and  C_3
REMARK    3  A    between atoms: C_3  and  C_4
REMARK    4  A    between atoms: C_4  and  C_5
REMARK    5  A    between atoms: C_5  and  C_6
REMARK    6  A    between atoms: C_6  and  C_7
REMARK    7  A    between atoms: C_7  and  C_8
REMARK    8  A    between atoms: C_8  and  C_9
REMARK    9  A    between atoms: C_9  and  C_10
REMARK   10  A    between atoms: C_10  and  C_11
REMARK   11  A    between atoms: N_13  and  C_14
REMARK   12  A    between atoms: C_14  and  C_15
REMARK   13  A    between atoms: C_18  and  O_19
REMARK   14  A    between atoms: C_20  and  O_21
REMARK   15  A    between atoms: O_21  and  C_22
REMARK                            x       y       z     vdW  Elec       q    Type
REMARK                         _______ _______ _______ _____ _____    ______ ____
ROOT
ATOM      1  C   UNL     1       2.613   2.388  19.002  0.00  0.00    +0.000 C 
ATOM      2  O   UNL     1       3.364   1.536  19.470  0.00  0.00    +0.000 OA
ATOM      3  N   UNL     1       2.907   3.097  17.863  0.00  0.00    +0.000 N 
ATOM      4  H   UNL     1       2.253   3.782  17.511  0.00  0.00    +0.000 HD
ENDROOT
BRANCH   1   5
ATOM      5  C   UNL     1       1.273   2.739  19.620  0.00  0.00    +0.000 C 
BRANCH   5   6
ATOM      6  C   UNL     1       1.442   3.088  21.096  0.00  0.00    +0.000 C 
BRANCH   6   7
ATOM      7  C   UNL     1       2.237   4.373  21.307  0.00  0.00    +0.000 C 
BRANCH   7   8
ATOM      8  C   UNL     1       1.493   5.561  20.699  0.00  0.00    +0.000 C 
BRANCH   8   9
ATOM      9  C   UNL     1       2.374   6.308  19.704  0.00  0.00    +0.000 C 
BRANCH   9  10
ATOM     10  C   UNL     1       2.011   7.790  19.663  0.00  0.00    +0.000 C 
BRANCH  10  11
ATOM     11  C   UNL     1       2.255   8.368  18.271  0.00  0.00    +0.000 C 
BRANCH  11  12
ATOM     12  C   UNL     1       1.192   9.402  17.917  0.00  0.00    +0.000 C 
BRANCH  12  14
ATOM     13  C   UNL     1       0.243  11.569  18.757  0.00  0.00    +0.000 C 
ATOM     14  C   UNL     1       1.507  10.752  18.558  0.00  0.00    +0.000 C 
ENDBRANCH  12  14
ENDBRANCH  11  12
ENDBRANCH  10  11
ENDBRANCH   9  10
ENDBRANCH   8   9
ENDBRANCH   7   8
ENDBRANCH   6   7
ENDBRANCH   5   6
ENDBRANCH   1   5
BRANCH   3  15
ATOM     15  C   UNL     1       4.111   2.846  17.106  0.00  0.00    +0.000 C 
BRANCH  15  16
ATOM     16  C   UNL     1       4.979   4.070  17.046  0.00  0.00    +0.000 A 
ATOM     17  C   UNL     1       4.906   5.024  18.065  0.00  0.00    +0.000 A 
ATOM     18  C   UNL     1       5.726   6.153  18.032  0.00  0.00    +0.000 A 
ATOM     19  C   UNL     1       6.614   6.348  16.970  0.00  0.00    +0.000 A 
ATOM     20  C   UNL     1       6.691   5.418  15.929  0.00  0.00    +0.000 A 
ATOM     21  C   UNL     1       5.862   4.286  15.978  0.00  0.00    +0.000 A 
BRANCH  19  22
ATOM     22  O   UNL     1       7.395   7.473  16.986  0.00  0.00    +0.000 OA
ATOM     23  H   UNL     1       7.994   7.454  16.224  0.00  0.00    +0.000 HD
ENDBRANCH  19  22
BRANCH  20  24
ATOM     24  O   UNL     1       7.493   5.443  14.821  0.00  0.00    +0.000 OA
ATOM     25  C   UNL     1       7.094   4.680  13.690  0.00  0.00    +0.000 C 
ENDBRANCH  20  24
ENDBRANCH  15  16
ENDBRANCH   3  15
TORSDOF 13
ENDMDL
MODEL 7
REMARK VINA RESULT:      -6.3      2.517      5.155
REMARK  Name = 
REMARK  15 active torsions:
REMARK  status: ('A' for Active; 'I' for Inactive)
REMARK    1  A    between atoms: C_1  and  C_2
REMARK    2  A    between atoms: C_2  and  C_3
REMARK    3  A    between atoms: C_3  and  C_4
REMARK    4  A    between atoms: C_4  and  C_5
REMARK    5  A    between atoms: C_5  and  C_6
REMARK    6  A    between atoms: C_6  and  C_7
REMARK    7  A    between atoms: C_7  and  C_8
REMARK    8  A    between atoms: C_8  and  C_9
REMARK    9  A    between atoms: C_9  and  C_10
REMARK   10  A    between atoms: C_10  and  C_11
REMARK   11  A    between atoms: N_13  and  C_14
REMARK   12  A    between atoms: C_14  and  C_15
REMARK   13  A    between atoms: C_18  and  O_19
REMARK   14  A    between atoms: C_20  and  O_21
REMARK   15  A    between atoms: O_21  and  C_22
REMARK                            x       y       z     vdW  Elec       q    Type
REMARK                         _______ _______ _______ _____ _____    ______ ____
ROOT
ATOM      1  C   UNL     1       2.116   3.644  19.821  0.00  0.00    +0.000 C 
ATOM      2  O   UNL     1       0.903   3.452  19.850  0.00  0.00    +0.000 OA
ATOM      3  N   UNL     1       2.697   4.810  20.256  0.00  0.00    +0.000 N 
ATOM      4  H   UNL     1       3.701   4.919  20.221  0.00  0.00    +0.000 HD
ENDROOT
BRANCH   1   5
ATOM      5  C   UNL     1       3.106   2.610  19.320  0.00  0.00    +0.000 C 
BRANCH   5   6
ATOM      6  C   UNL     1       2.884   2.338  17.835  0.00  0.00    +0.000 C 
BRANCH   6   7
ATOM      7  C   UNL     1       3.071   3.584  16.975  0.00  0.00    +0.000 C 
BRANCH   7   8
ATOM      8  C   UNL     1       4.551   3.954  16.895  0.00  0.00    +0.000 C 
BRANCH   8   9
ATOM      9  C   UNL     1       4.734   5.374  16.371  0.00  0.00    +0.000 C 
BRANCH   9  10
ATOM     10  C   UNL     1       6.187   5.625  15.977  0.00  0.00    +0.000 C 
BRANCH  10  11
ATOM     11  C   UNL     1       6.795   4.381  15.334  0.00  0.00    +0.000 C 
BRANCH  11  12
ATOM     12  C   UNL     1       6.672   4.438  13.815  0.00  0.00    +0.000 C 
BRANCH  12  14
ATOM     13  C   UNL     1       5.080   3.660  12.037  0.00  0.00    +0.000 C 
ATOM     14  C   UNL     1       5.848   3.267  13.286  0.00  0.00    +0.000 C 
ENDBRANCH  12  14
ENDBRANCH  11  12
ENDBRANCH  10  11
ENDBRANCH   9  10
ENDBRANCH   8   9
ENDBRANCH   7   8
ENDBRANCH   6   7
ENDBRANCH   5   6
ENDBRANCH   1   5
BRANCH   3  15
ATOM     15  C   UNL     1       1.911   5.879  20.827  0.00  0.00    +0.000 C 
BRANCH  15  16
ATOM     16  C   UNL     1       1.916   7.091  19.939  0.00  0.00    +0.000 A 
ATOM     17  C   UNL     1       2.535   7.033  18.688  0.00  0.00    +0.000 A 
ATOM     18  C   UNL     1       2.524   8.144  17.844  0.00  0.00    +0.000 A 
ATOM     19  C   UNL     1       1.909   9.331  18.253  0.00  0.00    +0.000 A 
ATOM     20  C   UNL     1       1.299   9.420  19.508  0.00  0.00    +0.000 A 
ATOM     21  C   UNL     1       1.316   8.292  20.343  0.00  0.00    +0.000 A 
BRANCH  19  22
ATOM     22  O   UNL     1       1.927  10.392  17.388  0.00  0.00    +0.000 OA
ATOM     23  H   UNL     1       2.488  11.093  17.756  0.00  0.00    +0.000 HD
ENDBRANCH  19  22
BRANCH  20  24
ATOM     24  O   UNL     1       0.654  10.489  20.069  0.00  0.00    +0.000 OA
ATOM     25  C   UNL     1       0.333  10.424  21.451  0.00  0.00    +0.000 C 
ENDBRANCH  20  24
ENDBRANCH  15  16
ENDBRANCH   3  15
TORSDOF 13
ENDMDL
MODEL 8
REMARK VINA RESULT:      -6.2      3.584      8.369
REMARK  Name = 
REMARK  15 active torsions:
REMARK  status: ('A' for Active; 'I' for Inactive)
REMARK    1  A    between atoms: C_1  and  C_2
REMARK    2  A    between atoms: C_2  and  C_3
REMARK    3  A    between atoms: C_3  and  C_4
REMARK    4  A    between atoms: C_4  and  C_5
REMARK    5  A    between atoms: C_5  and  C_6
REMARK    6  A    between atoms: C_6  and  C_7
REMARK    7  A    between atoms: C_7  and  C_8
REMARK    8  A    between atoms: C_8  and  C_9
REMARK    9  A    between atoms: C_9  and  C_10
REMARK   10  A    between atoms: C_10  and  C_11
REMARK   11  A    between atoms: N_13  and  C_14
REMARK   12  A    between atoms: C_14  and  C_15
REMARK   13  A    between atoms: C_18  and  O_19
REMARK   14  A    between atoms: C_20  and  O_21
REMARK   15  A    between atoms: O_21  and  C_22
REMARK                            x       y       z     vdW  Elec       q    Type
REMARK                         _______ _______ _______ _____ _____    ______ ____
ROOT
ATOM      1  C   UNL     1       2.668   6.278  18.940  0.00  0.00    +0.000 C 
ATOM      2  O   UNL     1       2.121   5.536  18.128  0.00  0.00    +0.000 OA
ATOM      3  N   UNL     1       3.847   5.958  19.568  0.00  0.00    +0.000 N 
ATOM      4  H   UNL     1       4.263   6.606  20.222  0.00  0.00    +0.000 HD
ENDROOT
BRANCH   1   5
ATOM      5  C   UNL     1       2.111   7.635  19.327  0.00  0.00    +0.000 C 
BRANCH   5   6
ATOM      6  C   UNL     1       1.506   7.582  20.727  0.00  0.00    +0.000 C 
BRANCH   6   7
ATOM      7  C   UNL     1       1.166   8.966  21.272  0.00  0.00    +0.000 C 
BRANCH   7   8
ATOM      8  C   UNL     1      -0.320   9.262  21.070  0.00  0.00    +0.000 C 
BRANCH   8   9
ATOM      9  C   UNL     1      -0.525  10.630  20.428  0.00  0.00    +0.000 C 
BRANCH   9  10
ATOM     10  C   UNL     1       0.043  10.655  19.012  0.00  0.00    +0.000 C 
BRANCH  10  11
ATOM     11  C   UNL     1      -0.987  10.145  18.007  0.00  0.00    +0.000 C 
BRANCH  11  12
ATOM     12  C   UNL     1      -2.363  10.738  18.291  0.00  0.00    +0.000 C 
BRANCH  12  14
ATOM     13  C   UNL     1      -2.674   9.910  15.942  0.00  0.00    +0.000 C 
ATOM     14  C   UNL     1      -3.373  10.315  17.227  0.00  0.00    +0.000 C 
ENDBRANCH  12  14
ENDBRANCH  11  12
ENDBRANCH  10  11
ENDBRANCH   9  10
ENDBRANCH   8   9
ENDBRANCH   7   8
ENDBRANCH   6   7
ENDBRANCH   5   6
ENDBRANCH   1   5
BRANCH   3  15
ATOM     15  C   UNL     1       4.553   4.734  19.270  0.00  0.00    +0.000 C 
BRANCH  15  16
ATOM     16  C   UNL     1       5.368   4.869  18.015  0.00  0.00    +0.000 A 
ATOM     17  C   UNL     1       5.252   3.910  17.004  0.00  0.00    +0.000 A 
ATOM     18  C   UNL     1       5.984   4.039  15.824  0.00  0.00    +0.000 A 
ATOM     19  C   UNL     1       6.855   5.119  15.650  0.00  0.00    +0.000 A 
ATOM     20  C   UNL     1       7.003   6.081  16.654  0.00  0.00    +0.000 A 
ATOM     21  C   UNL     1       6.256   5.939  17.834  0.00  0.00    +0.000 A 
BRANCH  19  22
ATOM     22  O   UNL     1       7.551   5.198  14.474  0.00  0.00    +0.000 OA
ATOM     23  H   UNL     1       8.494   5.061  14.653  0.00  0.00    +0.000 HD
ENDBRANCH  19  22
BRANCH  20  24
ATOM     24  O   UNL     1       7.799   7.194  16.658  0.00  0.00    +0.000 OA
ATOM     25  C   UNL     1       7.855   7.970  17.847  0.00  0.00    +0.000 C 
ENDBRANCH  20  24
ENDBRANCH  15  16
ENDBRANCH   3  15
TORSDOF 13
ENDMDL
MODEL 9
REMARK VINA RESULT:      -6.1      5.379      7.803
REMARK  Name = 
REMARK  15 active torsions:
REMARK  status: ('A' for Active; 'I' for Inactive)
REMARK    1  A    between atoms: C_1  and  C_2
REMARK    2  A    between atoms: C_2  and  C_3
REMARK    3  A    between atoms: C_3  and  C_4
REMARK    4  A    between atoms: C_4  and  C_5
REMARK    5  A    between atoms: C_5  and  C_6
REMARK    6  A    between atoms: C_6  and  C_7
REMARK    7  A    between atoms: C_7  and  C_8
REMARK    8  A    between atoms: C_8  and  C_9
REMARK    9  A    between atoms: C_9  and  C_10
REMARK   10  A    between atoms: C_10  and  C_11
REMARK   11  A    between atoms: N_13  and  C_14
REMARK   12  A    between atoms: C_14  and  C_15
REMARK   13  A    between atoms: C_18  and  O_19
REMARK   14  A    between atoms: C_20  and  O_21
REMARK   15  A    between atoms: O_21  and  C_22
REMARK                            x       y       z     vdW  Elec       q    Type
REMARK                         _______ _______ _______ _____ _____    ______ ____
ROOT
ATOM      1  C   UNL     1       6.089   6.152  17.225  0.00  0.00    +0.000 C 
ATOM      2  O   UNL     1       5.404   6.900  16.532  0.00  0.00    +0.000 OA
ATOM      3  N   UNL     1       5.809   4.817  17.384  0.00  0.00    +0.000 N 
ATOM      4  H   UNL     1       6.407   4.240  17.958  0.00  0.00    +0.000 HD
ENDROOT
BRANCH   1   5
ATOM      5  C   UNL     1       7.327   6.616  17.969  0.00  0.00    +0.000 C 
BRANCH   5   6
ATOM      6  C   UNL     1       7.789   7.971  17.438  0.00  0.00    +0.000 C 
BRANCH   6   7
ATOM      7  C   UNL     1       8.573   8.770  18.474  0.00  0.00    +0.000 C 
BRANCH   7   8
ATOM      8  C   UNL     1       8.618  10.246  18.080  0.00  0.00    +0.000 C 
BRANCH   8   9
ATOM      9  C   UNL     1       9.562  11.028  18.988  0.00  0.00    +0.000 C 
BRANCH   9  10
ATOM     10  C   UNL     1      10.824  11.437  18.235  0.00  0.00    +0.000 C 
BRANCH  10  11
ATOM     11  C   UNL     1      11.206  12.879  18.565  0.00  0.00    +0.000 C 
BRANCH  11  12
ATOM     12  C   UNL     1      10.615  13.845  17.544  0.00  0.00    +0.000 C 
BRANCH  12  14
ATOM     13  C   UNL     1      10.926  16.236  16.846  0.00  0.00    +0.000 C 
ATOM     14  C   UNL     1      11.624  14.926  17.163  0.00  0.00    +0.000 C 
ENDBRANCH  12  14
ENDBRANCH  11  12
ENDBRANCH  10  11
ENDBRANCH   9  10
ENDBRANCH   8   9
ENDBRANCH   7   8
ENDBRANCH   6   7
ENDBRANCH   5   6
ENDBRANCH   1   5
BRANCH   3  15
ATOM     15  C   UNL     1       4.705   4.190  16.696  0.00  0.00    +0.000 C 
BRANCH  15  16
ATOM     16  C   UNL     1       3.546   3.961  17.624  0.00  0.00    +0.000 A 
ATOM     17  C   UNL     1       2.747   2.825  17.471  0.00  0.00    +0.000 A 
ATOM     18  C   UNL     1       1.684   2.589  18.344  0.00  0.00    +0.000 A 
ATOM     19  C   UNL     1       1.398   3.499  19.366  0.00  0.00    +0.000 A 
ATOM     20  C   UNL     1       2.171   4.652  19.527  0.00  0.00    +0.000 A 
ATOM     21  C   UNL     1       3.239   4.873  18.644  0.00  0.00    +0.000 A 
BRANCH  19  22
ATOM     22  O   UNL     1       0.343   3.221  20.194  0.00  0.00    +0.000 OA
ATOM     23  H   UNL     1       0.665   2.724  20.962  0.00  0.00    +0.000 HD
ENDBRANCH  19  22
BRANCH  20  24
ATOM     24  O   UNL     1       2.040   5.643  20.463  0.00  0.00    +0.000 OA
ATOM     25  C   UNL     1       2.170   6.990  20.031  0.00  0.00    +0.000 C 
ENDBRANCH  20  24
ENDBRANCH  15  16
ENDBRANCH   3  15
TORSDOF 13
ENDMDL
