MODEL 1
REMARK VINA RESULT:      -7.2      0.000      0.000
REMARK  Name = 
REMARK  12 active torsions:
REMARK  status: ('A' for Active; 'I' for Inactive)
REMARK    1  A    between atoms: C_1  and  C_2
REMARK    2  A    between atoms: C_2  and  N_3
REMARK    3  A    between atoms: N_3  and  C_4
REMARK    4  A    between atoms: N_3  and  C_6
REMARK    5  A    between atoms: C_4  and  C_5
REMARK    6  A    between atoms: C_6  and  C_7
REMARK    7  A    between atoms: C_7  and  O_8
REMARK    8  A    between atoms: O_8  and  C_9
REMARK    9  A    between atoms: C_13  and  C_14
REMARK   10  A    between atoms: C_24  and  O_25
REMARK   11  A    between atoms: C_26  and  O_27
REMARK   12  A    between atoms: O_27  and  C_28
REMARK                            x       y       z     vdW  Elec       q    Type
REMARK                         _______ _______ _______ _____ _____    ______ ____
ROOT
ATOM      1  C   UNL     1       0.450  10.540  21.576  0.00  0.00    +0.000 A 
ATOM      2  C   UNL     1       0.717   9.168  21.640  0.00  0.00    +0.000 A 
ATOM      3  C   UNL     1       1.255   8.506  20.548  0.00  0.00    +0.000 A 
ATOM      4  O   UNL     1       1.575   7.188  20.740  0.00  0.00    +0.000 OA
ATOM      5  C   UNL     1       2.231   6.528  19.721  0.00  0.00    +0.000 A 
ATOM      6  C   UNL     1       2.510   7.050  18.524  0.00  0.00    +0.000 A 
ATOM      7  C   UNL     1       2.113   8.442  18.259  0.00  0.00    +0.000 A 
ATOM      8  O   UNL     1       2.320   8.971  17.171  0.00  0.00    +0.000 OA
ATOM      9  C   UNL     1       1.478   9.189  19.358  0.00  0.00    +0.000 A 
ATOM     10  C   UNL     1       1.135  10.548  19.243  0.00  0.00    +0.000 A 
ATOM     11  C   UNL     1       0.608  11.237  20.353  0.00  0.00    +0.000 A 
ENDROOT
BRANCH   5  12
ATOM     12  C   UNL     1       2.607   5.154  20.057  0.00  0.00    +0.000 A 
ATOM     13  C   UNL     1       3.643   4.513  19.366  0.00  0.00    +0.000 A 
ATOM     14  C   UNL     1       3.994   3.200  19.688  0.00  0.00    +0.000 A 
ATOM     15  C   UNL     1       3.313   2.526  20.701  0.00  0.00    +0.000 A 
ATOM     16  C   UNL     1       2.287   3.162  21.399  0.00  0.00    +0.000 A 
ATOM     17  C   UNL     1       1.935   4.475  21.079  0.00  0.00    +0.000 A 
ENDBRANCH   5  12
BRANCH  10  18
ATOM     18  O   UNL     1       1.364  11.213  18.064  0.00  0.00    +0.000 OA
ATOM     19  H   UNL     1       0.554  11.713  17.813  0.00  0.00    +0.000 HD
ENDBRANCH  10  18
BRANCH  11  20
ATOM     20  O   UNL     1       0.294  12.574  20.399  0.00  0.00    +0.000 OA
ATOM     21  C   UNL     1      -0.931  12.989  19.806  0.00  0.00    +0.000 C 
ENDBRANCH  11  20
BRANCH   1  22
ATOM     22  O   UNL     1       0.036  11.256  22.681  0.00  0.00    +0.000 OA
BRANCH  22  23
ATOM     23  C   UNL     1      -1.307  10.974  23.105  0.00  0.00    +0.000 C 
BRANCH  23  24
ATOM     24  C   UNL     1      -2.096  12.274  23.296  0.00  0.00    +0.000 C 
BRANCH  24  25
ATOM     25  N   UNL     1      -3.563  12.118  23.163  0.00  0.00    +0.000 NA
BRANCH  25  27
ATOM     26  C   UNL     1      -5.730  12.587  24.377  0.00  0.00    +0.000 C 
ATOM     27  C   UNL     1      -4.209  12.474  24.438  0.00  0.00    +0.000 C 
ENDBRANCH  25  27
BRANCH  25  28
ATOM     28  C   UNL     1      -4.140  12.788  21.988  0.00  0.00    +0.000 C 
ATOM     29  C   UNL     1      -3.700  14.228  21.749  0.00  0.00    +0.000 C 
ENDBRANCH  25  28
ENDBRANCH  24  25
ENDBRANCH  23  24
ENDBRANCH  22  23
ENDBRANCH   1  22
TORSDOF 9
ENDMDL
MODEL 2
REMARK VINA RESULT:      -7.2      0.674      1.174
REMARK  Name = 
REMARK  12 active torsions:
REMARK  status: ('A' for Active; 'I' for Inactive)
REMARK    1  A    between atoms: C_1  and  C_2
REMARK    2  A    between atoms: C_2  and  N_3
REMARK    3  A    between atoms: N_3  and  C_4
REMARK    4  A    between atoms: N_3  and  C_6
REMARK    5  A    between atoms: C_4  and  C_5
REMARK    6  A    between atoms: C_6  and  C_7
REMARK    7  A    between atoms: C_7  and  O_8
REMARK    8  A    between atoms: O_8  and  C_9
REMARK    9  A    between atoms: C_13  and  C_14
REMARK   10  A    between atoms: C_24  and  O_25
REMARK   11  A    between atoms: C_26  and  O_27
REMARK   12  A    between atoms: O_27  and  C_28
REMARK                            x       y       z     vdW  Elec       q    Type
REMARK                         _______ _______ _______ _____ _____    ______ ____
ROOT
ATOM      1  C   UNL     1       0.380  10.472  21.680  0.00  0.00    +0.000 A 
ATOM      2  C   UNL     1       0.672   9.104  21.718  0.00  0.00    +0.000 A 
ATOM      3  C   UNL     1       1.214   8.472  20.610  0.00  0.00    +0.000 A 
ATOM      4  O   UNL     1       1.559   7.157  20.776  0.00  0.00    +0.000 OA
ATOM      5  C   UNL     1       2.219   6.527  19.741  0.00  0.00    +0.000 A 
ATOM      6  C   UNL     1       2.479   7.076  18.550  0.00  0.00    +0.000 A 
ATOM      7  C   UNL     1       2.055   8.465  18.314  0.00  0.00    +0.000 A 
ATOM      8  O   UNL     1       2.245   9.017  17.235  0.00  0.00    +0.000 OA
ATOM      9  C   UNL     1       1.415   9.179  19.431  0.00  0.00    +0.000 A 
ATOM     10  C   UNL     1       1.047  10.534  19.343  0.00  0.00    +0.000 A 
ATOM     11  C   UNL     1       0.516  11.193  20.470  0.00  0.00    +0.000 A 
ENDROOT
BRANCH   5  12
ATOM     12  C   UNL     1       2.623   5.155  20.048  0.00  0.00    +0.000 A 
ATOM     13  C   UNL     1       1.955   4.422  21.038  0.00  0.00    +0.000 A 
ATOM     14  C   UNL     1       2.349   3.115  21.329  0.00  0.00    +0.000 A 
ATOM     15  C   UNL     1       3.409   2.535  20.632  0.00  0.00    +0.000 A 
ATOM     16  C   UNL     1       4.071   3.255  19.640  0.00  0.00    +0.000 A 
ATOM     17  C   UNL     1       3.679   4.563  19.346  0.00  0.00    +0.000 A 
ENDBRANCH   5  12
BRANCH  10  18
ATOM     18  O   UNL     1       1.254  11.225  18.175  0.00  0.00    +0.000 OA
ATOM     19  H   UNL     1       1.398  12.175  18.382  0.00  0.00    +0.000 HD
ENDBRANCH  10  18
BRANCH  11  20
ATOM     20  O   UNL     1       0.178  12.523  20.542  0.00  0.00    +0.000 OA
ATOM     21  C   UNL     1       1.226  13.464  20.740  0.00  0.00    +0.000 C 
ENDBRANCH  11  20
BRANCH   1  22
ATOM     22  O   UNL     1      -0.038  11.160  22.802  0.00  0.00    +0.000 OA
BRANCH  22  23
ATOM     23  C   UNL     1      -1.409  10.932  23.163  0.00  0.00    +0.000 C 
BRANCH  23  24
ATOM     24  C   UNL     1      -2.183  12.255  23.202  0.00  0.00    +0.000 C 
BRANCH  24  25
ATOM     25  N   UNL     1      -3.435  12.249  22.410  0.00  0.00    +0.000 NA
BRANCH  25  27
ATOM     26  C   UNL     1      -4.452  12.482  24.712  0.00  0.00    +0.000 C 
ATOM     27  C   UNL     1      -4.530  12.807  23.223  0.00  0.00    +0.000 C 
ENDBRANCH  25  27
BRANCH  25  28
ATOM     28  C   UNL     1      -3.311  12.851  21.074  0.00  0.00    +0.000 C 
ATOM     29  C   UNL     1      -4.614  13.252  20.392  0.00  0.00    +0.000 C 
ENDBRANCH  25  28
ENDBRANCH  24  25
ENDBRANCH  23  24
ENDBRANCH  22  23
ENDBRANCH   1  22
TORSDOF 9
ENDMDL
MODEL 3
REMARK VINA RESULT:      -7.1      0.940      1.515
REMARK  Name = 
REMARK  12 active torsions:
REMARK  status: ('A' for Active; 'I' for Inactive)
REMARK    1  A    between atoms: C_1  and  C_2
REMARK    2  A    between atoms: C_2  and  N_3
REMARK    3  A    between atoms: N_3  and  C_4
REMARK    4  A    between atoms: N_3  and  C_6
REMARK    5  A    between atoms: C_4  and  C_5
REMARK    6  A    between atoms: C_6  and  C_7
REMARK    7  A    between atoms: C_7  and  O_8
REMARK    8  A    between atoms: O_8  and  C_9
REMARK    9  A    between atoms: C_13  and  C_14
REMARK   10  A    between atoms: C_24  and  O_25
REMARK   11  A    between atoms: C_26  and  O_27
REMARK   12  A    between atoms: O_27  and  C_28
REMARK                            x       y       z     vdW  Elec       q    Type
REMARK                         _______ _______ _______ _____ _____    ______ ____
ROOT
ATOM      1  C   UNL     1       0.469  10.440  21.612  0.00  0.00    +0.000 A 
ATOM      2  C   UNL     1       0.749   9.070  21.668  0.00  0.00    +0.000 A 
ATOM      3  C   UNL     1       1.283   8.419  20.567  0.00  0.00    +0.000 A 
ATOM      4  O   UNL     1       1.616   7.103  20.750  0.00  0.00    +0.000 OA
ATOM      5  C   UNL     1       2.269   6.453  19.722  0.00  0.00    +0.000 A 
ATOM      6  C   UNL     1       2.533   6.984  18.525  0.00  0.00    +0.000 A 
ATOM      7  C   UNL     1       2.121   8.374  18.271  0.00  0.00    +0.000 A 
ATOM      8  O   UNL     1       2.315   8.910  17.184  0.00  0.00    +0.000 OA
ATOM      9  C   UNL     1       1.489   9.109  19.379  0.00  0.00    +0.000 A 
ATOM     10  C   UNL     1       1.134  10.465  19.274  0.00  0.00    +0.000 A 
ATOM     11  C   UNL     1       0.610  11.144  20.392  0.00  0.00    +0.000 A 
ENDROOT
BRANCH   5  12
ATOM     12  C   UNL     1       2.660   5.081  20.048  0.00  0.00    +0.000 A 
ATOM     13  C   UNL     1       3.707   4.458  19.356  0.00  0.00    +0.000 A 
ATOM     14  C   UNL     1       4.072   3.148  19.669  0.00  0.00    +0.000 A 
ATOM     15  C   UNL     1       3.395   2.456  20.673  0.00  0.00    +0.000 A 
ATOM     16  C   UNL     1       2.358   3.074  21.371  0.00  0.00    +0.000 A 
ATOM     17  C   UNL     1       1.992   4.385  21.061  0.00  0.00    +0.000 A 
ENDBRANCH   5  12
BRANCH  10  18
ATOM     18  O   UNL     1       1.346  11.139  18.096  0.00  0.00    +0.000 OA
ATOM     19  H   UNL     1       2.221  11.586  18.133  0.00  0.00    +0.000 HD
ENDBRANCH  10  18
BRANCH  11  20
ATOM     20  O   UNL     1       0.285  12.478  20.447  0.00  0.00    +0.000 OA
ATOM     21  C   UNL     1       1.339  13.411  20.655  0.00  0.00    +0.000 C 
ENDBRANCH  11  20
BRANCH   1  22
ATOM     22  O   UNL     1       0.059  11.147  22.725  0.00  0.00    +0.000 OA
BRANCH  22  23
ATOM     23  C   UNL     1      -1.289  10.874  23.140  0.00  0.00    +0.000 C 
BRANCH  23  24
ATOM     24  C   UNL     1      -2.220  12.023  22.735  0.00  0.00    +0.000 C 
BRANCH  24  25
ATOM     25  N   UNL     1      -2.425  13.040  23.793  0.00  0.00    +0.000 NA
BRANCH  25  27
ATOM     26  C   UNL     1      -1.354  15.137  24.713  0.00  0.00    +0.000 C 
ATOM     27  C   UNL     1      -1.564  14.205  23.523  0.00  0.00    +0.000 C 
ENDBRANCH  25  27
BRANCH  25  28
ATOM     28  C   UNL     1      -3.833  13.377  24.046  0.00  0.00    +0.000 C 
ATOM     29  C   UNL     1      -4.646  12.343  24.815  0.00  0.00    +0.000 C 
ENDBRANCH  25  28
ENDBRANCH  24  25
ENDBRANCH  23  24
ENDBRANCH  22  23
ENDBRANCH   1  22
TORSDOF 9
ENDMDL
MODEL 4
REMARK VINA RESULT:      -6.8      0.852      1.246
REMARK  Name = 
REMARK  12 active torsions:
REMARK  status: ('A' for Active; 'I' for Inactive)
REMARK    1  A    between atoms: C_1  and  C_2
REMARK    2  A    between atoms: C_2  and  N_3
REMARK    3  A    between atoms: N_3  and  C_4
REMARK    4  A    between atoms: N_3  and  C_6
REMARK    5  A    between atoms: C_4  and  C_5
REMARK    6  A    between atoms: C_6  and  C_7
REMARK    7  A    between atoms: C_7  and  O_8
REMARK    8  A    between atoms: O_8  and  C_9
REMARK    9  A    between atoms: C_13  and  C_14
REMARK   10  A    between atoms: C_24  and  O_25
REMARK   11  A    between atoms: C_26  and  O_27
REMARK   12  A    between atoms: O_27  and  C_28
REMARK                            x       y       z     vdW  Elec       q    Type
REMARK                         _______ _______ _______ _____ _____    ______ ____
ROOT
ATOM      1  C   UNL     1       0.479  10.545  21.298  0.00  0.00    +0.000 A 
ATOM      2  C   UNL     1       0.721   9.172  21.428  0.00  0.00    +0.000 A 
ATOM      3  C   UNL     1       1.297   8.460  20.388  0.00  0.00    +0.000 A 
ATOM      4  O   UNL     1       1.587   7.146  20.646  0.00  0.00    +0.000 OA
ATOM      5  C   UNL     1       2.277   6.437  19.685  0.00  0.00    +0.000 A 
ATOM      6  C   UNL     1       2.618   6.907  18.482  0.00  0.00    +0.000 A 
ATOM      7  C   UNL     1       2.255   8.293  18.145  0.00  0.00    +0.000 A 
ATOM      8  O   UNL     1       2.520   8.775  17.048  0.00  0.00    +0.000 OA
ATOM      9  C   UNL     1       1.584   9.091  19.184  0.00  0.00    +0.000 A 
ATOM     10  C   UNL     1       1.269  10.450  19.000  0.00  0.00    +0.000 A 
ATOM     11  C   UNL     1       0.703  11.189  20.058  0.00  0.00    +0.000 A 
ENDROOT
BRANCH   5  12
ATOM     12  C   UNL     1       2.616   5.073  20.091  0.00  0.00    +0.000 A 
ATOM     13  C   UNL     1       3.629   4.366  19.430  0.00  0.00    +0.000 A 
ATOM     14  C   UNL     1       3.944   3.062  19.819  0.00  0.00    +0.000 A 
ATOM     15  C   UNL     1       3.250   2.462  20.870  0.00  0.00    +0.000 A 
ATOM     16  C   UNL     1       2.247   3.164  21.537  0.00  0.00    +0.000 A 
ATOM     17  C   UNL     1       1.931   4.468  21.150  0.00  0.00    +0.000 A 
ENDBRANCH   5  12
BRANCH  10  18
ATOM     18  O   UNL     1       1.560  11.064  17.808  0.00  0.00    +0.000 OA
ATOM     19  H   UNL     1       0.920  11.795  17.655  0.00  0.00    +0.000 HD
ENDBRANCH  10  18
BRANCH  11  20
ATOM     20  O   UNL     1       0.409  12.532  20.037  0.00  0.00    +0.000 OA
ATOM     21  C   UNL     1      -0.693  12.958  19.244  0.00  0.00    +0.000 C 
ENDBRANCH  11  20
BRANCH   1  22
ATOM     22  O   UNL     1       0.028  11.310  22.354  0.00  0.00    +0.000 OA
BRANCH  22  23
ATOM     23  C   UNL     1      -1.078  10.740  23.073  0.00  0.00    +0.000 C 
BRANCH  23  24
ATOM     24  C   UNL     1      -2.203  11.768  23.234  0.00  0.00    +0.000 C 
BRANCH  24  25
ATOM     25  N   UNL     1      -1.874  13.114  22.707  0.00  0.00    +0.000 NA
BRANCH  25  27
ATOM     26  C   UNL     1      -4.287  12.782  22.030  0.00  0.00    +0.000 C 
ATOM     27  C   UNL     1      -3.023  13.633  21.943  0.00  0.00    +0.000 C 
ENDBRANCH  25  27
BRANCH  25  28
ATOM     28  C   UNL     1      -1.350  14.048  23.714  0.00  0.00    +0.000 C 
ATOM     29  C   UNL     1      -2.280  15.180  24.133  0.00  0.00    +0.000 C 
ENDBRANCH  25  28
ENDBRANCH  24  25
ENDBRANCH  23  24
ENDBRANCH  22  23
ENDBRANCH   1  22
TORSDOF 9
ENDMDL
MODEL 5
REMARK VINA RESULT:      -6.8      3.508      5.526
REMARK  Name = 
REMARK  12 active torsions:
REMARK  status: ('A' for Active; 'I' for Inactive)
REMARK    1  A    between atoms: C_1  and  C_2
REMARK    2  A    between atoms: C_2  and  N_3
REMARK    3  A    between atoms: N_3  and  C_4
REMARK    4  A    between atoms: N_3  and  C_6
REMARK    5  A    between atoms: C_4  and  C_5
REMARK    6  A    between atoms: C_6  and  C_7
REMARK    7  A    between atoms: C_7  and  O_8
REMARK    8  A    between atoms: O_8  and  C_9
REMARK    9  A    between atoms: C_13  and  C_14
REMARK   10  A    between atoms: C_24  and  O_25
REMARK   11  A    between atoms: C_26  and  O_27
REMARK   12  A    between atoms: O_27  and  C_28
REMARK                            x       y       z     vdW  Elec       q    Type
REMARK                         _______ _______ _______ _____ _____    ______ ____
ROOT
ATOM      1  C   UNL     1       2.007   8.478  18.924  0.00  0.00    +0.000 A 
ATOM      2  C   UNL     1       2.906   8.072  17.932  0.00  0.00    +0.000 A 
ATOM      3  C   UNL     1       3.473   6.808  17.974  0.00  0.00    +0.000 A 
ATOM      4  O   UNL     1       4.261   6.466  16.907  0.00  0.00    +0.000 OA
ATOM      5  C   UNL     1       4.739   5.173  16.846  0.00  0.00    +0.000 A 
ATOM      6  C   UNL     1       4.561   4.244  17.789  0.00  0.00    +0.000 A 
ATOM      7  C   UNL     1       3.780   4.603  18.984  0.00  0.00    +0.000 A 
ATOM      8  O   UNL     1       3.600   3.801  19.895  0.00  0.00    +0.000 OA
ATOM      9  C   UNL     1       3.199   5.954  19.035  0.00  0.00    +0.000 A 
ATOM     10  C   UNL     1       2.366   6.374  20.088  0.00  0.00    +0.000 A 
ATOM     11  C   UNL     1       1.767   7.649  20.046  0.00  0.00    +0.000 A 
ENDROOT
BRANCH   5  12
ATOM     12  C   UNL     1       5.495   4.882  15.627  0.00  0.00    +0.000 A 
ATOM     13  C   UNL     1       6.805   5.354  15.473  0.00  0.00    +0.000 A 
ATOM     14  C   UNL     1       7.518   5.076  14.305  0.00  0.00    +0.000 A 
ATOM     15  C   UNL     1       6.926   4.325  13.290  0.00  0.00    +0.000 A 
ATOM     16  C   UNL     1       5.626   3.845  13.441  0.00  0.00    +0.000 A 
ATOM     17  C   UNL     1       4.911   4.121  14.608  0.00  0.00    +0.000 A 
ENDBRANCH   5  12
BRANCH  10  18
ATOM     18  O   UNL     1       2.098   5.521  21.130  0.00  0.00    +0.000 OA
ATOM     19  H   UNL     1       2.922   5.371  21.646  0.00  0.00    +0.000 HD
ENDBRANCH  10  18
BRANCH  11  20
ATOM     20  O   UNL     1       0.885   8.157  20.970  0.00  0.00    +0.000 OA
ATOM     21  C   UNL     1       1.420   8.891  22.065  0.00  0.00    +0.000 C 
ENDBRANCH  11  20
BRANCH   1  22
ATOM     22  O   UNL     1       1.326   9.677  18.847  0.00  0.00    +0.000 OA
BRANCH  22  23
ATOM     23  C   UNL     1       0.203   9.665  17.951  0.00  0.00    +0.000 C 
BRANCH  23  24
ATOM     24  C   UNL     1      -0.816  10.738  18.352  0.00  0.00    +0.000 C 
BRANCH  24  25
ATOM     25  N   UNL     1      -2.223  10.379  18.058  0.00  0.00    +0.000 NA
BRANCH  25  27
ATOM     26  C   UNL     1      -2.676  12.303  19.635  0.00  0.00    +0.000 C 
ATOM     27  C   UNL     1      -3.098  11.516  18.398  0.00  0.00    +0.000 C 
ENDBRANCH  25  27
BRANCH  25  28
ATOM     28  C   UNL     1      -2.441   9.833  16.711  0.00  0.00    +0.000 C 
ATOM     29  C   UNL     1      -2.794  10.842  15.624  0.00  0.00    +0.000 C 
ENDBRANCH  25  28
ENDBRANCH  24  25
ENDBRANCH  23  24
ENDBRANCH  22  23
ENDBRANCH   1  22
TORSDOF 9
ENDMDL
MODEL 6
REMARK VINA RESULT:      -6.8      3.536      5.606
REMARK  Name = 
REMARK  12 active torsions:
REMARK  status: ('A' for Active; 'I' for Inactive)
REMARK    1  A    between atoms: C_1  and  C_2
REMARK    2  A    between atoms: C_2  and  N_3
REMARK    3  A    between atoms: N_3  and  C_4
REMARK    4  A    between atoms: N_3  and  C_6
REMARK    5  A    between atoms: C_4  and  C_5
REMARK    6  A    between atoms: C_6  and  C_7
REMARK    7  A    between atoms: C_7  and  O_8
REMARK    8  A    between atoms: O_8  and  C_9
REMARK    9  A    between atoms: C_13  and  C_14
REMARK   10  A    between atoms: C_24  and  O_25
REMARK   11  A    between atoms: C_26  and  O_27
REMARK   12  A    between atoms: O_27  and  C_28
REMARK                            x       y       z     vdW  Elec       q    Type
REMARK                         _______ _______ _______ _____ _____    ______ ____
ROOT
ATOM      1  C   UNL     1       2.036   8.531  18.886  0.00  0.00    +0.000 A 
ATOM      2  C   UNL     1       2.938   8.110  17.903  0.00  0.00    +0.000 A 
ATOM      3  C   UNL     1       3.477   6.834  17.945  0.00  0.00    +0.000 A 
ATOM      4  O   UNL     1       4.270   6.480  16.886  0.00  0.00    +0.000 OA
ATOM      5  C   UNL     1       4.721   5.178  16.824  0.00  0.00    +0.000 A 
ATOM      6  C   UNL     1       4.512   4.249  17.760  0.00  0.00    +0.000 A 
ATOM      7  C   UNL     1       3.725   4.618  18.948  0.00  0.00    +0.000 A 
ATOM      8  O   UNL     1       3.518   3.816  19.853  0.00  0.00    +0.000 OA
ATOM      9  C   UNL     1       3.172   5.982  18.999  0.00  0.00    +0.000 A 
ATOM     10  C   UNL     1       2.337   6.415  20.044  0.00  0.00    +0.000 A 
ATOM     11  C   UNL     1       1.766   7.702  20.002  0.00  0.00    +0.000 A 
ENDROOT
BRANCH   5  12
ATOM     12  C   UNL     1       5.484   4.876  15.612  0.00  0.00    +0.000 A 
ATOM     13  C   UNL     1       6.811   5.307  15.482  0.00  0.00    +0.000 A 
ATOM     14  C   UNL     1       7.531   5.019  14.321  0.00  0.00    +0.000 A 
ATOM     15  C   UNL     1       6.930   4.299  13.289  0.00  0.00    +0.000 A 
ATOM     16  C   UNL     1       5.613   3.860  13.416  0.00  0.00    +0.000 A 
ATOM     17  C   UNL     1       4.891   4.146  14.576  0.00  0.00    +0.000 A 
ENDBRANCH   5  12
BRANCH  10  18
ATOM     18  O   UNL     1       2.039   5.562  21.079  0.00  0.00    +0.000 OA
ATOM     19  H   UNL     1       2.585   4.748  20.995  0.00  0.00    +0.000 HD
ENDBRANCH  10  18
BRANCH  11  20
ATOM     20  O   UNL     1       0.884   8.225  20.917  0.00  0.00    +0.000 OA
ATOM     21  C   UNL     1       1.422   8.950  22.017  0.00  0.00    +0.000 C 
ENDBRANCH  11  20
BRANCH   1  22
ATOM     22  O   UNL     1       1.382   9.744  18.807  0.00  0.00    +0.000 OA
BRANCH  22  23
ATOM     23  C   UNL     1       0.277   9.765  17.889  0.00  0.00    +0.000 C 
BRANCH  23  24
ATOM     24  C   UNL     1      -1.001  10.230  18.596  0.00  0.00    +0.000 C 
BRANCH  24  25
ATOM     25  N   UNL     1      -1.970  10.915  17.708  0.00  0.00    +0.000 NA
BRANCH  25  27
ATOM     26  C   UNL     1      -2.813  10.382  15.386  0.00  0.00    +0.000 C 
ATOM     27  C   UNL     1      -2.611   9.923  16.827  0.00  0.00    +0.000 C 
ENDBRANCH  25  27
BRANCH  25  28
ATOM     28  C   UNL     1      -2.914  11.798  18.408  0.00  0.00    +0.000 C 
ATOM     29  C   UNL     1      -2.489  12.279  19.791  0.00  0.00    +0.000 C 
ENDBRANCH  25  28
ENDBRANCH  24  25
ENDBRANCH  23  24
ENDBRANCH  22  23
ENDBRANCH   1  22
TORSDOF 9
ENDMDL
MODEL 7
REMARK VINA RESULT:      -6.8      1.049      1.794
REMARK  Name = 
REMARK  12 active torsions:
REMARK  status: ('A' for Active; 'I' for Inactive)
REMARK    1  A    between atoms: C_1  and  C_2
REMARK    2  A    between atoms: C_2  and  N_3
REMARK    3  A    between atoms: N_3  and  C_4
REMARK    4  A    between atoms: N_3  and  C_6
REMARK    5  A    between atoms: C_4  and  C_5
REMARK    6  A    between atoms: C_6  and  C_7
REMARK    7  A    between atoms: C_7  and  O_8
REMARK    8  A    between atoms: O_8  and  C_9
REMARK    9  A    between atoms: C_13  and  C_14
REMARK   10  A    between atoms: C_24  and  O_25
REMARK   11  A    between atoms: C_26  and  O_27
REMARK   12  A    between atoms: O_27  and  C_28
REMARK                            x       y       z     vdW  Elec       q    Type
REMARK                         _______ _______ _______ _____ _____    ______ ____
ROOT
ATOM      1  C   UNL     1       0.443  10.537  21.583  0.00  0.00    +0.000 A 
ATOM      2  C   UNL     1       0.711   9.165  21.642  0.00  0.00    +0.000 A 
ATOM      3  C   UNL     1       1.253   8.509  20.548  0.00  0.00    +0.000 A 
ATOM      4  O   UNL     1       1.573   7.190  20.735  0.00  0.00    +0.000 OA
ATOM      5  C   UNL     1       2.233   6.535  19.716  0.00  0.00    +0.000 A 
ATOM      6  C   UNL     1       2.516   7.063  18.521  0.00  0.00    +0.000 A 
ATOM      7  C   UNL     1       2.119   8.456  18.262  0.00  0.00    +0.000 A 
ATOM      8  O   UNL     1       2.330   8.990  17.178  0.00  0.00    +0.000 OA
ATOM      9  C   UNL     1       1.480   9.196  19.362  0.00  0.00    +0.000 A 
ATOM     10  C   UNL     1       1.137  10.556  19.253  0.00  0.00    +0.000 A 
ATOM     11  C   UNL     1       0.605  11.239  20.364  0.00  0.00    +0.000 A 
ENDROOT
BRANCH   5  12
ATOM     12  C   UNL     1       2.609   5.160  20.046  0.00  0.00    +0.000 A 
ATOM     13  C   UNL     1       1.930   4.459  21.052  0.00  0.00    +0.000 A 
ATOM     14  C   UNL     1       2.298   3.149  21.364  0.00  0.00    +0.000 A 
ATOM     15  C   UNL     1       3.341   2.534  20.673  0.00  0.00    +0.000 A 
ATOM     16  C   UNL     1       4.015   3.223  19.665  0.00  0.00    +0.000 A 
ATOM     17  C   UNL     1       3.649   4.533  19.350  0.00  0.00    +0.000 A 
ENDBRANCH   5  12
BRANCH  10  18
ATOM     18  O   UNL     1       1.369  11.227  18.077  0.00  0.00    +0.000 OA
ATOM     19  H   UNL     1       2.144  10.827  17.624  0.00  0.00    +0.000 HD
ENDBRANCH  10  18
BRANCH  11  20
ATOM     20  O   UNL     1       0.290  12.576  20.415  0.00  0.00    +0.000 OA
ATOM     21  C   UNL     1       1.355  13.503  20.593  0.00  0.00    +0.000 C 
ENDBRANCH  11  20
BRANCH   1  22
ATOM     22  O   UNL     1       0.025  11.248  22.690  0.00  0.00    +0.000 OA
BRANCH  22  23
ATOM     23  C   UNL     1      -1.298  10.921  23.142  0.00  0.00    +0.000 C 
BRANCH  23  24
ATOM     24  C   UNL     1      -2.295  12.004  22.717  0.00  0.00    +0.000 C 
BRANCH  24  25
ATOM     25  N   UNL     1      -2.201  13.258  23.501  0.00  0.00    +0.000 NA
BRANCH  25  27
ATOM     26  C   UNL     1      -0.701  15.279  23.260  0.00  0.00    +0.000 C 
ATOM     27  C   UNL     1      -1.730  14.347  22.626  0.00  0.00    +0.000 C 
ENDBRANCH  25  27
BRANCH  25  28
ATOM     28  C   UNL     1      -3.409  13.584  24.272  0.00  0.00    +0.000 C 
ATOM     29  C   UNL     1      -4.563  14.198  23.488  0.00  0.00    +0.000 C 
ENDBRANCH  25  28
ENDBRANCH  24  25
ENDBRANCH  23  24
ENDBRANCH  22  23
ENDBRANCH   1  22
TORSDOF 9
ENDMDL
MODEL 8
REMARK VINA RESULT:      -6.8      0.895      1.370
REMARK  Name = 
REMARK  12 active torsions:
REMARK  status: ('A' for Active; 'I' for Inactive)
REMARK    1  A    between atoms: C_1  and  C_2
REMARK    2  A    between atoms: C_2  and  N_3
REMARK    3  A    between atoms: N_3  and  C_4
REMARK    4  A    between atoms: N_3  and  C_6
REMARK    5  A    between atoms: C_4  and  C_5
REMARK    6  A    between atoms: C_6  and  C_7
REMARK    7  A    between atoms: C_7  and  O_8
REMARK    8  A    between atoms: O_8  and  C_9
REMARK    9  A    between atoms: C_13  and  C_14
REMARK   10  A    between atoms: C_24  and  O_25
REMARK   11  A    between atoms: C_26  and  O_27
REMARK   12  A    between atoms: O_27  and  C_28
REMARK                            x       y       z     vdW  Elec       q    Type
REMARK                         _______ _______ _______ _____ _____    ______ ____
ROOT
ATOM      1  C   UNL     1       0.402  10.608  21.579  0.00  0.00    +0.000 A 
ATOM      2  C   UNL     1       0.661   9.234  21.650  0.00  0.00    +0.000 A 
ATOM      3  C   UNL     1       1.204   8.566  20.564  0.00  0.00    +0.000 A 
ATOM      4  O   UNL     1       1.514   7.246  20.763  0.00  0.00    +0.000 OA
ATOM      5  C   UNL     1       2.174   6.579  19.752  0.00  0.00    +0.000 A 
ATOM      6  C   UNL     1       2.465   7.096  18.554  0.00  0.00    +0.000 A 
ATOM      7  C   UNL     1       2.078   8.489  18.282  0.00  0.00    +0.000 A 
ATOM      8  O   UNL     1       2.298   9.014  17.195  0.00  0.00    +0.000 OA
ATOM      9  C   UNL     1       1.439   9.243  19.374  0.00  0.00    +0.000 A 
ATOM     10  C   UNL     1       1.106  10.604  19.252  0.00  0.00    +0.000 A 
ATOM     11  C   UNL     1       0.574  11.299  20.356  0.00  0.00    +0.000 A 
ENDROOT
BRANCH   5  12
ATOM     12  C   UNL     1       2.539   5.204  20.094  0.00  0.00    +0.000 A 
ATOM     13  C   UNL     1       1.846   4.513  21.096  0.00  0.00    +0.000 A 
ATOM     14  C   UNL     1       2.204   3.203  21.421  0.00  0.00    +0.000 A 
ATOM     15  C   UNL     1       3.252   2.579  20.745  0.00  0.00    +0.000 A 
ATOM     16  C   UNL     1       3.940   3.259  19.741  0.00  0.00    +0.000 A 
ATOM     17  C   UNL     1       3.584   4.569  19.414  0.00  0.00    +0.000 A 
ENDBRANCH   5  12
BRANCH  10  18
ATOM     18  O   UNL     1       1.347  11.264  18.073  0.00  0.00    +0.000 OA
ATOM     19  H   UNL     1       1.313  12.234  18.232  0.00  0.00    +0.000 HD
ENDBRANCH  10  18
BRANCH  11  20
ATOM     20  O   UNL     1       0.267  12.638  20.395  0.00  0.00    +0.000 OA
ATOM     21  C   UNL     1       1.334  13.558  20.601  0.00  0.00    +0.000 C 
ENDBRANCH  11  20
BRANCH   1  22
ATOM     22  O   UNL     1      -0.015  11.330  22.679  0.00  0.00    +0.000 OA
BRANCH  22  23
ATOM     23  C   UNL     1      -1.381  11.097  23.060  0.00  0.00    +0.000 C 
BRANCH  23  24
ATOM     24  C   UNL     1      -2.313  12.090  22.358  0.00  0.00    +0.000 C 
BRANCH  24  25
ATOM     25  N   UNL     1      -2.897  13.113  23.256  0.00  0.00    +0.000 NA
BRANCH  25  27
ATOM     26  C   UNL     1      -5.266  12.867  24.106  0.00  0.00    +0.000 C 
ATOM     27  C   UNL     1      -3.800  12.458  24.220  0.00  0.00    +0.000 C 
ENDBRANCH  25  27
BRANCH  25  28
ATOM     28  C   UNL     1      -1.912  14.015  23.870  0.00  0.00    +0.000 C 
ATOM     29  C   UNL     1      -2.453  15.331  24.418  0.00  0.00    +0.000 C 
ENDBRANCH  25  28
ENDBRANCH  24  25
ENDBRANCH  23  24
ENDBRANCH  22  23
ENDBRANCH   1  22
TORSDOF 9
ENDMDL
MODEL 9
REMARK VINA RESULT:      -6.8      0.795      1.578
REMARK  Name = 
REMARK  12 active torsions:
REMARK  status: ('A' for Active; 'I' for Inactive)
REMARK    1  A    between atoms: C_1  and  C_2
REMARK    2  A    between atoms: C_2  and  N_3
REMARK    3  A    between atoms: N_3  and  C_4
REMARK    4  A    between atoms: N_3  and  C_6
REMARK    5  A    between atoms: C_4  and  C_5
REMARK    6  A    between atoms: C_6  and  C_7
REMARK    7  A    between atoms: C_7  and  O_8
REMARK    8  A    between atoms: O_8  and  C_9
REMARK    9  A    between atoms: C_13  and  C_14
REMARK   10  A    between atoms: C_24  and  O_25
REMARK   11  A    between atoms: C_26  and  O_27
REMARK   12  A    between atoms: O_27  and  C_28
REMARK                            x       y       z     vdW  Elec       q    Type
REMARK                         _______ _______ _______ _____ _____    ______ ____
ROOT
ATOM      1  C   UNL     1       0.397  10.544  21.642  0.00  0.00    +0.000 A 
ATOM      2  C   UNL     1       0.664   9.171  21.694  0.00  0.00    +0.000 A 
ATOM      3  C   UNL     1       1.211   8.521  20.600  0.00  0.00    +0.000 A 
ATOM      4  O   UNL     1       1.529   7.200  20.782  0.00  0.00    +0.000 OA
ATOM      5  C   UNL     1       2.194   6.551  19.762  0.00  0.00    +0.000 A 
ATOM      6  C   UNL     1       2.483   7.085  18.572  0.00  0.00    +0.000 A 
ATOM      7  C   UNL     1       2.089   8.480  18.319  0.00  0.00    +0.000 A 
ATOM      8  O   UNL     1       2.306   9.019  17.238  0.00  0.00    +0.000 OA
ATOM      9  C   UNL     1       1.444   9.215  19.419  0.00  0.00    +0.000 A 
ATOM     10  C   UNL     1       1.103  10.575  19.315  0.00  0.00    +0.000 A 
ATOM     11  C   UNL     1       0.566  11.253  20.428  0.00  0.00    +0.000 A 
ENDROOT
BRANCH   5  12
ATOM     12  C   UNL     1       2.567   5.173  20.087  0.00  0.00    +0.000 A 
ATOM     13  C   UNL     1       1.899   4.477  21.103  0.00  0.00    +0.000 A 
ATOM     14  C   UNL     1       2.264   3.164  21.410  0.00  0.00    +0.000 A 
ATOM     15  C   UNL     1       3.295   2.544  20.703  0.00  0.00    +0.000 A 
ATOM     16  C   UNL     1       3.957   3.229  19.686  0.00  0.00    +0.000 A 
ATOM     17  C   UNL     1       3.594   4.541  19.376  0.00  0.00    +0.000 A 
ENDBRANCH   5  12
BRANCH  10  18
ATOM     18  O   UNL     1       1.342  11.252  18.145  0.00  0.00    +0.000 OA
ATOM     19  H   UNL     1       0.489  11.399  17.676  0.00  0.00    +0.000 HD
ENDBRANCH  10  18
BRANCH  11  20
ATOM     20  O   UNL     1       0.252  12.590  20.484  0.00  0.00    +0.000 OA
ATOM     21  C   UNL     1       1.310  13.511  20.721  0.00  0.00    +0.000 C 
ENDBRANCH  11  20
BRANCH   1  22
ATOM     22  O   UNL     1      -0.026  11.249  22.750  0.00  0.00    +0.000 OA
BRANCH  22  23
ATOM     23  C   UNL     1      -1.452  11.298  22.916  0.00  0.00    +0.000 C 
BRANCH  23  24
ATOM     24  C   UNL     1      -1.904  12.718  23.274  0.00  0.00    +0.000 C 
BRANCH  24  25
ATOM     25  N   UNL     1      -3.093  13.184  22.521  0.00  0.00    +0.000 NA
BRANCH  25  27
ATOM     26  C   UNL     1      -4.344  12.740  20.370  0.00  0.00    +0.000 C 
ATOM     27  C   UNL     1      -3.028  12.672  21.141  0.00  0.00    +0.000 C 
ENDBRANCH  25  27
BRANCH  25  28
ATOM     28  C   UNL     1      -4.375  12.934  23.197  0.00  0.00    +0.000 C 
ATOM     29  C   UNL     1      -5.069  14.152  23.795  0.00  0.00    +0.000 C 
ENDBRANCH  25  28
ENDBRANCH  24  25
ENDBRANCH  23  24
ENDBRANCH  22  23
ENDBRANCH   1  22
TORSDOF 9
ENDMDL
