MODEL 1
REMARK VINA RESULT:      -9.1      0.000      0.000
REMARK  Name = 
REMARK  3 active torsions:
REMARK  status: ('A' for Active; 'I' for Inactive)
REMARK    1  A    between atoms: C_2  and  C_5
REMARK    2  A    between atoms: C_9  and  C_10
REMARK    3  A    between atoms: C_15  and  N_16
REMARK                            x       y       z     vdW  Elec       q    Type
REMARK                         _______ _______ _______ _____ _____    ______ ____
ROOT
ATOM      1  C   UNL     1       8.209   8.822  18.154  0.00  0.00    +0.000 A 
ATOM      2  N   UNL     1       8.675   7.802  18.858  0.00  0.00    +0.000 NA
ATOM      3  C   UNL     1       7.898   6.714  18.516  0.00  0.00    +0.000 A 
ATOM      4  C   UNL     1       7.885   5.392  18.967  0.00  0.00    +0.000 A 
ATOM      5  N   UNL     1       6.968   4.501  18.477  0.00  0.00    +0.000 NA
ATOM      6  C   UNL     1       6.066   4.905  17.549  0.00  0.00    +0.000 A 
ATOM      7  C   UNL     1       6.067   6.190  17.007  0.00  0.00    +0.000 A 
ATOM      8  C   UNL     1       6.986   7.075  17.540  0.00  0.00    +0.000 A 
ATOM      9  N   UNL     1       7.219   8.395  17.304  0.00  0.00    +0.000 N 
ATOM     10  H   UNL     1       6.725   8.970  16.637  0.00  0.00    +0.000 HD
ENDROOT
BRANCH   6  11
ATOM     11  N   UNL     1       5.131   3.976  17.086  0.00  0.00    +0.000 N 
ATOM     12  C   UNL     1       4.165   3.331  17.852  0.00  0.00    +0.000 A 
ATOM     13  N   UNL     1       3.067   2.890  17.225  0.00  0.00    +0.000 NA
ATOM     14  C   UNL     1       2.077   2.400  17.998  0.00  0.00    +0.000 A 
ATOM     15  C   UNL     1       2.168   2.266  19.362  0.00  0.00    +0.000 A 
ATOM     16  C   UNL     1       3.344   2.692  19.912  0.00  0.00    +0.000 A 
ATOM     17  N   UNL     1       4.331   3.244  19.188  0.00  0.00    +0.000 NA
ATOM     18  H   UNL     1       5.483   3.390  16.342  0.00  0.00    +0.000 HD
ENDBRANCH   6  11
BRANCH   1  23
ATOM     19  C   UNL     1      10.122  11.913  19.155  0.00  0.00    +0.000 A 
ATOM     20  C   UNL     1       9.502  12.882  18.353  0.00  0.00    +0.000 A 
ATOM     21  C   UNL     1       8.464  12.530  17.494  0.00  0.00    +0.000 A 
ATOM     22  C   UNL     1       8.040  11.203  17.426  0.00  0.00    +0.000 A 
ATOM     23  C   UNL     1       8.648  10.214  18.213  0.00  0.00    +0.000 A 
ATOM     24  C   UNL     1       9.684  10.581  19.078  0.00  0.00    +0.000 A 
BRANCH  19  26
ATOM     25  F   UNL     1      12.333  11.466  19.974  0.00  0.00    +0.000 F 
ATOM     26  C   UNL     1      11.245  12.276  20.094  0.00  0.00    +0.000 C 
ATOM     27  F   UNL     1      10.872  12.207  21.402  0.00  0.00    +0.000 F 
ATOM     28  F   UNL     1      11.701  13.544  19.899  0.00  0.00    +0.000 F 
ENDBRANCH  19  26
ENDBRANCH   1  23
TORSDOF 3
ENDMDL
MODEL 2
REMARK VINA RESULT:      -8.7      6.978      8.557
REMARK  Name = 
REMARK  3 active torsions:
REMARK  status: ('A' for Active; 'I' for Inactive)
REMARK    1  A    between atoms: C_2  and  C_5
REMARK    2  A    between atoms: C_9  and  C_10
REMARK    3  A    between atoms: C_15  and  N_16
REMARK                            x       y       z     vdW  Elec       q    Type
REMARK                         _______ _______ _______ _____ _____    ______ ____
ROOT
ATOM      1  C   UNL     1       3.932   6.698  18.149  0.00  0.00    +0.000 A 
ATOM      2  N   UNL     1       3.322   6.544  19.314  0.00  0.00    +0.000 NA
ATOM      3  C   UNL     1       2.380   7.549  19.388  0.00  0.00    +0.000 A 
ATOM      4  C   UNL     1       1.480   7.920  20.392  0.00  0.00    +0.000 A 
ATOM      5  N   UNL     1       0.660   9.003  20.222  0.00  0.00    +0.000 NA
ATOM      6  C   UNL     1       0.721   9.721  19.073  0.00  0.00    +0.000 A 
ATOM      7  C   UNL     1       1.546   9.365  18.005  0.00  0.00    +0.000 A 
ATOM      8  C   UNL     1       2.382   8.286  18.217  0.00  0.00    +0.000 A 
ATOM      9  N   UNL     1       3.343   7.715  17.439  0.00  0.00    +0.000 N 
ATOM     10  H   UNL     1       3.598   8.009  16.508  0.00  0.00    +0.000 HD
ENDROOT
BRANCH   6  11
ATOM     11  N   UNL     1      -0.115  10.832  18.941  0.00  0.00    +0.000 N 
ATOM     12  C   UNL     1      -1.421  10.826  18.462  0.00  0.00    +0.000 A 
ATOM     13  N   UNL     1      -2.232  11.817  18.855  0.00  0.00    +0.000 NA
ATOM     14  C   UNL     1      -3.530  11.719  18.504  0.00  0.00    +0.000 A 
ATOM     15  C   UNL     1      -4.035  10.713  17.719  0.00  0.00    +0.000 A 
ATOM     16  C   UNL     1      -3.127   9.774  17.319  0.00  0.00    +0.000 A 
ATOM     17  N   UNL     1      -1.838   9.797  17.697  0.00  0.00    +0.000 NA
ATOM     18  H   UNL     1       0.380  11.677  18.690  0.00  0.00    +0.000 HD
ENDBRANCH   6  11
BRANCH   1  23
ATOM     19  C   UNL     1       6.150   4.799  15.764  0.00  0.00    +0.000 A 
ATOM     20  C   UNL     1       7.207   4.438  16.611  0.00  0.00    +0.000 A 
ATOM     21  C   UNL     1       7.195   4.809  17.954  0.00  0.00    +0.000 A 
ATOM     22  C   UNL     1       6.126   5.549  18.459  0.00  0.00    +0.000 A 
ATOM     23  C   UNL     1       5.059   5.927  17.630  0.00  0.00    +0.000 A 
ATOM     24  C   UNL     1       5.079   5.543  16.286  0.00  0.00    +0.000 A 
BRANCH  19  26
ATOM     25  F   UNL     1       6.441   3.089  14.104  0.00  0.00    +0.000 F 
ATOM     26  C   UNL     1       6.144   4.403  14.309  0.00  0.00    +0.000 C 
ATOM     27  F   UNL     1       7.051   5.107  13.574  0.00  0.00    +0.000 F 
ATOM     28  F   UNL     1       4.937   4.609  13.715  0.00  0.00    +0.000 F 
ENDBRANCH  19  26
ENDBRANCH   1  23
TORSDOF 3
ENDMDL
MODEL 3
REMARK VINA RESULT:      -8.6      7.148      9.121
REMARK  Name = 
REMARK  3 active torsions:
REMARK  status: ('A' for Active; 'I' for Inactive)
REMARK    1  A    between atoms: C_2  and  C_5
REMARK    2  A    between atoms: C_9  and  C_10
REMARK    3  A    between atoms: C_15  and  N_16
REMARK                            x       y       z     vdW  Elec       q    Type
REMARK                         _______ _______ _______ _____ _____    ______ ____
ROOT
ATOM      1  C   UNL     1       2.749   7.051  18.510  0.00  0.00    +0.000 A 
ATOM      2  N   UNL     1       2.327   8.148  17.901  0.00  0.00    +0.000 NA
ATOM      3  C   UNL     1       1.595   8.848  18.839  0.00  0.00    +0.000 A 
ATOM      4  C   UNL     1       0.871  10.042  18.764  0.00  0.00    +0.000 A 
ATOM      5  N   UNL     1       0.192  10.511  19.856  0.00  0.00    +0.000 NA
ATOM      6  C   UNL     1       0.221   9.812  21.018  0.00  0.00    +0.000 A 
ATOM      7  C   UNL     1       0.978   8.651  21.181  0.00  0.00    +0.000 A 
ATOM      8  C   UNL     1       1.630   8.187  20.054  0.00  0.00    +0.000 A 
ATOM      9  N   UNL     1       2.386   7.077  19.835  0.00  0.00    +0.000 N 
ATOM     10  H   UNL     1       2.615   6.376  20.523  0.00  0.00    +0.000 HD
ENDROOT
BRANCH   6  11
ATOM     11  N   UNL     1      -0.501  10.307  22.107  0.00  0.00    +0.000 N 
ATOM     12  C   UNL     1      -0.686  11.648  22.428  0.00  0.00    +0.000 A 
ATOM     13  N   UNL     1      -1.766  11.969  23.153  0.00  0.00    +0.000 NA
ATOM     14  C   UNL     1      -2.012  13.283  23.332  0.00  0.00    +0.000 A 
ATOM     15  C   UNL     1      -1.188  14.283  22.880  0.00  0.00    +0.000 A 
ATOM     16  C   UNL     1      -0.081  13.862  22.196  0.00  0.00    +0.000 A 
ATOM     17  N   UNL     1       0.170  12.568  21.940  0.00  0.00    +0.000 NA
ATOM     18  H   UNL     1      -0.436   9.722  22.928  0.00  0.00    +0.000 HD
ENDBRANCH   6  11
BRANCH   1  23
ATOM     19  C   UNL     1       5.590   5.084  17.003  0.00  0.00    +0.000 A 
ATOM     20  C   UNL     1       4.972   3.844  16.787  0.00  0.00    +0.000 A 
ATOM     21  C   UNL     1       3.636   3.651  17.128  0.00  0.00    +0.000 A 
ATOM     22  C   UNL     1       2.906   4.698  17.693  0.00  0.00    +0.000 A 
ATOM     23  C   UNL     1       3.503   5.946  17.924  0.00  0.00    +0.000 A 
ATOM     24  C   UNL     1       4.844   6.129  17.571  0.00  0.00    +0.000 A 
BRANCH  19  26
ATOM     25  F   UNL     1       7.261   5.302  15.293  0.00  0.00    +0.000 F 
ATOM     26  C   UNL     1       7.035   5.312  16.637  0.00  0.00    +0.000 C 
ATOM     27  F   UNL     1       7.860   4.361  17.158  0.00  0.00    +0.000 F 
ATOM     28  F   UNL     1       7.507   6.507  17.085  0.00  0.00    +0.000 F 
ENDBRANCH  19  26
ENDBRANCH   1  23
TORSDOF 3
ENDMDL
MODEL 4
REMARK VINA RESULT:      -8.6      6.123      7.737
REMARK  Name = 
REMARK  3 active torsions:
REMARK  status: ('A' for Active; 'I' for Inactive)
REMARK    1  A    between atoms: C_2  and  C_5
REMARK    2  A    between atoms: C_9  and  C_10
REMARK    3  A    between atoms: C_15  and  N_16
REMARK                            x       y       z     vdW  Elec       q    Type
REMARK                         _______ _______ _______ _____ _____    ______ ____
ROOT
ATOM      1  C   UNL     1       2.554   7.785  18.637  0.00  0.00    +0.000 A 
ATOM      2  N   UNL     1       2.807   6.553  19.053  0.00  0.00    +0.000 NA
ATOM      3  C   UNL     1       3.887   6.115  18.316  0.00  0.00    +0.000 A 
ATOM      4  C   UNL     1       4.563   4.892  18.278  0.00  0.00    +0.000 A 
ATOM      5  N   UNL     1       5.606   4.702  17.411  0.00  0.00    +0.000 NA
ATOM      6  C   UNL     1       5.985   5.707  16.584  0.00  0.00    +0.000 A 
ATOM      7  C   UNL     1       5.399   6.974  16.618  0.00  0.00    +0.000 A 
ATOM      8  C   UNL     1       4.332   7.126  17.482  0.00  0.00    +0.000 A 
ATOM      9  N   UNL     1       3.500   8.177  17.722  0.00  0.00    +0.000 N 
ATOM     10  H   UNL     1       3.553   9.082  17.280  0.00  0.00    +0.000 HD
ENDROOT
BRANCH   6  11
ATOM     11  N   UNL     1       7.039   5.474  15.697  0.00  0.00    +0.000 N 
ATOM     12  C   UNL     1       6.945   4.859  14.453  0.00  0.00    +0.000 A 
ATOM     13  N   UNL     1       7.883   5.152  13.543  0.00  0.00    +0.000 NA
ATOM     14  C   UNL     1       7.699   4.665  12.299  0.00  0.00    +0.000 A 
ATOM     15  C   UNL     1       6.659   3.842  11.946  0.00  0.00    +0.000 A 
ATOM     16  C   UNL     1       5.779   3.552  12.951  0.00  0.00    +0.000 A 
ATOM     17  N   UNL     1       5.888   4.065  14.188  0.00  0.00    +0.000 NA
ATOM     18  H   UNL     1       7.914   5.269  16.160  0.00  0.00    +0.000 HD
ENDBRANCH   6  11
BRANCH   1  23
ATOM     19  C   UNL     1       0.035   9.531  20.833  0.00  0.00    +0.000 A 
ATOM     20  C   UNL     1      -0.648  10.310  19.888  0.00  0.00    +0.000 A 
ATOM     21  C   UNL     1      -0.292  10.264  18.542  0.00  0.00    +0.000 A 
ATOM     22  C   UNL     1       0.756   9.440  18.130  0.00  0.00    +0.000 A 
ATOM     23  C   UNL     1       1.458   8.655  19.057  0.00  0.00    +0.000 A 
ATOM     24  C   UNL     1       1.087   8.705  20.404  0.00  0.00    +0.000 A 
BRANCH  19  26
ATOM     25  F   UNL     1      -1.033   8.467  22.700  0.00  0.00    +0.000 F 
ATOM     26  C   UNL     1      -0.339   9.566  22.293  0.00  0.00    +0.000 C 
ATOM     27  F   UNL     1      -1.122  10.636  22.604  0.00  0.00    +0.000 F 
ATOM     28  F   UNL     1       0.747   9.644  23.110  0.00  0.00    +0.000 F 
ENDBRANCH  19  26
ENDBRANCH   1  23
TORSDOF 3
ENDMDL
MODEL 5
REMARK VINA RESULT:      -8.4      6.117      9.098
REMARK  Name = 
REMARK  3 active torsions:
REMARK  status: ('A' for Active; 'I' for Inactive)
REMARK    1  A    between atoms: C_2  and  C_5
REMARK    2  A    between atoms: C_9  and  C_10
REMARK    3  A    between atoms: C_15  and  N_16
REMARK                            x       y       z     vdW  Elec       q    Type
REMARK                         _______ _______ _______ _____ _____    ______ ____
ROOT
ATOM      1  C   UNL     1       2.707   6.957  18.520  0.00  0.00    +0.000 A 
ATOM      2  N   UNL     1       2.259   7.031  19.764  0.00  0.00    +0.000 NA
ATOM      3  C   UNL     1       1.694   8.283  19.892  0.00  0.00    +0.000 A 
ATOM      4  C   UNL     1       1.111   8.943  20.978  0.00  0.00    +0.000 A 
ATOM      5  N   UNL     1       0.648  10.224  20.845  0.00  0.00    +0.000 NA
ATOM      6  C   UNL     1       0.757  10.858  19.651  0.00  0.00    +0.000 A 
ATOM      7  C   UNL     1       1.265  10.235  18.510  0.00  0.00    +0.000 A 
ATOM      8  C   UNL     1       1.750   8.953  18.683  0.00  0.00    +0.000 A 
ATOM      9  N   UNL     1       2.361   8.090  17.825  0.00  0.00    +0.000 N 
ATOM     10  H   UNL     1       2.554   8.266  16.851  0.00  0.00    +0.000 HD
ENDROOT
BRANCH   6  11
ATOM     11  N   UNL     1       0.294  12.173  19.554  0.00  0.00    +0.000 N 
ATOM     12  C   UNL     1       1.078  13.321  19.549  0.00  0.00    +0.000 A 
ATOM     13  N   UNL     1       0.575  14.415  18.961  0.00  0.00    +0.000 NA
ATOM     14  C   UNL     1       1.400  15.474  18.834  0.00  0.00    +0.000 A 
ATOM     15  C   UNL     1       2.679  15.510  19.330  0.00  0.00    +0.000 A 
ATOM     16  C   UNL     1       3.092  14.370  19.961  0.00  0.00    +0.000 A 
ATOM     17  N   UNL     1       2.327  13.271  20.056  0.00  0.00    +0.000 NA
ATOM     18  H   UNL     1      -0.595  12.319  20.013  0.00  0.00    +0.000 HD
ENDBRANCH   6  11
BRANCH   1  23
ATOM     19  C   UNL     1       5.525   5.004  16.951  0.00  0.00    +0.000 A 
ATOM     20  C   UNL     1       4.902   3.767  16.730  0.00  0.00    +0.000 A 
ATOM     21  C   UNL     1       3.570   3.573  17.086  0.00  0.00    +0.000 A 
ATOM     22  C   UNL     1       2.850   4.613  17.673  0.00  0.00    +0.000 A 
ATOM     23  C   UNL     1       3.452   5.858  17.911  0.00  0.00    +0.000 A 
ATOM     24  C   UNL     1       4.788   6.044  17.542  0.00  0.00    +0.000 A 
BRANCH  19  26
ATOM     25  F   UNL     1       7.830   4.367  17.166  0.00  0.00    +0.000 F 
ATOM     26  C   UNL     1       6.966   5.234  16.569  0.00  0.00    +0.000 C 
ATOM     27  F   UNL     1       7.400   6.481  16.904  0.00  0.00    +0.000 F 
ATOM     28  F   UNL     1       7.178   5.109  15.230  0.00  0.00    +0.000 F 
ENDBRANCH  19  26
ENDBRANCH   1  23
TORSDOF 3
ENDMDL
MODEL 6
REMARK VINA RESULT:      -8.4      9.321     11.030
REMARK  Name = 
REMARK  3 active torsions:
REMARK  status: ('A' for Active; 'I' for Inactive)
REMARK    1  A    between atoms: C_2  and  C_5
REMARK    2  A    between atoms: C_9  and  C_10
REMARK    3  A    between atoms: C_15  and  N_16
REMARK                            x       y       z     vdW  Elec       q    Type
REMARK                         _______ _______ _______ _____ _____    ______ ____
ROOT
ATOM      1  C   UNL     1       1.469   7.932  20.361  0.00  0.00    +0.000 A 
ATOM      2  N   UNL     1       1.454   9.112  19.760  0.00  0.00    +0.000 NA
ATOM      3  C   UNL     1       0.696   9.940  20.561  0.00  0.00    +0.000 A 
ATOM      4  C   UNL     1       0.291  11.271  20.419  0.00  0.00    +0.000 A 
ATOM      5  N   UNL     1      -0.506  11.859  21.364  0.00  0.00    +0.000 NA
ATOM      6  C   UNL     1      -0.906  11.145  22.446  0.00  0.00    +0.000 A 
ATOM      7  C   UNL     1      -0.483   9.836  22.684  0.00  0.00    +0.000 A 
ATOM      8  C   UNL     1       0.297   9.261  21.699  0.00  0.00    +0.000 A 
ATOM      9  N   UNL     1       0.819   8.010  21.569  0.00  0.00    +0.000 N 
ATOM     10  H   UNL     1       0.720   7.259  22.235  0.00  0.00    +0.000 HD
ENDROOT
BRANCH   6  11
ATOM     11  N   UNL     1      -1.736  11.768  23.381  0.00  0.00    +0.000 N 
ATOM     12  C   UNL     1      -3.018  12.254  23.146  0.00  0.00    +0.000 A 
ATOM     13  N   UNL     1      -3.848  12.349  24.194  0.00  0.00    +0.000 NA
ATOM     14  C   UNL     1      -5.128  12.680  23.930  0.00  0.00    +0.000 A 
ATOM     15  C   UNL     1      -5.595  12.989  22.677  0.00  0.00    +0.000 A 
ATOM     16  C   UNL     1      -4.667  12.917  21.675  0.00  0.00    +0.000 A 
ATOM     17  N   UNL     1      -3.398  12.531  21.882  0.00  0.00    +0.000 NA
ATOM     18  H   UNL     1      -1.231  12.330  24.052  0.00  0.00    +0.000 HD
ENDBRANCH   6  11
BRANCH   1  23
ATOM     19  C   UNL     1       2.368   4.283  20.063  0.00  0.00    +0.000 A 
ATOM     20  C   UNL     1       3.241   4.312  18.966  0.00  0.00    +0.000 A 
ATOM     21  C   UNL     1       3.538   5.515  18.331  0.00  0.00    +0.000 A 
ATOM     22  C   UNL     1       2.959   6.700  18.784  0.00  0.00    +0.000 A 
ATOM     23  C   UNL     1       2.078   6.697  19.875  0.00  0.00    +0.000 A 
ATOM     24  C   UNL     1       1.793   5.484  20.510  0.00  0.00    +0.000 A 
BRANCH  19  26
ATOM     25  F   UNL     1       2.132   1.896  19.959  0.00  0.00    +0.000 F 
ATOM     26  C   UNL     1       2.037   2.990  20.766  0.00  0.00    +0.000 C 
ATOM     27  F   UNL     1       0.768   2.977  21.261  0.00  0.00    +0.000 F 
ATOM     28  F   UNL     1       2.857   2.745  21.824  0.00  0.00    +0.000 F 
ENDBRANCH  19  26
ENDBRANCH   1  23
TORSDOF 3
ENDMDL
MODEL 7
REMARK VINA RESULT:      -8.4      8.070     10.165
REMARK  Name = 
REMARK  3 active torsions:
REMARK  status: ('A' for Active; 'I' for Inactive)
REMARK    1  A    between atoms: C_2  and  C_5
REMARK    2  A    between atoms: C_9  and  C_10
REMARK    3  A    between atoms: C_15  and  N_16
REMARK                            x       y       z     vdW  Elec       q    Type
REMARK                         _______ _______ _______ _____ _____    ______ ____
ROOT
ATOM      1  C   UNL     1       2.526   7.199  18.638  0.00  0.00    +0.000 A 
ATOM      2  N   UNL     1       2.115   8.279  17.992  0.00  0.00    +0.000 NA
ATOM      3  C   UNL     1       1.417   9.034  18.913  0.00  0.00    +0.000 A 
ATOM      4  C   UNL     1       0.717  10.239  18.801  0.00  0.00    +0.000 A 
ATOM      5  N   UNL     1       0.070  10.768  19.886  0.00  0.00    +0.000 NA
ATOM      6  C   UNL     1       0.108  10.118  21.075  0.00  0.00    +0.000 A 
ATOM      7  C   UNL     1       0.844   8.949  21.273  0.00  0.00    +0.000 A 
ATOM      8  C   UNL     1       1.463   8.424  20.154  0.00  0.00    +0.000 A 
ATOM      9  N   UNL     1       2.191   7.289  19.967  0.00  0.00    +0.000 N 
ATOM     10  H   UNL     1       2.419   6.612  20.680  0.00  0.00    +0.000 HD
ENDROOT
BRANCH   6  11
ATOM     11  N   UNL     1      -0.581  10.674  22.156  0.00  0.00    +0.000 N 
ATOM     12  C   UNL     1      -0.674  12.028  22.462  0.00  0.00    +0.000 A 
ATOM     13  N   UNL     1      -1.731  12.431  23.179  0.00  0.00    +0.000 NA
ATOM     14  C   UNL     1      -1.886  13.760  23.343  0.00  0.00    +0.000 A 
ATOM     15  C   UNL     1      -0.994  14.696  22.882  0.00  0.00    +0.000 A 
ATOM     16  C   UNL     1       0.082  14.193  22.207  0.00  0.00    +0.000 A 
ATOM     17  N   UNL     1       0.245  12.882  21.967  0.00  0.00    +0.000 NA
ATOM     18  H   UNL     1      -0.559  10.095  22.985  0.00  0.00    +0.000 HD
ENDBRANCH   6  11
BRANCH   1  23
ATOM     19  C   UNL     1       3.547   3.640  17.927  0.00  0.00    +0.000 A 
ATOM     20  C   UNL     1       4.616   3.841  17.043  0.00  0.00    +0.000 A 
ATOM     21  C   UNL     1       5.004   5.129  16.683  0.00  0.00    +0.000 A 
ATOM     22  C   UNL     1       4.322   6.229  17.202  0.00  0.00    +0.000 A 
ATOM     23  C   UNL     1       3.245   6.055  18.085  0.00  0.00    +0.000 A 
ATOM     24  C   UNL     1       2.870   4.757  18.444  0.00  0.00    +0.000 A 
BRANCH  19  26
ATOM     25  F   UNL     1       3.796   1.265  17.685  0.00  0.00    +0.000 F 
ATOM     26  C   UNL     1       3.115   2.253  18.331  0.00  0.00    +0.000 C 
ATOM     27  F   UNL     1       1.797   2.023  18.075  0.00  0.00    +0.000 F 
ATOM     28  F   UNL     1       3.288   2.017  19.660  0.00  0.00    +0.000 F 
ENDBRANCH  19  26
ENDBRANCH   1  23
TORSDOF 3
ENDMDL
MODEL 8
REMARK VINA RESULT:      -8.3      7.694      9.598
REMARK  Name = 
REMARK  3 active torsions:
REMARK  status: ('A' for Active; 'I' for Inactive)
REMARK    1  A    between atoms: C_2  and  C_5
REMARK    2  A    between atoms: C_9  and  C_10
REMARK    3  A    between atoms: C_15  and  N_16
REMARK                            x       y       z     vdW  Elec       q    Type
REMARK                         _______ _______ _______ _____ _____    ______ ____
ROOT
ATOM      1  C   UNL     1       2.625   7.047  19.144  0.00  0.00    +0.000 A 
ATOM      2  N   UNL     1       2.221   8.126  18.492  0.00  0.00    +0.000 NA
ATOM      3  C   UNL     1       1.428   8.831  19.373  0.00  0.00    +0.000 A 
ATOM      4  C   UNL     1       0.691  10.011  19.234  0.00  0.00    +0.000 A 
ATOM      5  N   UNL     1      -0.056  10.489  20.278  0.00  0.00    +0.000 NA
ATOM      6  C   UNL     1      -0.082   9.812  21.452  0.00  0.00    +0.000 A 
ATOM      7  C   UNL     1       0.682   8.667  21.680  0.00  0.00    +0.000 A 
ATOM      8  C   UNL     1       1.404   8.193  20.601  0.00  0.00    +0.000 A 
ATOM      9  N   UNL     1       2.188   7.091  20.446  0.00  0.00    +0.000 N 
ATOM     10  H   UNL     1       2.389   6.407  21.159  0.00  0.00    +0.000 HD
ENDROOT
BRANCH   6  11
ATOM     11  N   UNL     1      -0.871  10.315  22.490  0.00  0.00    +0.000 N 
ATOM     12  C   UNL     1      -1.109  11.658  22.764  0.00  0.00    +0.000 A 
ATOM     13  N   UNL     1      -2.233  11.968  23.424  0.00  0.00    +0.000 NA
ATOM     14  C   UNL     1      -2.522  13.279  23.554  0.00  0.00    +0.000 A 
ATOM     15  C   UNL     1      -1.703  14.290  23.116  0.00  0.00    +0.000 A 
ATOM     16  C   UNL     1      -0.553  13.882  22.501  0.00  0.00    +0.000 A 
ATOM     17  N   UNL     1      -0.254  12.590  22.294  0.00  0.00    +0.000 NA
ATOM     18  H   UNL     1      -0.833   9.755  23.330  0.00  0.00    +0.000 HD
ENDBRANCH   6  11
BRANCH   1  23
ATOM     19  C   UNL     1       4.816   5.014  16.846  0.00  0.00    +0.000 A 
ATOM     20  C   UNL     1       4.968   3.838  17.593  0.00  0.00    +0.000 A 
ATOM     21  C   UNL     1       4.357   3.706  18.838  0.00  0.00    +0.000 A 
ATOM     22  C   UNL     1       3.591   4.755  19.348  0.00  0.00    +0.000 A 
ATOM     23  C   UNL     1       3.428   5.944  18.622  0.00  0.00    +0.000 A 
ATOM     24  C   UNL     1       4.041   6.061  17.371  0.00  0.00    +0.000 A 
BRANCH  19  26
ATOM     25  F   UNL     1       5.180   6.359  14.892  0.00  0.00    +0.000 F 
ATOM     26  C   UNL     1       5.468   5.173  15.495  0.00  0.00    +0.000 C 
ATOM     27  F   UNL     1       5.084   4.206  14.616  0.00  0.00    +0.000 F 
ATOM     28  F   UNL     1       6.826   5.107  15.558  0.00  0.00    +0.000 F 
ENDBRANCH  19  26
ENDBRANCH   1  23
TORSDOF 3
ENDMDL
MODEL 9
REMARK VINA RESULT:      -8.2      6.493      8.805
REMARK  Name = 
REMARK  3 active torsions:
REMARK  status: ('A' for Active; 'I' for Inactive)
REMARK    1  A    between atoms: C_2  and  C_5
REMARK    2  A    between atoms: C_9  and  C_10
REMARK    3  A    between atoms: C_15  and  N_16
REMARK                            x       y       z     vdW  Elec       q    Type
REMARK                         _______ _______ _______ _____ _____    ______ ____
ROOT
ATOM      1  C   UNL     1       3.950   6.632  18.183  0.00  0.00    +0.000 A 
ATOM      2  N   UNL     1       3.349   6.451  19.349  0.00  0.00    +0.000 NA
ATOM      3  C   UNL     1       2.398   7.446  19.446  0.00  0.00    +0.000 A 
ATOM      4  C   UNL     1       1.501   7.791  20.462  0.00  0.00    +0.000 A 
ATOM      5  N   UNL     1       0.670   8.869  20.316  0.00  0.00    +0.000 NA
ATOM      6  C   UNL     1       0.718   9.608  19.181  0.00  0.00    +0.000 A 
ATOM      7  C   UNL     1       1.540   9.280  18.102  0.00  0.00    +0.000 A 
ATOM      8  C   UNL     1       2.387   8.204  18.288  0.00  0.00    +0.000 A 
ATOM      9  N   UNL     1       3.348   7.656  17.495  0.00  0.00    +0.000 N 
ATOM     10  H   UNL     1       3.595   7.970  16.568  0.00  0.00    +0.000 HD
ENDROOT
BRANCH   6  11
ATOM     11  N   UNL     1      -0.128  10.714  19.073  0.00  0.00    +0.000 N 
ATOM     12  C   UNL     1       0.240  12.048  19.222  0.00  0.00    +0.000 A 
ATOM     13  N   UNL     1      -0.516  12.972  18.614  0.00  0.00    +0.000 NA
ATOM     14  C   UNL     1      -0.067  14.243  18.644  0.00  0.00    +0.000 A 
ATOM     15  C   UNL     1       1.064  14.638  19.313  0.00  0.00    +0.000 A 
ATOM     16  C   UNL     1       1.745  13.638  19.949  0.00  0.00    +0.000 A 
ATOM     17  N   UNL     1       1.369  12.350  19.894  0.00  0.00    +0.000 NA
ATOM     18  H   UNL     1      -1.065  10.536  19.411  0.00  0.00    +0.000 HD
ENDBRANCH   6  11
BRANCH   1  23
ATOM     19  C   UNL     1       6.161   4.778  15.756  0.00  0.00    +0.000 A 
ATOM     20  C   UNL     1       7.236   4.430  16.586  0.00  0.00    +0.000 A 
ATOM     21  C   UNL     1       7.239   4.795  17.930  0.00  0.00    +0.000 A 
ATOM     22  C   UNL     1       6.166   5.516  18.455  0.00  0.00    +0.000 A 
ATOM     23  C   UNL     1       5.081   5.881  17.644  0.00  0.00    +0.000 A 
ATOM     24  C   UNL     1       5.087   5.503  16.297  0.00  0.00    +0.000 A 
BRANCH  19  26
ATOM     25  F   UNL     1       4.937   4.608  13.698  0.00  0.00    +0.000 F 
ATOM     26  C   UNL     1       6.139   4.388  14.299  0.00  0.00    +0.000 C 
ATOM     27  F   UNL     1       6.413   3.067  14.110  0.00  0.00    +0.000 F 
ATOM     28  F   UNL     1       7.055   5.072  13.561  0.00  0.00    +0.000 F 
ENDBRANCH  19  26
ENDBRANCH   1  23
TORSDOF 3
ENDMDL
