MODEL 1
REMARK VINA RESULT:      -7.0      0.000      0.000
REMARK  Name = 
REMARK  18 active torsions:
REMARK  status: ('A' for Active; 'I' for Inactive)
REMARK    1  A    between atoms: C_1  and  C_2
REMARK    2  A    between atoms: C_2  and  O_3
REMARK    3  A    between atoms: O_3  and  C_4
REMARK    4  A    between atoms: C_4  and  O_5
REMARK    5  A    between atoms: C_7  and  C_8
REMARK    6  A    between atoms: C_8  and  O_9
REMARK    7  A    between atoms: O_9  and  C_10
REMARK    8  A    between atoms: C_10  and  C_11
REMARK    9  A    between atoms: C_11  and  N_12
REMARK   10  A    between atoms: N_12  and  C_13
REMARK   11  A    between atoms: C_13  and  C_14
REMARK   12  A    between atoms: C_13  and  C_15
REMARK   13  A    between atoms: C_13  and  C_16
REMARK   14  A    between atoms: C_20  and  C_21
REMARK   15  A    between atoms: C_22  and  C_23
REMARK   16  A    between atoms: C_23  and  O_25
REMARK   17  A    between atoms: O_25  and  C_26
REMARK   18  A    between atoms: C_27  and  C_28
REMARK                            x       y       z     vdW  Elec       q    Type
REMARK                         _______ _______ _______ _____ _____    ______ ____
ROOT
ATOM      1  C   UNL     1       1.516   7.760  20.586  0.00  0.00    +0.000 C 
ATOM      2  C   UNL     1       2.314   7.432  19.542  0.00  0.00    +0.000 C 
ATOM      3  C   UNL     1       2.355   8.048  18.168  0.00  0.00    +0.000 C 
ATOM      4  N   UNL     1       3.233   7.746  17.249  0.00  0.00    +0.000 NA
ATOM      5  C   UNL     1       4.198   6.790  17.468  0.00  0.00    +0.000 C 
ATOM      6  C   UNL     1       5.085   6.554  16.271  0.00  0.00    +0.000 C 
ATOM      7  C   UNL     1       4.293   6.088  18.611  0.00  0.00    +0.000 C 
ATOM      8  C   UNL     1       3.284   6.256  19.710  0.00  0.00    +0.000 C 
ENDROOT
BRANCH   8   9
ATOM      9  C   UNL     1       2.511   4.946  20.010  0.00  0.00    +0.000 A 
ATOM     10  C   UNL     1       2.658   4.379  21.297  0.00  0.00    +0.000 A 
ATOM     11  C   UNL     1       1.891   3.289  21.708  0.00  0.00    +0.000 A 
ATOM     12  C   UNL     1       0.985   2.712  20.828  0.00  0.00    +0.000 A 
ATOM     13  C   UNL     1       0.851   3.226  19.539  0.00  0.00    +0.000 A 
ATOM     14  C   UNL     1       1.602   4.335  19.129  0.00  0.00    +0.000 A 
ATOM     15 CL   UNL     1       1.298   4.899  17.526  0.00  0.00    +0.000 Cl
ENDBRANCH   8   9
BRANCH   1  16
ATOM     16  O   UNL     1       1.707   7.088  21.783  0.00  0.00    +0.000 OA
ATOM     17  H   UNL     1       2.660   6.894  21.824  0.00  0.00    +0.000 HD
ENDBRANCH   1  16
BRANCH   7  18
ATOM     18  C   UNL     1       5.366   5.073  18.825  0.00  0.00    +0.000 C 
ATOM     19  O   UNL     1       5.363   3.930  18.404  0.00  0.00    +0.000 OA
BRANCH  18  20
ATOM     20  O   UNL     1       6.364   5.613  19.575  0.00  0.00    +0.000 OA
ATOM     21  C   UNL     1       7.652   5.607  18.958  0.00  0.00    +0.000 C 
ENDBRANCH  18  20
ENDBRANCH   7  18
BRANCH   1  22
ATOM     22  O   UNL     1       0.480   8.658  20.521  0.00  0.00    +0.000 OA
BRANCH  22  24
ATOM     23  C   UNL     1      -0.252   9.608  22.615  0.00  0.00    +0.000 C 
ATOM     24  C   UNL     1      -0.493   8.538  21.573  0.00  0.00    +0.000 C 
ENDBRANCH  22  24
ENDBRANCH   1  22
BRANCH   3  25
ATOM     25  C   UNL     1       1.277   9.048  17.716  0.00  0.00    +0.000 C 
BRANCH  25  26
ATOM     26  O   UNL     1       1.736  10.350  17.373  0.00  0.00    +0.000 OA
BRANCH  26  27
ATOM     27  C   UNL     1       2.409  11.019  18.461  0.00  0.00    +0.000 C 
BRANCH  27  28
ATOM     28  C   UNL     1       1.524  12.145  19.029  0.00  0.00    +0.000 C 
BRANCH  28  29
ATOM     29  N   UNL     1       0.290  11.757  19.723  0.00  0.00    +0.000 NA
ATOM     30  H   UNL     1       0.374  12.035  20.704  0.00  0.00    +0.000 HD
BRANCH  29  31
ATOM     31  C   UNL     1      -0.926  12.453  19.159  0.00  0.00    +0.000 C 
ATOM     32  C   UNL     1      -1.979  12.820  20.222  0.00  0.00    +0.000 C 
ATOM     33  C   UNL     1      -0.515  13.713  18.378  0.00  0.00    +0.000 C 
BRANCH  31  34
ATOM     34  C   UNL     1      -1.596  11.495  18.131  0.00  0.00    +0.000 C 
ATOM     35  N   UNL     1      -1.739  12.013  16.876  0.00  0.00    +0.000 N 
ATOM     36  O   UNL     1      -2.034  10.379  18.398  0.00  0.00    +0.000 OA
ATOM     37  H   UNL     1      -1.322  12.910  16.654  0.00  0.00    +0.000 HD
ATOM     38  H   UNL     1      -2.159  11.445  16.153  0.00  0.00    +0.000 HD
ENDBRANCH  31  34
ENDBRANCH  29  31
ENDBRANCH  28  29
ENDBRANCH  27  28
ENDBRANCH  26  27
ENDBRANCH  25  26
ENDBRANCH   3  25
TORSDOF 13
ENDMDL
MODEL 2
REMARK VINA RESULT:      -6.8      1.311      1.883
REMARK  Name = 
REMARK  18 active torsions:
REMARK  status: ('A' for Active; 'I' for Inactive)
REMARK    1  A    between atoms: C_1  and  C_2
REMARK    2  A    between atoms: C_2  and  O_3
REMARK    3  A    between atoms: O_3  and  C_4
REMARK    4  A    between atoms: C_4  and  O_5
REMARK    5  A    between atoms: C_7  and  C_8
REMARK    6  A    between atoms: C_8  and  O_9
REMARK    7  A    between atoms: O_9  and  C_10
REMARK    8  A    between atoms: C_10  and  C_11
REMARK    9  A    between atoms: C_11  and  N_12
REMARK   10  A    between atoms: N_12  and  C_13
REMARK   11  A    between atoms: C_13  and  C_14
REMARK   12  A    between atoms: C_13  and  C_15
REMARK   13  A    between atoms: C_13  and  C_16
REMARK   14  A    between atoms: C_20  and  C_21
REMARK   15  A    between atoms: C_22  and  C_23
REMARK   16  A    between atoms: C_23  and  O_25
REMARK   17  A    between atoms: O_25  and  C_26
REMARK   18  A    between atoms: C_27  and  C_28
REMARK                            x       y       z     vdW  Elec       q    Type
REMARK                         _______ _______ _______ _____ _____    ______ ____
ROOT
ATOM      1  C   UNL     1       1.587   7.609  20.683  0.00  0.00    +0.000 C 
ATOM      2  C   UNL     1       2.356   7.344  19.600  0.00  0.00    +0.000 C 
ATOM      3  C   UNL     1       2.428   8.099  18.298  0.00  0.00    +0.000 C 
ATOM      4  N   UNL     1       3.279   7.840  17.341  0.00  0.00    +0.000 NA
ATOM      5  C   UNL     1       4.181   6.807  17.445  0.00  0.00    +0.000 C 
ATOM      6  C   UNL     1       5.043   6.643  16.218  0.00  0.00    +0.000 C 
ATOM      7  C   UNL     1       4.237   5.982  18.506  0.00  0.00    +0.000 C 
ATOM      8  C   UNL     1       3.248   6.097  19.630  0.00  0.00    +0.000 C 
ENDROOT
BRANCH   8   9
ATOM      9  C   UNL     1       2.393   4.815  19.799  0.00  0.00    +0.000 A 
ATOM     10  C   UNL     1       2.423   4.170  21.058  0.00  0.00    +0.000 A 
ATOM     11  C   UNL     1       1.577   3.100  21.351  0.00  0.00    +0.000 A 
ATOM     12  C   UNL     1       0.707   2.622  20.380  0.00  0.00    +0.000 A 
ATOM     13  C   UNL     1       0.688   3.213  19.118  0.00  0.00    +0.000 A 
ATOM     14  C   UNL     1       1.519   4.303  18.825  0.00  0.00    +0.000 A 
ATOM     15 CL   UNL     1       1.354   4.970  17.242  0.00  0.00    +0.000 Cl
ENDBRANCH   8   9
BRANCH   1  16
ATOM     16  O   UNL     1       1.741   6.803  21.799  0.00  0.00    +0.000 OA
ATOM     17  H   UNL     1       2.154   5.983  21.474  0.00  0.00    +0.000 HD
ENDBRANCH   1  16
BRANCH   7  18
ATOM     18  C   UNL     1       5.243   4.884  18.597  0.00  0.00    +0.000 C 
ATOM     19  O   UNL     1       5.250   3.865  17.930  0.00  0.00    +0.000 OA
BRANCH  18  20
ATOM     20  O   UNL     1       6.164   5.185  19.552  0.00  0.00    +0.000 OA
ATOM     21  C   UNL     1       7.381   5.746  19.059  0.00  0.00    +0.000 C 
ENDBRANCH  18  20
ENDBRANCH   7  18
BRANCH   1  22
ATOM     22  O   UNL     1       0.612   8.574  20.727  0.00  0.00    +0.000 OA
BRANCH  22  24
ATOM     23  C   UNL     1      -0.434   9.666  22.608  0.00  0.00    +0.000 C 
ATOM     24  C   UNL     1      -0.359   8.406  21.774  0.00  0.00    +0.000 C 
ENDBRANCH  22  24
ENDBRANCH   1  22
BRANCH   3  25
ATOM     25  C   UNL     1       1.414   9.208  17.969  0.00  0.00    +0.000 C 
BRANCH  25  26
ATOM     26  O   UNL     1       1.632  10.462  18.604  0.00  0.00    +0.000 OA
BRANCH  26  27
ATOM     27  C   UNL     1       0.692  11.478  18.191  0.00  0.00    +0.000 C 
BRANCH  27  28
ATOM     28  C   UNL     1      -0.688  10.852  17.915  0.00  0.00    +0.000 C 
BRANCH  28  29
ATOM     29  N   UNL     1      -1.719  11.713  17.321  0.00  0.00    +0.000 NA
ATOM     30  H   UNL     1      -1.324  12.157  16.488  0.00  0.00    +0.000 HD
BRANCH  29  31
ATOM     31  C   UNL     1      -2.933  10.929  16.882  0.00  0.00    +0.000 C 
ATOM     32  C   UNL     1      -3.034  10.745  15.356  0.00  0.00    +0.000 C 
ATOM     33  C   UNL     1      -2.971   9.556  17.575  0.00  0.00    +0.000 C 
BRANCH  31  34
ATOM     34  C   UNL     1      -4.201  11.699  17.357  0.00  0.00    +0.000 C 
ATOM     35  N   UNL     1      -4.104  12.246  18.604  0.00  0.00    +0.000 N 
ATOM     36  O   UNL     1      -5.248  11.779  16.720  0.00  0.00    +0.000 OA
ATOM     37  H   UNL     1      -3.216  12.222  19.093  0.00  0.00    +0.000 HD
ATOM     38  H   UNL     1      -4.886  12.767  18.975  0.00  0.00    +0.000 HD
ENDBRANCH  31  34
ENDBRANCH  29  31
ENDBRANCH  28  29
ENDBRANCH  27  28
ENDBRANCH  26  27
ENDBRANCH  25  26
ENDBRANCH   3  25
TORSDOF 13
ENDMDL
MODEL 3
REMARK VINA RESULT:      -6.8      1.697      2.133
REMARK  Name = 
REMARK  18 active torsions:
REMARK  status: ('A' for Active; 'I' for Inactive)
REMARK    1  A    between atoms: C_1  and  C_2
REMARK    2  A    between atoms: C_2  and  O_3
REMARK    3  A    between atoms: O_3  and  C_4
REMARK    4  A    between atoms: C_4  and  O_5
REMARK    5  A    between atoms: C_7  and  C_8
REMARK    6  A    between atoms: C_8  and  O_9
REMARK    7  A    between atoms: O_9  and  C_10
REMARK    8  A    between atoms: C_10  and  C_11
REMARK    9  A    between atoms: C_11  and  N_12
REMARK   10  A    between atoms: N_12  and  C_13
REMARK   11  A    between atoms: C_13  and  C_14
REMARK   12  A    between atoms: C_13  and  C_15
REMARK   13  A    between atoms: C_13  and  C_16
REMARK   14  A    between atoms: C_20  and  C_21
REMARK   15  A    between atoms: C_22  and  C_23
REMARK   16  A    between atoms: C_23  and  O_25
REMARK   17  A    between atoms: O_25  and  C_26
REMARK   18  A    between atoms: C_27  and  C_28
REMARK                            x       y       z     vdW  Elec       q    Type
REMARK                         _______ _______ _______ _____ _____    ______ ____
ROOT
ATOM      1  C   UNL     1       1.923   6.983  20.362  0.00  0.00    +0.000 C 
ATOM      2  C   UNL     1       2.654   6.889  19.225  0.00  0.00    +0.000 C 
ATOM      3  C   UNL     1       2.701   7.846  18.063  0.00  0.00    +0.000 C 
ATOM      4  N   UNL     1       3.518   7.736  17.049  0.00  0.00    +0.000 NA
ATOM      5  C   UNL     1       4.403   6.687  16.953  0.00  0.00    +0.000 C 
ATOM      6  C   UNL     1       5.225   6.715  15.688  0.00  0.00    +0.000 C 
ATOM      7  C   UNL     1       4.475   5.699  17.863  0.00  0.00    +0.000 C 
ATOM      8  C   UNL     1       3.522   5.642  19.022  0.00  0.00    +0.000 C 
ENDROOT
BRANCH   8   9
ATOM      9  C   UNL     1       2.649   4.361  19.007  0.00  0.00    +0.000 A 
ATOM     10  C   UNL     1       1.497   4.363  18.187  0.00  0.00    +0.000 A 
ATOM     11  C   UNL     1       0.734   3.212  17.994  0.00  0.00    +0.000 A 
ATOM     12  C   UNL     1       1.082   2.037  18.647  0.00  0.00    +0.000 A 
ATOM     13  C   UNL     1       2.189   2.018  19.494  0.00  0.00    +0.000 A 
ATOM     14  C   UNL     1       2.973   3.166  19.673  0.00  0.00    +0.000 A 
ATOM     15 CL   UNL     1       4.343   2.988  20.706  0.00  0.00    +0.000 Cl
ENDBRANCH   8   9
BRANCH   1  16
ATOM     16  O   UNL     1       2.095   6.003  21.325  0.00  0.00    +0.000 OA
ATOM     17  H   UNL     1       1.625   5.219  20.987  0.00  0.00    +0.000 HD
ENDBRANCH   1  16
BRANCH   7  18
ATOM     18  C   UNL     1       5.462   4.587  17.739  0.00  0.00    +0.000 C 
ATOM     19  O   UNL     1       5.455   3.716  16.888  0.00  0.00    +0.000 OA
BRANCH  18  20
ATOM     20  O   UNL     1       6.385   4.682  18.735  0.00  0.00    +0.000 OA
ATOM     21  C   UNL     1       7.507   5.515  18.438  0.00  0.00    +0.000 C 
ENDBRANCH  18  20
ENDBRANCH   7  18
BRANCH   1  22
ATOM     22  O   UNL     1       0.968   7.941  20.595  0.00  0.00    +0.000 OA
BRANCH  22  24
ATOM     23  C   UNL     1      -0.164   9.246  22.280  0.00  0.00    +0.000 C 
ATOM     24  C   UNL     1       1.165   8.714  21.791  0.00  0.00    +0.000 C 
ENDBRANCH  22  24
ENDBRANCH   1  22
BRANCH   3  25
ATOM     25  C   UNL     1       1.699   9.008  17.953  0.00  0.00    +0.000 C 
BRANCH  25  26
ATOM     26  O   UNL     1       2.083  10.226  18.581  0.00  0.00    +0.000 OA
BRANCH  26  27
ATOM     27  C   UNL     1       0.963  11.083  18.888  0.00  0.00    +0.000 C 
BRANCH  27  28
ATOM     28  C   UNL     1      -0.304  10.593  18.162  0.00  0.00    +0.000 C 
BRANCH  28  29
ATOM     29  N   UNL     1      -1.277  11.605  17.730  0.00  0.00    +0.000 NA
ATOM     30  H   UNL     1      -1.085  11.836  16.752  0.00  0.00    +0.000 HD
BRANCH  29  31
ATOM     31  C   UNL     1      -2.698  11.099  17.804  0.00  0.00    +0.000 C 
ATOM     32  C   UNL     1      -2.805   9.585  18.064  0.00  0.00    +0.000 C 
ATOM     33  C   UNL     1      -3.491  11.868  18.876  0.00  0.00    +0.000 C 
BRANCH  31  34
ATOM     34  C   UNL     1      -3.388  11.402  16.442  0.00  0.00    +0.000 C 
ATOM     35  N   UNL     1      -4.598  12.028  16.540  0.00  0.00    +0.000 N 
ATOM     36  O   UNL     1      -2.948  11.066  15.346  0.00  0.00    +0.000 OA
ATOM     37  H   UNL     1      -4.921  12.351  17.445  0.00  0.00    +0.000 HD
ATOM     38  H   UNL     1      -5.101  12.263  15.696  0.00  0.00    +0.000 HD
ENDBRANCH  31  34
ENDBRANCH  29  31
ENDBRANCH  28  29
ENDBRANCH  27  28
ENDBRANCH  26  27
ENDBRANCH  25  26
ENDBRANCH   3  25
TORSDOF 13
ENDMDL
MODEL 4
REMARK VINA RESULT:      -6.8      1.557      2.201
REMARK  Name = 
REMARK  18 active torsions:
REMARK  status: ('A' for Active; 'I' for Inactive)
REMARK    1  A    between atoms: C_1  and  C_2
REMARK    2  A    between atoms: C_2  and  O_3
REMARK    3  A    between atoms: O_3  and  C_4
REMARK    4  A    between atoms: C_4  and  O_5
REMARK    5  A    between atoms: C_7  and  C_8
REMARK    6  A    between atoms: C_8  and  O_9
REMARK    7  A    between atoms: O_9  and  C_10
REMARK    8  A    between atoms: C_10  and  C_11
REMARK    9  A    between atoms: C_11  and  N_12
REMARK   10  A    between atoms: N_12  and  C_13
REMARK   11  A    between atoms: C_13  and  C_14
REMARK   12  A    between atoms: C_13  and  C_15
REMARK   13  A    between atoms: C_13  and  C_16
REMARK   14  A    between atoms: C_20  and  C_21
REMARK   15  A    between atoms: C_22  and  C_23
REMARK   16  A    between atoms: C_23  and  O_25
REMARK   17  A    between atoms: O_25  and  C_26
REMARK   18  A    between atoms: C_27  and  C_28
REMARK                            x       y       z     vdW  Elec       q    Type
REMARK                         _______ _______ _______ _____ _____    ______ ____
ROOT
ATOM      1  C   UNL     1       1.453   7.512  20.401  0.00  0.00    +0.000 C 
ATOM      2  C   UNL     1       2.305   7.303  19.369  0.00  0.00    +0.000 C 
ATOM      3  C   UNL     1       2.519   8.157  18.147  0.00  0.00    +0.000 C 
ATOM      4  N   UNL     1       3.442   7.940  17.247  0.00  0.00    +0.000 NA
ATOM      5  C   UNL     1       4.293   6.863  17.340  0.00  0.00    +0.000 C 
ATOM      6  C   UNL     1       5.254   6.762  16.181  0.00  0.00    +0.000 C 
ATOM      7  C   UNL     1       4.225   5.954  18.328  0.00  0.00    +0.000 C 
ATOM      8  C   UNL     1       3.144   6.020  19.369  0.00  0.00    +0.000 C 
ENDROOT
BRANCH   8   9
ATOM      9  C   UNL     1       2.232   4.766  19.355  0.00  0.00    +0.000 A 
ATOM     10  C   UNL     1       1.587   4.439  18.140  0.00  0.00    +0.000 A 
ATOM     11  C   UNL     1       0.868   3.254  17.990  0.00  0.00    +0.000 A 
ATOM     12  C   UNL     1       0.743   2.382  19.064  0.00  0.00    +0.000 A 
ATOM     13  C   UNL     1       1.334   2.701  20.284  0.00  0.00    +0.000 A 
ATOM     14  C   UNL     1       2.077   3.879  20.435  0.00  0.00    +0.000 A 
ATOM     15 CL   UNL     1       2.798   4.122  21.983  0.00  0.00    +0.000 Cl
ENDBRANCH   8   9
BRANCH   1  16
ATOM     16  O   UNL     1       1.478   6.612  21.454  0.00  0.00    +0.000 OA
ATOM     17  H   UNL     1       2.131   5.934  21.202  0.00  0.00    +0.000 HD
ENDBRANCH   1  16
BRANCH   7  18
ATOM     18  C   UNL     1       5.178   4.808  18.411  0.00  0.00    +0.000 C 
ATOM     19  O   UNL     1       5.082   3.754  17.809  0.00  0.00    +0.000 OA
BRANCH  18  20
ATOM     20  O   UNL     1       6.184   5.112  19.274  0.00  0.00    +0.000 OA
ATOM     21  C   UNL     1       7.463   5.301  18.666  0.00  0.00    +0.000 C 
ENDBRANCH  18  20
ENDBRANCH   7  18
BRANCH   1  22
ATOM     22  O   UNL     1       0.514   8.512  20.443  0.00  0.00    +0.000 OA
BRANCH  22  24
ATOM     23  C   UNL     1       0.076   9.707  22.494  0.00  0.00    +0.000 C 
ATOM     24  C   UNL     1      -0.302   8.527  21.627  0.00  0.00    +0.000 C 
ENDBRANCH  22  24
ENDBRANCH   1  22
BRANCH   3  25
ATOM     25  C   UNL     1       1.580   9.333  17.828  0.00  0.00    +0.000 C 
BRANCH  25  26
ATOM     26  O   UNL     1       1.905  10.576  18.439  0.00  0.00    +0.000 OA
BRANCH  26  27
ATOM     27  C   UNL     1       0.742  11.367  18.766  0.00  0.00    +0.000 C 
BRANCH  27  28
ATOM     28  C   UNL     1      -0.521  10.757  18.130  0.00  0.00    +0.000 C 
BRANCH  28  29
ATOM     29  N   UNL     1      -1.511  11.679  17.560  0.00  0.00    +0.000 NA
ATOM     30  H   UNL     1      -1.082  12.155  16.763  0.00  0.00    +0.000 HD
BRANCH  29  31
ATOM     31  C   UNL     1      -2.736  10.958  17.051  0.00  0.00    +0.000 C 
ATOM     32  C   UNL     1      -2.803  10.856  15.516  0.00  0.00    +0.000 C 
ATOM     33  C   UNL     1      -2.834   9.552  17.670  0.00  0.00    +0.000 C 
BRANCH  31  34
ATOM     34  C   UNL     1      -3.992  11.741  17.535  0.00  0.00    +0.000 C 
ATOM     35  N   UNL     1      -3.841  12.379  18.733  0.00  0.00    +0.000 N 
ATOM     36  O   UNL     1      -5.072  11.759  16.951  0.00  0.00    +0.000 OA
ATOM     37  H   UNL     1      -2.929  12.405  19.175  0.00  0.00    +0.000 HD
ATOM     38  H   UNL     1      -4.613  12.915  19.106  0.00  0.00    +0.000 HD
ENDBRANCH  31  34
ENDBRANCH  29  31
ENDBRANCH  28  29
ENDBRANCH  27  28
ENDBRANCH  26  27
ENDBRANCH  25  26
ENDBRANCH   3  25
TORSDOF 13
ENDMDL
MODEL 5
REMARK VINA RESULT:      -6.8      1.812      2.331
REMARK  Name = 
REMARK  18 active torsions:
REMARK  status: ('A' for Active; 'I' for Inactive)
REMARK    1  A    between atoms: C_1  and  C_2
REMARK    2  A    between atoms: C_2  and  O_3
REMARK    3  A    between atoms: O_3  and  C_4
REMARK    4  A    between atoms: C_4  and  O_5
REMARK    5  A    between atoms: C_7  and  C_8
REMARK    6  A    between atoms: C_8  and  O_9
REMARK    7  A    between atoms: O_9  and  C_10
REMARK    8  A    between atoms: C_10  and  C_11
REMARK    9  A    between atoms: C_11  and  N_12
REMARK   10  A    between atoms: N_12  and  C_13
REMARK   11  A    between atoms: C_13  and  C_14
REMARK   12  A    between atoms: C_13  and  C_15
REMARK   13  A    between atoms: C_13  and  C_16
REMARK   14  A    between atoms: C_20  and  C_21
REMARK   15  A    between atoms: C_22  and  C_23
REMARK   16  A    between atoms: C_23  and  O_25
REMARK   17  A    between atoms: O_25  and  C_26
REMARK   18  A    between atoms: C_27  and  C_28
REMARK                            x       y       z     vdW  Elec       q    Type
REMARK                         _______ _______ _______ _____ _____    ______ ____
ROOT
ATOM      1  C   UNL     1       1.630   7.611  20.482  0.00  0.00    +0.000 C 
ATOM      2  C   UNL     1       2.487   7.251  19.496  0.00  0.00    +0.000 C 
ATOM      3  C   UNL     1       2.634   7.850  18.121  0.00  0.00    +0.000 C 
ATOM      4  N   UNL     1       3.563   7.515  17.266  0.00  0.00    +0.000 NA
ATOM      5  C   UNL     1       4.486   6.538  17.557  0.00  0.00    +0.000 C 
ATOM      6  C   UNL     1       5.444   6.266  16.424  0.00  0.00    +0.000 C 
ATOM      7  C   UNL     1       4.488   5.847  18.712  0.00  0.00    +0.000 C 
ATOM      8  C   UNL     1       3.412   6.053  19.739  0.00  0.00    +0.000 C 
ENDROOT
BRANCH   8   9
ATOM      9  C   UNL     1       2.588   4.766  20.000  0.00  0.00    +0.000 A 
ATOM     10  C   UNL     1       2.663   4.190  21.289  0.00  0.00    +0.000 A 
ATOM     11  C   UNL     1       1.847   3.122  21.662  0.00  0.00    +0.000 A 
ATOM     12  C   UNL     1       0.961   2.577  20.742  0.00  0.00    +0.000 A 
ATOM     13  C   UNL     1       0.898   3.100  19.452  0.00  0.00    +0.000 A 
ATOM     14  C   UNL     1       1.698   4.187  19.078  0.00  0.00    +0.000 A 
ATOM     15 CL   UNL     1       1.479   4.766  17.468  0.00  0.00    +0.000 Cl
ENDBRANCH   8   9
BRANCH   1  16
ATOM     16  O   UNL     1       1.724   6.948  21.695  0.00  0.00    +0.000 OA
ATOM     17  H   UNL     1       1.909   7.638  22.356  0.00  0.00    +0.000 HD
ENDBRANCH   1  16
BRANCH   7  18
ATOM     18  C   UNL     1       5.517   4.808  19.005  0.00  0.00    +0.000 C 
ATOM     19  O   UNL     1       5.506   3.657  18.606  0.00  0.00    +0.000 OA
BRANCH  18  20
ATOM     20  O   UNL     1       6.485   5.336  19.802  0.00  0.00    +0.000 OA
ATOM     21  C   UNL     1       7.700   5.674  19.130  0.00  0.00    +0.000 C 
ENDBRANCH  18  20
ENDBRANCH   7  18
BRANCH   1  22
ATOM     22  O   UNL     1       0.624   8.534  20.339  0.00  0.00    +0.000 OA
BRANCH  22  24
ATOM     23  C   UNL     1       0.099  10.047  22.145  0.00  0.00    +0.000 C 
ATOM     24  C   UNL     1      -0.203   8.712  21.501  0.00  0.00    +0.000 C 
ENDBRANCH  22  24
ENDBRANCH   1  22
BRANCH   3  25
ATOM     25  C   UNL     1       1.614   8.872  17.590  0.00  0.00    +0.000 C 
BRANCH  25  26
ATOM     26  O   UNL     1       2.060  10.220  17.517  0.00  0.00    +0.000 OA
BRANCH  26  27
ATOM     27  C   UNL     1       1.360  11.099  18.425  0.00  0.00    +0.000 C 
BRANCH  27  28
ATOM     28  C   UNL     1       2.228  12.326  18.760  0.00  0.00    +0.000 C 
BRANCH  28  29
ATOM     29  N   UNL     1       2.318  13.392  17.755  0.00  0.00    +0.000 NA
ATOM     30  H   UNL     1       1.386  13.537  17.358  0.00  0.00    +0.000 HD
BRANCH  29  31
ATOM     31  C   UNL     1       2.762  14.706  18.354  0.00  0.00    +0.000 C 
ATOM     32  C   UNL     1       3.710  14.550  19.558  0.00  0.00    +0.000 C 
ATOM     33  C   UNL     1       3.422  15.593  17.284  0.00  0.00    +0.000 C 
BRANCH  31  34
ATOM     34  C   UNL     1       1.493  15.468  18.838  0.00  0.00    +0.000 C 
ATOM     35  N   UNL     1       1.743  16.537  19.650  0.00  0.00    +0.000 N 
ATOM     36  O   UNL     1       0.339  15.132  18.588  0.00  0.00    +0.000 OA
ATOM     37  H   UNL     1       2.700  16.837  19.800  0.00  0.00    +0.000 HD
ATOM     38  H   UNL     1       0.968  17.084  19.996  0.00  0.00    +0.000 HD
ENDBRANCH  31  34
ENDBRANCH  29  31
ENDBRANCH  28  29
ENDBRANCH  27  28
ENDBRANCH  26  27
ENDBRANCH  25  26
ENDBRANCH   3  25
TORSDOF 13
ENDMDL
MODEL 6
REMARK VINA RESULT:      -6.8      1.360      1.775
REMARK  Name = 
REMARK  18 active torsions:
REMARK  status: ('A' for Active; 'I' for Inactive)
REMARK    1  A    between atoms: C_1  and  C_2
REMARK    2  A    between atoms: C_2  and  O_3
REMARK    3  A    between atoms: O_3  and  C_4
REMARK    4  A    between atoms: C_4  and  O_5
REMARK    5  A    between atoms: C_7  and  C_8
REMARK    6  A    between atoms: C_8  and  O_9
REMARK    7  A    between atoms: O_9  and  C_10
REMARK    8  A    between atoms: C_10  and  C_11
REMARK    9  A    between atoms: C_11  and  N_12
REMARK   10  A    between atoms: N_12  and  C_13
REMARK   11  A    between atoms: C_13  and  C_14
REMARK   12  A    between atoms: C_13  and  C_15
REMARK   13  A    between atoms: C_13  and  C_16
REMARK   14  A    between atoms: C_20  and  C_21
REMARK   15  A    between atoms: C_22  and  C_23
REMARK   16  A    between atoms: C_23  and  O_25
REMARK   17  A    between atoms: O_25  and  C_26
REMARK   18  A    between atoms: C_27  and  C_28
REMARK                            x       y       z     vdW  Elec       q    Type
REMARK                         _______ _______ _______ _____ _____    ______ ____
ROOT
ATOM      1  C   UNL     1       1.626   7.596  20.480  0.00  0.00    +0.000 C 
ATOM      2  C   UNL     1       2.482   7.232  19.494  0.00  0.00    +0.000 C 
ATOM      3  C   UNL     1       2.620   7.817  18.113  0.00  0.00    +0.000 C 
ATOM      4  N   UNL     1       3.548   7.480  17.257  0.00  0.00    +0.000 NA
ATOM      5  C   UNL     1       4.479   6.512  17.556  0.00  0.00    +0.000 C 
ATOM      6  C   UNL     1       5.435   6.234  16.422  0.00  0.00    +0.000 C 
ATOM      7  C   UNL     1       4.489   5.833  18.718  0.00  0.00    +0.000 C 
ATOM      8  C   UNL     1       3.416   6.043  19.747  0.00  0.00    +0.000 C 
ENDROOT
BRANCH   8   9
ATOM      9  C   UNL     1       2.602   4.754  20.025  0.00  0.00    +0.000 A 
ATOM     10  C   UNL     1       2.689   4.190  21.319  0.00  0.00    +0.000 A 
ATOM     11  C   UNL     1       1.882   3.120  21.706  0.00  0.00    +0.000 A 
ATOM     12  C   UNL     1       0.994   2.561  20.797  0.00  0.00    +0.000 A 
ATOM     13  C   UNL     1       0.919   3.071  19.502  0.00  0.00    +0.000 A 
ATOM     14  C   UNL     1       1.710   4.161  19.114  0.00  0.00    +0.000 A 
ATOM     15 CL   UNL     1       1.477   4.723  17.500  0.00  0.00    +0.000 Cl
ENDBRANCH   8   9
BRANCH   1  16
ATOM     16  O   UNL     1       1.729   6.947  21.699  0.00  0.00    +0.000 OA
ATOM     17  H   UNL     1       1.410   7.585  22.362  0.00  0.00    +0.000 HD
ENDBRANCH   1  16
BRANCH   7  18
ATOM     18  C   UNL     1       5.527   4.804  19.019  0.00  0.00    +0.000 C 
ATOM     19  O   UNL     1       5.518   3.647  18.638  0.00  0.00    +0.000 OA
BRANCH  18  20
ATOM     20  O   UNL     1       6.500   5.351  19.797  0.00  0.00    +0.000 OA
ATOM     21  C   UNL     1       7.714   5.666  19.113  0.00  0.00    +0.000 C 
ENDBRANCH  18  20
ENDBRANCH   7  18
BRANCH   1  22
ATOM     22  O   UNL     1       0.614   8.511  20.331  0.00  0.00    +0.000 OA
BRANCH  22  24
ATOM     23  C   UNL     1      -0.085  10.195  21.912  0.00  0.00    +0.000 C 
ATOM     24  C   UNL     1      -0.174   8.739  21.512  0.00  0.00    +0.000 C 
ENDBRANCH  22  24
ENDBRANCH   1  22
BRANCH   3  25
ATOM     25  C   UNL     1       1.591   8.826  17.575  0.00  0.00    +0.000 C 
BRANCH  25  26
ATOM     26  O   UNL     1       2.038  10.170  17.452  0.00  0.00    +0.000 OA
BRANCH  26  27
ATOM     27  C   UNL     1       1.755  10.971  18.620  0.00  0.00    +0.000 C 
BRANCH  27  28
ATOM     28  C   UNL     1       2.095  12.449  18.354  0.00  0.00    +0.000 C 
BRANCH  28  29
ATOM     29  N   UNL     1       0.977  13.382  18.162  0.00  0.00    +0.000 NA
ATOM     30  H   UNL     1       0.105  12.851  18.218  0.00  0.00    +0.000 HD
BRANCH  29  31
ATOM     31  C   UNL     1       0.929  14.444  19.235  0.00  0.00    +0.000 C 
ATOM     32  C   UNL     1       2.291  15.106  19.514  0.00  0.00    +0.000 C 
ATOM     33  C   UNL     1      -0.111  15.522  18.883  0.00  0.00    +0.000 C 
BRANCH  31  34
ATOM     34  C   UNL     1       0.442  13.774  20.554  0.00  0.00    +0.000 C 
ATOM     35  N   UNL     1      -0.895  13.497  20.595  0.00  0.00    +0.000 N 
ATOM     36  O   UNL     1       1.154  13.553  21.529  0.00  0.00    +0.000 OA
ATOM     37  H   UNL     1      -1.459  13.631  19.763  0.00  0.00    +0.000 HD
ATOM     38  H   UNL     1      -1.281  13.055  21.417  0.00  0.00    +0.000 HD
ENDBRANCH  31  34
ENDBRANCH  29  31
ENDBRANCH  28  29
ENDBRANCH  27  28
ENDBRANCH  26  27
ENDBRANCH  25  26
ENDBRANCH   3  25
TORSDOF 13
ENDMDL
MODEL 7
REMARK VINA RESULT:      -6.8      2.424      4.671
REMARK  Name = 
REMARK  18 active torsions:
REMARK  status: ('A' for Active; 'I' for Inactive)
REMARK    1  A    between atoms: C_1  and  C_2
REMARK    2  A    between atoms: C_2  and  O_3
REMARK    3  A    between atoms: O_3  and  C_4
REMARK    4  A    between atoms: C_4  and  O_5
REMARK    5  A    between atoms: C_7  and  C_8
REMARK    6  A    between atoms: C_8  and  O_9
REMARK    7  A    between atoms: O_9  and  C_10
REMARK    8  A    between atoms: C_10  and  C_11
REMARK    9  A    between atoms: C_11  and  N_12
REMARK   10  A    between atoms: N_12  and  C_13
REMARK   11  A    between atoms: C_13  and  C_14
REMARK   12  A    between atoms: C_13  and  C_15
REMARK   13  A    between atoms: C_13  and  C_16
REMARK   14  A    between atoms: C_20  and  C_21
REMARK   15  A    between atoms: C_22  and  C_23
REMARK   16  A    between atoms: C_23  and  O_25
REMARK   17  A    between atoms: O_25  and  C_26
REMARK   18  A    between atoms: C_27  and  C_28
REMARK                            x       y       z     vdW  Elec       q    Type
REMARK                         _______ _______ _______ _____ _____    ______ ____
ROOT
ATOM      1  C   UNL     1       3.031   7.583  17.937  0.00  0.00    +0.000 C 
ATOM      2  C   UNL     1       2.834   6.582  18.828  0.00  0.00    +0.000 C 
ATOM      3  C   UNL     1       2.206   6.657  20.195  0.00  0.00    +0.000 C 
ATOM      4  N   UNL     1       1.954   5.620  20.949  0.00  0.00    +0.000 NA
ATOM      5  C   UNL     1       2.281   4.346  20.548  0.00  0.00    +0.000 C 
ATOM      6  C   UNL     1       1.952   3.293  21.578  0.00  0.00    +0.000 C 
ATOM      7  C   UNL     1       2.899   4.076  19.384  0.00  0.00    +0.000 C 
ATOM      8  C   UNL     1       3.345   5.181  18.469  0.00  0.00    +0.000 C 
ENDROOT
BRANCH   8   9
ATOM      9  C   UNL     1       4.881   5.193  18.260  0.00  0.00    +0.000 A 
ATOM     10  C   UNL     1       5.684   5.640  19.334  0.00  0.00    +0.000 A 
ATOM     11  C   UNL     1       7.075   5.548  19.295  0.00  0.00    +0.000 A 
ATOM     12  C   UNL     1       7.701   5.041  18.163  0.00  0.00    +0.000 A 
ATOM     13  C   UNL     1       6.934   4.632  17.074  0.00  0.00    +0.000 A 
ATOM     14  C   UNL     1       5.535   4.701  17.117  0.00  0.00    +0.000 A 
ATOM     15 CL   UNL     1       4.709   4.113  15.721  0.00  0.00    +0.000 Cl
ENDBRANCH   8   9
BRANCH   1  16
ATOM     16  O   UNL     1       3.576   7.257  16.706  0.00  0.00    +0.000 OA
ATOM     17  H   UNL     1       4.490   7.594  16.728  0.00  0.00    +0.000 HD
ENDBRANCH   1  16
BRANCH   7  18
ATOM     18  C   UNL     1       3.222   2.680  18.969  0.00  0.00    +0.000 C 
ATOM     19  O   UNL     1       4.107   1.983  19.432  0.00  0.00    +0.000 OA
BRANCH  18  20
ATOM     20  O   UNL     1       2.375   2.290  17.978  0.00  0.00    +0.000 OA
ATOM     21  C   UNL     1       1.062   1.932  18.413  0.00  0.00    +0.000 C 
ENDBRANCH  18  20
ENDBRANCH   7  18
BRANCH   1  22
ATOM     22  O   UNL     1       2.797   8.911  18.197  0.00  0.00    +0.000 OA
BRANCH  22  24
ATOM     23  C   UNL     1       1.106  10.592  18.565  0.00  0.00    +0.000 C 
ATOM     24  C   UNL     1       1.531   9.406  17.729  0.00  0.00    +0.000 C 
ENDBRANCH  22  24
ENDBRANCH   1  22
BRANCH   3  25
ATOM     25  C   UNL     1       1.885   8.014  20.845  0.00  0.00    +0.000 C 
BRANCH  25  26
ATOM     26  O   UNL     1       0.565   8.168  21.350  0.00  0.00    +0.000 OA
BRANCH  26  27
ATOM     27  C   UNL     1       0.478   9.125  22.428  0.00  0.00    +0.000 C 
BRANCH  27  28
ATOM     28  C   UNL     1      -0.535  10.233  22.084  0.00  0.00    +0.000 C 
BRANCH  28  29
ATOM     29  N   UNL     1      -1.027  11.071  23.184  0.00  0.00    +0.000 NA
ATOM     30  H   UNL     1      -0.223  11.382  23.734  0.00  0.00    +0.000 HD
BRANCH  29  31
ATOM     31  C   UNL     1      -1.738  12.307  22.685  0.00  0.00    +0.000 C 
ATOM     32  C   UNL     1      -1.968  12.319  21.162  0.00  0.00    +0.000 C 
ATOM     33  C   UNL     1      -3.081  12.490  23.415  0.00  0.00    +0.000 C 
BRANCH  31  34
ATOM     34  C   UNL     1      -0.866  13.544  23.049  0.00  0.00    +0.000 C 
ATOM     35  N   UNL     1       0.056  13.892  22.103  0.00  0.00    +0.000 N 
ATOM     36  O   UNL     1      -0.923  14.150  24.115  0.00  0.00    +0.000 OA
ATOM     37  H   UNL     1       0.053  13.420  21.205  0.00  0.00    +0.000 HD
ATOM     38  H   UNL     1       0.653  14.690  22.267  0.00  0.00    +0.000 HD
ENDBRANCH  31  34
ENDBRANCH  29  31
ENDBRANCH  28  29
ENDBRANCH  27  28
ENDBRANCH  26  27
ENDBRANCH  25  26
ENDBRANCH   3  25
TORSDOF 13
ENDMDL
MODEL 8
REMARK VINA RESULT:      -6.7      0.968      1.015
REMARK  Name = 
REMARK  18 active torsions:
REMARK  status: ('A' for Active; 'I' for Inactive)
REMARK    1  A    between atoms: C_1  and  C_2
REMARK    2  A    between atoms: C_2  and  O_3
REMARK    3  A    between atoms: O_3  and  C_4
REMARK    4  A    between atoms: C_4  and  O_5
REMARK    5  A    between atoms: C_7  and  C_8
REMARK    6  A    between atoms: C_8  and  O_9
REMARK    7  A    between atoms: O_9  and  C_10
REMARK    8  A    between atoms: C_10  and  C_11
REMARK    9  A    between atoms: C_11  and  N_12
REMARK   10  A    between atoms: N_12  and  C_13
REMARK   11  A    between atoms: C_13  and  C_14
REMARK   12  A    between atoms: C_13  and  C_15
REMARK   13  A    between atoms: C_13  and  C_16
REMARK   14  A    between atoms: C_20  and  C_21
REMARK   15  A    between atoms: C_22  and  C_23
REMARK   16  A    between atoms: C_23  and  O_25
REMARK   17  A    between atoms: O_25  and  C_26
REMARK   18  A    between atoms: C_27  and  C_28
REMARK                            x       y       z     vdW  Elec       q    Type
REMARK                         _______ _______ _______ _____ _____    ______ ____
ROOT
ATOM      1  C   UNL     1       1.700   7.605  20.583  0.00  0.00    +0.000 C 
ATOM      2  C   UNL     1       2.473   7.277  19.520  0.00  0.00    +0.000 C 
ATOM      3  C   UNL     1       2.525   7.933  18.165  0.00  0.00    +0.000 C 
ATOM      4  N   UNL     1       3.381   7.623  17.227  0.00  0.00    +0.000 NA
ATOM      5  C   UNL     1       4.308   6.623  17.406  0.00  0.00    +0.000 C 
ATOM      6  C   UNL     1       5.172   6.387  16.192  0.00  0.00    +0.000 C 
ATOM      7  C   UNL     1       4.386   5.883  18.527  0.00  0.00    +0.000 C 
ATOM      8  C   UNL     1       3.395   6.058  19.642  0.00  0.00    +0.000 C 
ENDROOT
BRANCH   8   9
ATOM      9  C   UNL     1       2.573   4.772  19.910  0.00  0.00    +0.000 A 
ATOM     10  C   UNL     1       2.682   4.180  21.190  0.00  0.00    +0.000 A 
ATOM     11  C   UNL     1       1.872   3.112  21.573  0.00  0.00    +0.000 A 
ATOM     12  C   UNL     1       0.958   2.581  20.673  0.00  0.00    +0.000 A 
ATOM     13  C   UNL     1       0.860   3.119  19.391  0.00  0.00    +0.000 A 
ATOM     14  C   UNL     1       1.655   4.208  19.008  0.00  0.00    +0.000 A 
ATOM     15 CL   UNL     1       1.393   4.806  17.411  0.00  0.00    +0.000 Cl
ENDBRANCH   8   9
BRANCH   1  16
ATOM     16  O   UNL     1       1.875   6.889  21.756  0.00  0.00    +0.000 OA
ATOM     17  H   UNL     1       2.823   6.668  21.788  0.00  0.00    +0.000 HD
ENDBRANCH   1  16
BRANCH   7  18
ATOM     18  C   UNL     1       5.418   4.819  18.697  0.00  0.00    +0.000 C 
ATOM     19  O   UNL     1       5.450   3.753  18.108  0.00  0.00    +0.000 OA
BRANCH  18  20
ATOM     20  O   UNL     1       6.333   5.213  19.623  0.00  0.00    +0.000 OA
ATOM     21  C   UNL     1       7.549   5.735  19.086  0.00  0.00    +0.000 C 
ENDBRANCH  18  20
ENDBRANCH   7  18
BRANCH   1  22
ATOM     22  O   UNL     1       0.701   8.546  20.557  0.00  0.00    +0.000 OA
BRANCH  22  24
ATOM     23  C   UNL     1      -0.506   9.076  22.578  0.00  0.00    +0.000 C 
ATOM     24  C   UNL     1       0.669   9.426  21.694  0.00  0.00    +0.000 C 
ENDBRANCH  22  24
ENDBRANCH   1  22
BRANCH   3  25
ATOM     25  C   UNL     1       1.484   8.989  17.757  0.00  0.00    +0.000 C 
BRANCH  25  26
ATOM     26  O   UNL     1       1.977  10.309  17.560  0.00  0.00    +0.000 OA
BRANCH  26  27
ATOM     27  C   UNL     1       1.671  11.197  18.657  0.00  0.00    +0.000 C 
BRANCH  27  28
ATOM     28  C   UNL     1       0.237  11.742  18.524  0.00  0.00    +0.000 C 
BRANCH  28  29
ATOM     29  N   UNL     1      -0.775  11.234  19.459  0.00  0.00    +0.000 NA
ATOM     30  H   UNL     1      -0.290  10.798  20.248  0.00  0.00    +0.000 HD
BRANCH  29  31
ATOM     31  C   UNL     1      -1.642  12.337  20.016  0.00  0.00    +0.000 C 
ATOM     32  C   UNL     1      -1.855  12.251  21.539  0.00  0.00    +0.000 C 
ATOM     33  C   UNL     1      -1.067  13.717  19.649  0.00  0.00    +0.000 C 
BRANCH  31  34
ATOM     34  C   UNL     1      -3.038  12.244  19.331  0.00  0.00    +0.000 C 
ATOM     35  N   UNL     1      -3.974  13.109  19.821  0.00  0.00    +0.000 N 
ATOM     36  O   UNL     1      -3.336  11.431  18.460  0.00  0.00    +0.000 OA
ATOM     37  H   UNL     1      -3.700  13.813  20.497  0.00  0.00    +0.000 HD
ATOM     38  H   UNL     1      -4.901  13.111  19.419  0.00  0.00    +0.000 HD
ENDBRANCH  31  34
ENDBRANCH  29  31
ENDBRANCH  28  29
ENDBRANCH  27  28
ENDBRANCH  26  27
ENDBRANCH  25  26
ENDBRANCH   3  25
TORSDOF 13
ENDMDL
MODEL 9
REMARK VINA RESULT:      -6.7      2.837      8.252
REMARK  Name = 
REMARK  18 active torsions:
REMARK  status: ('A' for Active; 'I' for Inactive)
REMARK    1  A    between atoms: C_1  and  C_2
REMARK    2  A    between atoms: C_2  and  O_3
REMARK    3  A    between atoms: O_3  and  C_4
REMARK    4  A    between atoms: C_4  and  O_5
REMARK    5  A    between atoms: C_7  and  C_8
REMARK    6  A    between atoms: C_8  and  O_9
REMARK    7  A    between atoms: O_9  and  C_10
REMARK    8  A    between atoms: C_10  and  C_11
REMARK    9  A    between atoms: C_11  and  N_12
REMARK   10  A    between atoms: N_12  and  C_13
REMARK   11  A    between atoms: C_13  and  C_14
REMARK   12  A    between atoms: C_13  and  C_15
REMARK   13  A    between atoms: C_13  and  C_16
REMARK   14  A    between atoms: C_20  and  C_21
REMARK   15  A    between atoms: C_22  and  C_23
REMARK   16  A    between atoms: C_23  and  O_25
REMARK   17  A    between atoms: O_25  and  C_26
REMARK   18  A    between atoms: C_27  and  C_28
REMARK                            x       y       z     vdW  Elec       q    Type
REMARK                         _______ _______ _______ _____ _____    ______ ____
ROOT
ATOM      1  C   UNL     1       2.044   9.087  18.096  0.00  0.00    +0.000 C 
ATOM      2  C   UNL     1       1.495   9.157  19.333  0.00  0.00    +0.000 C 
ATOM      3  C   UNL     1       1.493   8.109  20.415  0.00  0.00    +0.000 C 
ATOM      4  N   UNL     1       1.034   8.298  21.624  0.00  0.00    +0.000 NA
ATOM      5  C   UNL     1       0.476   9.498  21.999  0.00  0.00    +0.000 C 
ATOM      6  C   UNL     1      -0.035   9.500  23.419  0.00  0.00    +0.000 C 
ATOM      7  C   UNL     1       0.337  10.540  21.160  0.00  0.00    +0.000 C 
ATOM      8  C   UNL     1       0.722  10.425  19.712  0.00  0.00    +0.000 C 
ENDROOT
BRANCH   8   9
ATOM      9  C   UNL     1      -0.483  10.639  18.761  0.00  0.00    +0.000 A 
ATOM     10  C   UNL     1      -1.353   9.544  18.549  0.00  0.00    +0.000 A 
ATOM     11  C   UNL     1      -2.540   9.681  17.831  0.00  0.00    +0.000 A 
ATOM     12  C   UNL     1      -2.871  10.909  17.273  0.00  0.00    +0.000 A 
ATOM     13  C   UNL     1      -2.011  11.994  17.432  0.00  0.00    +0.000 A 
ATOM     14  C   UNL     1      -0.828  11.868  18.172  0.00  0.00    +0.000 A 
ATOM     15 CL   UNL     1       0.116  13.303  18.332  0.00  0.00    +0.000 Cl
ENDBRANCH   8   9
BRANCH   1  16
ATOM     16  O   UNL     1       1.973  10.212  17.291  0.00  0.00    +0.000 OA
ATOM     17  H   UNL     1       1.589   9.907  16.450  0.00  0.00    +0.000 HD
ENDBRANCH   1  16
BRANCH   7  18
ATOM     18  C   UNL     1      -0.254  11.836  21.605  0.00  0.00    +0.000 C 
ATOM     19  O   UNL     1      -1.435  12.049  21.812  0.00  0.00    +0.000 OA
BRANCH  18  20
ATOM     20  O   UNL     1       0.731  12.764  21.743  0.00  0.00    +0.000 OA
ATOM     21  C   UNL     1       0.275  14.105  21.924  0.00  0.00    +0.000 C 
ENDBRANCH  18  20
ENDBRANCH   7  18
BRANCH   1  22
ATOM     22  O   UNL     1       2.599   7.954  17.556  0.00  0.00    +0.000 OA
BRANCH  22  24
ATOM     23  C   UNL     1       4.563   6.836  16.708  0.00  0.00    +0.000 C 
ATOM     24  C   UNL     1       4.028   7.857  17.687  0.00  0.00    +0.000 C 
ENDBRANCH  22  24
ENDBRANCH   1  22
BRANCH   3  25
ATOM     25  C   UNL     1       1.972   6.676  20.130  0.00  0.00    +0.000 C 
BRANCH  25  26
ATOM     26  O   UNL     1       1.243   5.634  20.767  0.00  0.00    +0.000 OA
BRANCH  26  27
ATOM     27  C   UNL     1       2.069   4.510  21.141  0.00  0.00    +0.000 C 
BRANCH  27  28
ATOM     28  C   UNL     1       2.015   3.419  20.055  0.00  0.00    +0.000 C 
BRANCH  28  29
ATOM     29  N   UNL     1       2.500   3.768  18.714  0.00  0.00    +0.000 NA
ATOM     30  H   UNL     1       2.821   4.739  18.733  0.00  0.00    +0.000 HD
BRANCH  29  31
ATOM     31  C   UNL     1       3.670   2.913  18.289  0.00  0.00    +0.000 C 
ATOM     32  C   UNL     1       3.361   1.404  18.271  0.00  0.00    +0.000 C 
ATOM     33  C   UNL     1       4.190   3.354  16.910  0.00  0.00    +0.000 C 
BRANCH  31  34
ATOM     34  C   UNL     1       4.832   3.153  19.297  0.00  0.00    +0.000 C 
ATOM     35  N   UNL     1       5.114   2.092  20.109  0.00  0.00    +0.000 N 
ATOM     36  O   UNL     1       5.433   4.216  19.430  0.00  0.00    +0.000 OA
ATOM     37  H   UNL     1       4.651   1.204  19.949  0.00  0.00    +0.000 HD
ATOM     38  H   UNL     1       5.862   2.173  20.783  0.00  0.00    +0.000 HD
ENDBRANCH  31  34
ENDBRANCH  29  31
ENDBRANCH  28  29
ENDBRANCH  27  28
ENDBRANCH  26  27
ENDBRANCH  25  26
ENDBRANCH   3  25
TORSDOF 13
ENDMDL
