MODEL 1
REMARK VINA RESULT:      -7.1      0.000      0.000
REMARK  Name = 
REMARK  5 active torsions:
REMARK  status: ('A' for Active; 'I' for Inactive)
REMARK    1  A    between atoms: C_1  and  C_2
REMARK    2  A    between atoms: N_4  and  C_5
REMARK    3  A    between atoms: C_7  and  C_8
REMARK    4  A    between atoms: C_8  and  N_9
REMARK    5  A    between atoms: N_12  and  C_13
REMARK                            x       y       z     vdW  Elec       q    Type
REMARK                         _______ _______ _______ _____ _____    ______ ____
ROOT
ATOM      1  N   UNL     1       5.678   5.852  15.976  0.00  0.00    +0.000 N 
ATOM      2  C   UNL     1       5.031   5.207  17.013  0.00  0.00    +0.000 C 
ATOM      3  O   UNL     1       5.490   4.194  17.526  0.00  0.00    +0.000 OA
ATOM      4  N   UNL     1       3.831   5.809  17.334  0.00  0.00    +0.000 N 
ATOM      5  H   UNL     1       5.590   6.858  15.953  0.00  0.00    +0.000 HD
ATOM      6  H   UNL     1       3.461   6.428  16.628  0.00  0.00    +0.000 HD
ENDROOT
BRANCH   4   7
ATOM      7  C   UNL     1       2.935   5.366  18.337  0.00  0.00    +0.000 A 
ATOM      8  C   UNL     1       2.772   6.022  19.562  0.00  0.00    +0.000 A 
ATOM      9  C   UNL     1       1.927   5.505  20.548  0.00  0.00    +0.000 A 
ATOM     10  C   UNL     1       1.226   4.325  20.315  0.00  0.00    +0.000 A 
ATOM     11  C   UNL     1       1.357   3.685  19.085  0.00  0.00    +0.000 A 
ATOM     12 CL   UNL     1       0.493   2.224  18.794  0.00  0.00    +0.000 Cl
ATOM     13  C   UNL     1       2.193   4.205  18.091  0.00  0.00    +0.000 A 
ENDBRANCH   4   7
BRANCH   1  14
ATOM     14  C   UNL     1       6.944   5.293  15.558  0.00  0.00    +0.000 C 
BRANCH  14  21
ATOM     15  C   UNL     1       8.621   5.914  12.816  0.00  0.00    +0.000 C 
ATOM     16  C   UNL     1       7.532   4.929  13.030  0.00  0.00    +0.000 A 
ATOM     17  N   UNL     1       7.093   4.190  12.004  0.00  0.00    +0.000 NA
ATOM     18  N   UNL     1       6.095   3.461  12.525  0.00  0.00    +0.000 N 
ATOM     19  C   UNL     1       5.326   2.578  11.683  0.00  0.00    +0.000 C 
ATOM     20  C   UNL     1       5.903   3.679  13.856  0.00  0.00    +0.000 A 
ATOM     21  C   UNL     1       6.816   4.647  14.230  0.00  0.00    +0.000 A 
ENDBRANCH  14  21
ENDBRANCH   1  14
TORSDOF 3
ENDMDL
MODEL 2
REMARK VINA RESULT:      -7.0      1.561      1.959
REMARK  Name = 
REMARK  5 active torsions:
REMARK  status: ('A' for Active; 'I' for Inactive)
REMARK    1  A    between atoms: C_1  and  C_2
REMARK    2  A    between atoms: N_4  and  C_5
REMARK    3  A    between atoms: C_7  and  C_8
REMARK    4  A    between atoms: C_8  and  N_9
REMARK    5  A    between atoms: N_12  and  C_13
REMARK                            x       y       z     vdW  Elec       q    Type
REMARK                         _______ _______ _______ _____ _____    ______ ____
ROOT
ATOM      1  N   UNL     1       6.485   4.111  16.521  0.00  0.00    +0.000 N 
ATOM      2  C   UNL     1       5.190   4.283  16.967  0.00  0.00    +0.000 C 
ATOM      3  O   UNL     1       4.492   5.211  16.574  0.00  0.00    +0.000 OA
ATOM      4  N   UNL     1       4.831   3.340  17.908  0.00  0.00    +0.000 N 
ATOM      5  H   UNL     1       6.802   3.156  16.431  0.00  0.00    +0.000 HD
ATOM      6  H   UNL     1       5.603   2.852  18.339  0.00  0.00    +0.000 HD
ENDROOT
BRANCH   4   7
ATOM      7  C   UNL     1       3.578   3.271  18.563  0.00  0.00    +0.000 A 
ATOM      8  C   UNL     1       2.698   2.192  18.422  0.00  0.00    +0.000 A 
ATOM      9  C   UNL     1       1.441   2.204  19.033  0.00  0.00    +0.000 A 
ATOM     10  C   UNL     1       1.053   3.296  19.804  0.00  0.00    +0.000 A 
ATOM     11  C   UNL     1       1.937   4.357  19.978  0.00  0.00    +0.000 A 
ATOM     12 CL   UNL     1       1.459   5.711  20.929  0.00  0.00    +0.000 Cl
ATOM     13  C   UNL     1       3.200   4.345  19.376  0.00  0.00    +0.000 A 
ENDBRANCH   4   7
BRANCH   1  14
ATOM     14  C   UNL     1       6.961   5.056  15.535  0.00  0.00    +0.000 C 
BRANCH  14  21
ATOM     15  C   UNL     1       8.596   5.896  12.827  0.00  0.00    +0.000 C 
ATOM     16  C   UNL     1       7.534   4.872  12.985  0.00  0.00    +0.000 A 
ATOM     17  N   UNL     1       7.103   4.190  11.917  0.00  0.00    +0.000 NA
ATOM     18  N   UNL     1       6.128   3.404  12.397  0.00  0.00    +0.000 N 
ATOM     19  C   UNL     1       5.373   2.558  11.506  0.00  0.00    +0.000 C 
ATOM     20  C   UNL     1       5.944   3.530  13.741  0.00  0.00    +0.000 A 
ATOM     21  C   UNL     1       6.837   4.494  14.169  0.00  0.00    +0.000 A 
ENDBRANCH  14  21
ENDBRANCH   1  14
TORSDOF 3
ENDMDL
MODEL 3
REMARK VINA RESULT:      -7.0      5.666      7.609
REMARK  Name = 
REMARK  5 active torsions:
REMARK  status: ('A' for Active; 'I' for Inactive)
REMARK    1  A    between atoms: C_1  and  C_2
REMARK    2  A    between atoms: N_4  and  C_5
REMARK    3  A    between atoms: C_7  and  C_8
REMARK    4  A    between atoms: C_8  and  N_9
REMARK    5  A    between atoms: N_12  and  C_13
REMARK                            x       y       z     vdW  Elec       q    Type
REMARK                         _______ _______ _______ _____ _____    ______ ____
ROOT
ATOM      1  N   UNL     1       8.268   9.142  18.042  0.00  0.00    +0.000 N 
ATOM      2  C   UNL     1       7.823   7.834  18.034  0.00  0.00    +0.000 C 
ATOM      3  O   UNL     1       8.215   7.017  18.858  0.00  0.00    +0.000 OA
ATOM      4  N   UNL     1       6.959   7.583  16.988  0.00  0.00    +0.000 N 
ATOM      5  H   UNL     1       7.599   9.842  17.754  0.00  0.00    +0.000 HD
ATOM      6  H   UNL     1       6.985   8.260  16.240  0.00  0.00    +0.000 HD
ENDROOT
BRANCH   4   7
ATOM      7  C   UNL     1       6.357   6.333  16.705  0.00  0.00    +0.000 A 
ATOM      8  C   UNL     1       6.958   5.358  15.901  0.00  0.00    +0.000 A 
ATOM      9  C   UNL     1       6.291   4.168  15.594  0.00  0.00    +0.000 A 
ATOM     10  C   UNL     1       5.014   3.936  16.097  0.00  0.00    +0.000 A 
ATOM     11  C   UNL     1       4.425   4.886  16.927  0.00  0.00    +0.000 A 
ATOM     12 CL   UNL     1       2.845   4.603  17.550  0.00  0.00    +0.000 Cl
ATOM     13  C   UNL     1       5.093   6.074  17.246  0.00  0.00    +0.000 A 
ENDBRANCH   4   7
BRANCH   1  14
ATOM     14  C   UNL     1       9.187   9.506  19.097  0.00  0.00    +0.000 C 
BRANCH  14  21
ATOM     15  C   UNL     1       9.257  11.982  21.236  0.00  0.00    +0.000 C 
ATOM     16  C   UNL     1       9.705  11.970  19.822  0.00  0.00    +0.000 A 
ATOM     17  N   UNL     1      10.171  13.094  19.262  0.00  0.00    +0.000 NA
ATOM     18  N   UNL     1      10.431  12.747  17.993  0.00  0.00    +0.000 N 
ATOM     19  C   UNL     1      10.895  13.737  17.052  0.00  0.00    +0.000 C 
ATOM     20  C   UNL     1      10.183  11.434  17.729  0.00  0.00    +0.000 A 
ATOM     21  C   UNL     1       9.691  10.886  18.898  0.00  0.00    +0.000 A 
ENDBRANCH  14  21
ENDBRANCH   1  14
TORSDOF 3
ENDMDL
MODEL 4
REMARK VINA RESULT:      -7.0      5.818      7.609
REMARK  Name = 
REMARK  5 active torsions:
REMARK  status: ('A' for Active; 'I' for Inactive)
REMARK    1  A    between atoms: C_1  and  C_2
REMARK    2  A    between atoms: N_4  and  C_5
REMARK    3  A    between atoms: C_7  and  C_8
REMARK    4  A    between atoms: C_8  and  N_9
REMARK    5  A    between atoms: N_12  and  C_13
REMARK                            x       y       z     vdW  Elec       q    Type
REMARK                         _______ _______ _______ _____ _____    ______ ____
ROOT
ATOM      1  N   UNL     1       8.216   9.422  17.835  0.00  0.00    +0.000 N 
ATOM      2  C   UNL     1       7.841   8.095  17.920  0.00  0.00    +0.000 C 
ATOM      3  O   UNL     1       8.372   7.326  18.713  0.00  0.00    +0.000 OA
ATOM      4  N   UNL     1       6.870   7.767  16.996  0.00  0.00    +0.000 N 
ATOM      5  H   UNL     1       7.483  10.079  17.611  0.00  0.00    +0.000 HD
ATOM      6  H   UNL     1       6.770   8.418  16.232  0.00  0.00    +0.000 HD
ENDROOT
BRANCH   4   7
ATOM      7  C   UNL     1       6.302   6.481  16.827  0.00  0.00    +0.000 A 
ATOM      8  C   UNL     1       6.959   5.435  16.168  0.00  0.00    +0.000 A 
ATOM      9  C   UNL     1       6.327   4.204  15.964  0.00  0.00    +0.000 A 
ATOM     10  C   UNL     1       5.030   4.003  16.427  0.00  0.00    +0.000 A 
ATOM     11  C   UNL     1       4.384   5.027  17.115  0.00  0.00    +0.000 A 
ATOM     12 CL   UNL     1       2.779   4.782  17.688  0.00  0.00    +0.000 Cl
ATOM     13  C   UNL     1       5.016   6.257  17.331  0.00  0.00    +0.000 A 
ENDBRANCH   4   7
BRANCH   1  14
ATOM     14  C   UNL     1       9.237   9.866  18.758  0.00  0.00    +0.000 C 
BRANCH  14  21
ATOM     15  C   UNL     1      11.942  11.539  19.530  0.00  0.00    +0.000 C 
ATOM     16  C   UNL     1      10.683  12.044  18.929  0.00  0.00    +0.000 A 
ATOM     17  N   UNL     1      10.542  13.352  18.682  0.00  0.00    +0.000 NA
ATOM     18  N   UNL     1       9.295  13.465  18.200  0.00  0.00    +0.000 N 
ATOM     19  C   UNL     1       8.757  14.764  17.878  0.00  0.00    +0.000 C 
ATOM     20  C   UNL     1       8.645  12.273  18.096  0.00  0.00    +0.000 A 
ATOM     21  C   UNL     1       9.513  11.311  18.576  0.00  0.00    +0.000 A 
ENDBRANCH  14  21
ENDBRANCH   1  14
TORSDOF 3
ENDMDL
MODEL 5
REMARK VINA RESULT:      -6.8      5.613      7.466
REMARK  Name = 
REMARK  5 active torsions:
REMARK  status: ('A' for Active; 'I' for Inactive)
REMARK    1  A    between atoms: C_1  and  C_2
REMARK    2  A    between atoms: N_4  and  C_5
REMARK    3  A    between atoms: C_7  and  C_8
REMARK    4  A    between atoms: C_8  and  N_9
REMARK    5  A    between atoms: N_12  and  C_13
REMARK                            x       y       z     vdW  Elec       q    Type
REMARK                         _______ _______ _______ _____ _____    ______ ____
ROOT
ATOM      1  N   UNL     1       8.169   9.446  17.784  0.00  0.00    +0.000 N 
ATOM      2  C   UNL     1       7.825   8.112  17.892  0.00  0.00    +0.000 C 
ATOM      3  O   UNL     1       8.307   7.392  18.758  0.00  0.00    +0.000 OA
ATOM      4  N   UNL     1       6.946   7.718  16.904  0.00  0.00    +0.000 N 
ATOM      5  H   UNL     1       7.439  10.071  17.473  0.00  0.00    +0.000 HD
ATOM      6  H   UNL     1       6.894   8.336  16.107  0.00  0.00    +0.000 HD
ENDROOT
BRANCH   4   7
ATOM      7  C   UNL     1       6.431   6.409  16.740  0.00  0.00    +0.000 A 
ATOM      8  C   UNL     1       6.975   5.479  15.846  0.00  0.00    +0.000 A 
ATOM      9  C   UNL     1       6.386   4.224  15.669  0.00  0.00    +0.000 A 
ATOM     10  C   UNL     1       5.249   3.880  16.394  0.00  0.00    +0.000 A 
ATOM     11  C   UNL     1       4.724   4.786  17.311  0.00  0.00    +0.000 A 
ATOM     12 CL   UNL     1       3.316   4.365  18.208  0.00  0.00    +0.000 Cl
ATOM     13  C   UNL     1       5.316   6.040  17.499  0.00  0.00    +0.000 A 
ENDBRANCH   4   7
BRANCH   1  14
ATOM     14  C   UNL     1       9.094   9.957  18.771  0.00  0.00    +0.000 C 
BRANCH  14  21
ATOM     15  C   UNL     1       7.606  12.524  17.389  0.00  0.00    +0.000 C 
ATOM     16  C   UNL     1       9.047  12.346  17.697  0.00  0.00    +0.000 A 
ATOM     17  N   UNL     1       9.922  13.299  17.354  0.00  0.00    +0.000 NA
ATOM     18  N   UNL     1      11.113  12.803  17.723  0.00  0.00    +0.000 N 
ATOM     19  C   UNL     1      12.322  13.538  17.447  0.00  0.00    +0.000 C 
ATOM     20  C   UNL     1      11.028  11.583  18.323  0.00  0.00    +0.000 A 
ATOM     21  C   UNL     1       9.690  11.235  18.316  0.00  0.00    +0.000 A 
ENDBRANCH  14  21
ENDBRANCH   1  14
TORSDOF 3
ENDMDL
MODEL 6
REMARK VINA RESULT:      -6.8      4.166      5.010
REMARK  Name = 
REMARK  5 active torsions:
REMARK  status: ('A' for Active; 'I' for Inactive)
REMARK    1  A    between atoms: C_1  and  C_2
REMARK    2  A    between atoms: N_4  and  C_5
REMARK    3  A    between atoms: C_7  and  C_8
REMARK    4  A    between atoms: C_8  and  N_9
REMARK    5  A    between atoms: N_12  and  C_13
REMARK                            x       y       z     vdW  Elec       q    Type
REMARK                         _______ _______ _______ _____ _____    ______ ____
ROOT
ATOM      1  N   UNL     1       3.563   7.490  17.463  0.00  0.00    +0.000 N 
ATOM      2  C   UNL     1       2.574   8.011  18.273  0.00  0.00    +0.000 C 
ATOM      3  O   UNL     1       2.303   7.513  19.359  0.00  0.00    +0.000 OA
ATOM      4  N   UNL     1       1.934   9.087  17.691  0.00  0.00    +0.000 N 
ATOM      5  H   UNL     1       4.086   8.156  16.912  0.00  0.00    +0.000 HD
ATOM      6  H   UNL     1       2.062   9.170  16.693  0.00  0.00    +0.000 HD
ENDROOT
BRANCH   4   7
ATOM      7  C   UNL     1       0.866   9.815  18.267  0.00  0.00    +0.000 A 
ATOM      8  C   UNL     1       1.031  10.692  19.345  0.00  0.00    +0.000 A 
ATOM      9  C   UNL     1      -0.067  11.333  19.926  0.00  0.00    +0.000 A 
ATOM     10  C   UNL     1      -1.347  11.111  19.425  0.00  0.00    +0.000 A 
ATOM     11  C   UNL     1      -1.515  10.268  18.330  0.00  0.00    +0.000 A 
ATOM     12 CL   UNL     1      -3.097   9.988  17.710  0.00  0.00    +0.000 Cl
ATOM     13  C   UNL     1      -0.417   9.631  17.740  0.00  0.00    +0.000 A 
ENDBRANCH   4   7
BRANCH   1  14
ATOM     14  C   UNL     1       4.290   6.352  17.980  0.00  0.00    +0.000 C 
BRANCH  14  21
ATOM     15  C   UNL     1       7.424   7.214  17.593  0.00  0.00    +0.000 C 
ATOM     16  C   UNL     1       6.627   6.246  16.799  0.00  0.00    +0.000 A 
ATOM     17  N   UNL     1       7.180   5.638  15.743  0.00  0.00    +0.000 NA
ATOM     18  N   UNL     1       6.189   4.888  15.237  0.00  0.00    +0.000 N 
ATOM     19  C   UNL     1       6.399   4.127  14.030  0.00  0.00    +0.000 C 
ATOM     20  C   UNL     1       5.032   4.966  15.952  0.00  0.00    +0.000 A 
ATOM     21  C   UNL     1       5.268   5.858  16.981  0.00  0.00    +0.000 A 
ENDBRANCH  14  21
ENDBRANCH   1  14
TORSDOF 3
ENDMDL
MODEL 7
REMARK VINA RESULT:      -6.7      2.800      7.307
REMARK  Name = 
REMARK  5 active torsions:
REMARK  status: ('A' for Active; 'I' for Inactive)
REMARK    1  A    between atoms: C_1  and  C_2
REMARK    2  A    between atoms: N_4  and  C_5
REMARK    3  A    between atoms: C_7  and  C_8
REMARK    4  A    between atoms: C_8  and  N_9
REMARK    5  A    between atoms: N_12  and  C_13
REMARK                            x       y       z     vdW  Elec       q    Type
REMARK                         _______ _______ _______ _____ _____    ______ ____
ROOT
ATOM      1  N   UNL     1       5.323   4.545  18.272  0.00  0.00    +0.000 N 
ATOM      2  C   UNL     1       5.410   4.886  16.937  0.00  0.00    +0.000 C 
ATOM      3  O   UNL     1       4.703   5.760  16.449  0.00  0.00    +0.000 OA
ATOM      4  N   UNL     1       6.323   4.105  16.257  0.00  0.00    +0.000 N 
ATOM      5  H   UNL     1       6.184   4.264  18.718  0.00  0.00    +0.000 HD
ATOM      6  H   UNL     1       6.582   3.248  16.723  0.00  0.00    +0.000 HD
ENDROOT
BRANCH   4   7
ATOM      7  C   UNL     1       6.615   4.203  14.875  0.00  0.00    +0.000 A 
ATOM      8  C   UNL     1       7.574   5.081  14.356  0.00  0.00    +0.000 A 
ATOM      9  C   UNL     1       7.776   5.192  12.977  0.00  0.00    +0.000 A 
ATOM     10  C   UNL     1       7.025   4.415  12.100  0.00  0.00    +0.000 A 
ATOM     11  C   UNL     1       6.096   3.513  12.611  0.00  0.00    +0.000 A 
ATOM     12 CL   UNL     1       5.163   2.552  11.528  0.00  0.00    +0.000 Cl
ATOM     13  C   UNL     1       5.897   3.392  13.990  0.00  0.00    +0.000 A 
ENDBRANCH   4   7
BRANCH   1  14
ATOM     14  C   UNL     1       4.385   5.301  19.073  0.00  0.00    +0.000 C 
BRANCH  14  21
ATOM     15  C   UNL     1       1.590   4.562  17.539  0.00  0.00    +0.000 C 
ATOM     16  C   UNL     1       2.051   4.126  18.881  0.00  0.00    +0.000 A 
ATOM     17  N   UNL     1       1.256   3.364  19.642  0.00  0.00    +0.000 NA
ATOM     18  N   UNL     1       1.946   3.202  20.781  0.00  0.00    +0.000 N 
ATOM     19  C   UNL     1       1.364   2.477  21.883  0.00  0.00    +0.000 C 
ATOM     20  C   UNL     1       3.169   3.802  20.763  0.00  0.00    +0.000 A 
ATOM     21  C   UNL     1       3.277   4.434  19.539  0.00  0.00    +0.000 A 
ENDBRANCH  14  21
ENDBRANCH   1  14
TORSDOF 3
ENDMDL
MODEL 8
REMARK VINA RESULT:      -6.7      2.765      7.436
REMARK  Name = 
REMARK  5 active torsions:
REMARK  status: ('A' for Active; 'I' for Inactive)
REMARK    1  A    between atoms: C_1  and  C_2
REMARK    2  A    between atoms: N_4  and  C_5
REMARK    3  A    between atoms: C_7  and  C_8
REMARK    4  A    between atoms: C_8  and  N_9
REMARK    5  A    between atoms: N_12  and  C_13
REMARK                            x       y       z     vdW  Elec       q    Type
REMARK                         _______ _______ _______ _____ _____    ______ ____
ROOT
ATOM      1  N   UNL     1       4.580   5.382  17.615  0.00  0.00    +0.000 N 
ATOM      2  C   UNL     1       5.501   4.846  16.736  0.00  0.00    +0.000 C 
ATOM      3  O   UNL     1       6.489   4.240  17.131  0.00  0.00    +0.000 OA
ATOM      4  N   UNL     1       5.189   5.123  15.420  0.00  0.00    +0.000 N 
ATOM      5  H   UNL     1       3.618   5.381  17.308  0.00  0.00    +0.000 HD
ATOM      6  H   UNL     1       4.533   5.878  15.286  0.00  0.00    +0.000 HD
ENDROOT
BRANCH   4   7
ATOM      7  C   UNL     1       5.955   4.727  14.297  0.00  0.00    +0.000 A 
ATOM      8  C   UNL     1       7.139   5.367  13.913  0.00  0.00    +0.000 A 
ATOM      9  C   UNL     1       7.820   4.984  12.754  0.00  0.00    +0.000 A 
ATOM     10  C   UNL     1       7.328   3.945  11.969  0.00  0.00    +0.000 A 
ATOM     11  C   UNL     1       6.170   3.280  12.364  0.00  0.00    +0.000 A 
ATOM     12 CL   UNL     1       5.557   1.996  11.394  0.00  0.00    +0.000 Cl
ATOM     13  C   UNL     1       5.490   3.654  13.529  0.00  0.00    +0.000 A 
ENDBRANCH   4   7
BRANCH   1  14
ATOM     14  C   UNL     1       4.820   5.154  19.023  0.00  0.00    +0.000 C 
BRANCH  14  21
ATOM     15  C   UNL     1       2.253   7.012  19.841  0.00  0.00    +0.000 C 
ATOM     16  C   UNL     1       2.459   5.562  20.082  0.00  0.00    +0.000 A 
ATOM     17  N   UNL     1       1.537   4.863  20.754  0.00  0.00    +0.000 NA
ATOM     18  N   UNL     1       2.053   3.627  20.835  0.00  0.00    +0.000 N 
ATOM     19  C   UNL     1       1.355   2.596  21.562  0.00  0.00    +0.000 C 
ATOM     20  C   UNL     1       3.255   3.501  20.206  0.00  0.00    +0.000 A 
ATOM     21  C   UNL     1       3.569   4.751  19.708  0.00  0.00    +0.000 A 
ENDBRANCH  14  21
ENDBRANCH   1  14
TORSDOF 3
ENDMDL
MODEL 9
REMARK VINA RESULT:      -6.7      3.201      4.389
REMARK  Name = 
REMARK  5 active torsions:
REMARK  status: ('A' for Active; 'I' for Inactive)
REMARK    1  A    between atoms: C_1  and  C_2
REMARK    2  A    between atoms: N_4  and  C_5
REMARK    3  A    between atoms: C_7  and  C_8
REMARK    4  A    between atoms: C_8  and  N_9
REMARK    5  A    between atoms: N_12  and  C_13
REMARK                            x       y       z     vdW  Elec       q    Type
REMARK                         _______ _______ _______ _____ _____    ______ ____
ROOT
ATOM      1  N   UNL     1       4.263   5.205  19.147  0.00  0.00    +0.000 N 
ATOM      2  C   UNL     1       3.091   5.918  18.984  0.00  0.00    +0.000 C 
ATOM      3  O   UNL     1       2.251   5.592  18.154  0.00  0.00    +0.000 OA
ATOM      4  N   UNL     1       3.031   7.020  19.811  0.00  0.00    +0.000 N 
ATOM      5  H   UNL     1       4.629   5.156  20.087  0.00  0.00    +0.000 HD
ATOM      6  H   UNL     1       3.917   7.314  20.197  0.00  0.00    +0.000 HD
ENDROOT
BRANCH   4   7
ATOM      7  C   UNL     1       1.967   7.953  19.856  0.00  0.00    +0.000 A 
ATOM      8  C   UNL     1       1.629   8.782  18.780  0.00  0.00    +0.000 A 
ATOM      9  C   UNL     1       0.615   9.737  18.899  0.00  0.00    +0.000 A 
ATOM     10  C   UNL     1      -0.081   9.867  20.097  0.00  0.00    +0.000 A 
ATOM     11  C   UNL     1       0.225   9.021  21.160  0.00  0.00    +0.000 A 
ATOM     12 CL   UNL     1      -0.632   9.181  22.645  0.00  0.00    +0.000 Cl
ATOM     13  C   UNL     1       1.233   8.057  21.043  0.00  0.00    +0.000 A 
ENDBRANCH   4   7
BRANCH   1  14
ATOM     14  C   UNL     1       4.428   4.031  18.317  0.00  0.00    +0.000 C 
BRANCH  14  21
ATOM     15  C   UNL     1       7.451   5.230  18.679  0.00  0.00    +0.000 C 
ATOM     16  C   UNL     1       6.769   4.806  17.431  0.00  0.00    +0.000 A 
ATOM     17  N   UNL     1       7.391   4.941  16.254  0.00  0.00    +0.000 NA
ATOM     18  N   UNL     1       6.490   4.519  15.354  0.00  0.00    +0.000 N 
ATOM     19  C   UNL     1       6.789   4.583  13.944  0.00  0.00    +0.000 C 
ATOM     20  C   UNL     1       5.327   4.085  15.915  0.00  0.00    +0.000 A 
ATOM     21  C   UNL     1       5.459   4.266  17.278  0.00  0.00    +0.000 A 
ENDBRANCH  14  21
ENDBRANCH   1  14
TORSDOF 3
ENDMDL
