MODEL 1
REMARK VINA RESULT:      -7.5      0.000      0.000
REMARK  Name = 
REMARK  9 active torsions:
REMARK  status: ('A' for Active; 'I' for Inactive)
REMARK    1  A    between atoms: C_1  and  O_2
REMARK    2  A    between atoms: O_2  and  C_3
REMARK    3  A    between atoms: C_6  and  C_7
REMARK    4  A    between atoms: N_8  and  N_9
REMARK    5  A    between atoms: C_10  and  C_12
REMARK    6  A    between atoms: C_12  and  C_13
REMARK    7  A    between atoms: C_13  and  N_14
REMARK    8  A    between atoms: C_16  and  C_17
REMARK    9  A    between atoms: C_19  and  C_20
REMARK                            x       y       z     vdW  Elec       q    Type
REMARK                         _______ _______ _______ _____ _____    ______ ____
ROOT
ATOM      1  N   UNL     1       8.590   8.184  18.893  0.00  0.00    +0.000 N 
ATOM      2  C   UNL     1       7.897   7.250  18.132  0.00  0.00    +0.000 C 
ATOM      3  O   UNL     1       7.486   7.434  16.988  0.00  0.00    +0.000 OA
ATOM      4  H   UNL     1       8.910   7.974  19.830  0.00  0.00    +0.000 HD
ENDROOT
BRANCH   1   6
ATOM      5  C   UNL     1       9.449  10.278  19.094  0.00  0.00    +0.000 C 
ATOM      6  N   UNL     1       8.858   9.403  18.345  0.00  0.00    +0.000 NA
BRANCH   5  10
ATOM      7  C   UNL     1      10.372  14.179  17.577  0.00  0.00    +0.000 A 
ATOM      8  C   UNL     1      11.128  13.072  17.188  0.00  0.00    +0.000 A 
ATOM      9  C   UNL     1      10.828  11.799  17.675  0.00  0.00    +0.000 A 
ATOM     10  C   UNL     1       9.773  11.628  18.576  0.00  0.00    +0.000 A 
ATOM     11  C   UNL     1       9.025  12.734  18.988  0.00  0.00    +0.000 A 
ATOM     12  C   UNL     1       9.327  14.011  18.489  0.00  0.00    +0.000 A 
BRANCH   7  14
ATOM     13  C   UNL     1      10.979  16.435  17.956  0.00  0.00    +0.000 C 
ATOM     14  O   UNL     1      10.772  15.370  17.036  0.00  0.00    +0.000 OA
ENDBRANCH   7  14
ENDBRANCH   5  10
ENDBRANCH   1   6
BRANCH   2  15
ATOM     15  C   UNL     1       7.667   5.930  18.828  0.00  0.00    +0.000 C 
BRANCH  15  16
ATOM     16  C   UNL     1       7.410   4.866  17.771  0.00  0.00    +0.000 C 
BRANCH  16  17
ATOM     17  N   UNL     1       6.048   4.363  17.807  0.00  0.00    +0.000 N 
ATOM     18  N   UNL     1       5.542   3.929  18.980  0.00  0.00    +0.000 NA
ATOM     19  C   UNL     1       4.326   3.468  18.662  0.00  0.00    +0.000 A 
ATOM     20  C   UNL     1       3.443   2.861  19.686  0.00  0.00    +0.000 C 
ATOM     21  C   UNL     1       4.044   3.649  17.291  0.00  0.00    +0.000 A 
ATOM     22  C   UNL     1       5.171   4.236  16.759  0.00  0.00    +0.000 A 
ATOM     23  C   UNL     1       5.466   4.663  15.370  0.00  0.00    +0.000 C 
ENDBRANCH  16  17
ENDBRANCH  15  16
ENDBRANCH   2  15
TORSDOF 6
ENDMDL
MODEL 2
REMARK VINA RESULT:      -7.2      2.189      2.762
REMARK  Name = 
REMARK  9 active torsions:
REMARK  status: ('A' for Active; 'I' for Inactive)
REMARK    1  A    between atoms: C_1  and  O_2
REMARK    2  A    between atoms: O_2  and  C_3
REMARK    3  A    between atoms: C_6  and  C_7
REMARK    4  A    between atoms: N_8  and  N_9
REMARK    5  A    between atoms: C_10  and  C_12
REMARK    6  A    between atoms: C_12  and  C_13
REMARK    7  A    between atoms: C_13  and  N_14
REMARK    8  A    between atoms: C_16  and  C_17
REMARK    9  A    between atoms: C_19  and  C_20
REMARK                            x       y       z     vdW  Elec       q    Type
REMARK                         _______ _______ _______ _____ _____    ______ ____
ROOT
ATOM      1  N   UNL     1       7.605   6.962  17.845  0.00  0.00    +0.000 N 
ATOM      2  C   UNL     1       7.578   5.734  18.495  0.00  0.00    +0.000 C 
ATOM      3  O   UNL     1       8.133   5.486  19.563  0.00  0.00    +0.000 OA
ATOM      4  H   UNL     1       7.122   7.111  16.968  0.00  0.00    +0.000 HD
ENDROOT
BRANCH   1   6
ATOM      5  C   UNL     1       8.148   9.168  17.902  0.00  0.00    +0.000 C 
ATOM      6  N   UNL     1       8.286   7.992  18.424  0.00  0.00    +0.000 NA
BRANCH   5  10
ATOM      7  C   UNL     1      10.216  12.550  19.533  0.00  0.00    +0.000 A 
ATOM      8  C   UNL     1      10.181  11.340  20.228  0.00  0.00    +0.000 A 
ATOM      9  C   UNL     1       9.514  10.235  19.699  0.00  0.00    +0.000 A 
ATOM     10  C   UNL     1       8.856  10.340  18.470  0.00  0.00    +0.000 A 
ATOM     11  C   UNL     1       8.867  11.554  17.778  0.00  0.00    +0.000 A 
ATOM     12  C   UNL     1       9.546  12.661  18.312  0.00  0.00    +0.000 A 
BRANCH   7  14
ATOM     13  C   UNL     1      10.258  14.829  20.171  0.00  0.00    +0.000 C 
ATOM     14  O   UNL     1      10.895  13.557  20.161  0.00  0.00    +0.000 OA
ENDBRANCH   7  14
ENDBRANCH   5  10
ENDBRANCH   1   6
BRANCH   2  15
ATOM     15  C   UNL     1       6.783   4.670  17.775  0.00  0.00    +0.000 C 
BRANCH  15  16
ATOM     16  C   UNL     1       5.915   5.346  16.723  0.00  0.00    +0.000 C 
BRANCH  16  17
ATOM     17  N   UNL     1       4.590   5.670  17.221  0.00  0.00    +0.000 N 
ATOM     18  N   UNL     1       4.281   6.961  17.462  0.00  0.00    +0.000 NA
ATOM     19  C   UNL     1       3.045   6.912  17.976  0.00  0.00    +0.000 A 
ATOM     20  C   UNL     1       2.346   8.143  18.414  0.00  0.00    +0.000 C 
ATOM     21  C   UNL     1       2.554   5.590  18.021  0.00  0.00    +0.000 A 
ATOM     22  C   UNL     1       3.569   4.804  17.522  0.00  0.00    +0.000 A 
ATOM     23  C   UNL     1       3.638   3.336  17.324  0.00  0.00    +0.000 C 
ENDBRANCH  16  17
ENDBRANCH  15  16
ENDBRANCH   2  15
TORSDOF 6
ENDMDL
MODEL 3
REMARK VINA RESULT:      -7.2      2.292      2.800
REMARK  Name = 
REMARK  9 active torsions:
REMARK  status: ('A' for Active; 'I' for Inactive)
REMARK    1  A    between atoms: C_1  and  O_2
REMARK    2  A    between atoms: O_2  and  C_3
REMARK    3  A    between atoms: C_6  and  C_7
REMARK    4  A    between atoms: N_8  and  N_9
REMARK    5  A    between atoms: C_10  and  C_12
REMARK    6  A    between atoms: C_12  and  C_13
REMARK    7  A    between atoms: C_13  and  N_14
REMARK    8  A    between atoms: C_16  and  C_17
REMARK    9  A    between atoms: C_19  and  C_20
REMARK                            x       y       z     vdW  Elec       q    Type
REMARK                         _______ _______ _______ _____ _____    ______ ____
ROOT
ATOM      1  N   UNL     1       7.633   7.031  17.982  0.00  0.00    +0.000 N 
ATOM      2  C   UNL     1       7.582   5.773  18.567  0.00  0.00    +0.000 C 
ATOM      3  O   UNL     1       8.163   5.448  19.601  0.00  0.00    +0.000 OA
ATOM      4  H   UNL     1       7.127   7.244  17.131  0.00  0.00    +0.000 HD
ENDROOT
BRANCH   1   6
ATOM      5  C   UNL     1       8.359   9.184  18.056  0.00  0.00    +0.000 C 
ATOM      6  N   UNL     1       8.370   8.004  18.589  0.00  0.00    +0.000 NA
BRANCH   5  10
ATOM      7  C   UNL     1      10.589  12.412  19.782  0.00  0.00    +0.000 A 
ATOM      8  C   UNL     1      10.517  12.264  18.396  0.00  0.00    +0.000 A 
ATOM      9  C   UNL     1       9.788  11.218  17.830  0.00  0.00    +0.000 A 
ATOM     10  C   UNL     1       9.137  10.295  18.653  0.00  0.00    +0.000 A 
ATOM     11  C   UNL     1       9.223  10.423  20.042  0.00  0.00    +0.000 A 
ATOM     12  C   UNL     1       9.951  11.482  20.607  0.00  0.00    +0.000 A 
BRANCH   7  14
ATOM     13  C   UNL     1      10.621  14.555  20.787  0.00  0.00    +0.000 C 
ATOM     14  O   UNL     1      11.340  13.471  20.212  0.00  0.00    +0.000 OA
ENDBRANCH   7  14
ENDBRANCH   5  10
ENDBRANCH   1   6
BRANCH   2  15
ATOM     15  C   UNL     1       6.725   4.777  17.821  0.00  0.00    +0.000 C 
BRANCH  15  16
ATOM     16  C   UNL     1       5.897   5.530  16.791  0.00  0.00    +0.000 C 
BRANCH  16  17
ATOM     17  N   UNL     1       4.559   5.833  17.266  0.00  0.00    +0.000 N 
ATOM     18  N   UNL     1       4.227   7.118  17.510  0.00  0.00    +0.000 NA
ATOM     19  C   UNL     1       2.983   7.048  18.000  0.00  0.00    +0.000 A 
ATOM     20  C   UNL     1       2.258   8.266  18.434  0.00  0.00    +0.000 C 
ATOM     21  C   UNL     1       2.509   5.718  18.027  0.00  0.00    +0.000 A 
ATOM     22  C   UNL     1       3.544   4.950  17.541  0.00  0.00    +0.000 A 
ATOM     23  C   UNL     1       3.638   3.485  17.334  0.00  0.00    +0.000 C 
ENDBRANCH  16  17
ENDBRANCH  15  16
ENDBRANCH   2  15
TORSDOF 6
ENDMDL
MODEL 4
REMARK VINA RESULT:      -7.2      1.523      1.883
REMARK  Name = 
REMARK  9 active torsions:
REMARK  status: ('A' for Active; 'I' for Inactive)
REMARK    1  A    between atoms: C_1  and  O_2
REMARK    2  A    between atoms: O_2  and  C_3
REMARK    3  A    between atoms: C_6  and  C_7
REMARK    4  A    between atoms: N_8  and  N_9
REMARK    5  A    between atoms: C_10  and  C_12
REMARK    6  A    between atoms: C_12  and  C_13
REMARK    7  A    between atoms: C_13  and  N_14
REMARK    8  A    between atoms: C_16  and  C_17
REMARK    9  A    between atoms: C_19  and  C_20
REMARK                            x       y       z     vdW  Elec       q    Type
REMARK                         _______ _______ _______ _____ _____    ______ ____
ROOT
ATOM      1  N   UNL     1       7.663   7.413  18.280  0.00  0.00    +0.000 N 
ATOM      2  C   UNL     1       7.506   6.391  17.352  0.00  0.00    +0.000 C 
ATOM      3  O   UNL     1       7.724   6.490  16.146  0.00  0.00    +0.000 OA
ATOM      4  H   UNL     1       7.474   7.272  19.265  0.00  0.00    +0.000 HD
ENDROOT
BRANCH   1   6
ATOM      5  C   UNL     1       8.755   9.364  18.687  0.00  0.00    +0.000 C 
ATOM      6  N   UNL     1       8.104   8.628  17.845  0.00  0.00    +0.000 NA
BRANCH   5  10
ATOM      7  C   UNL     1      10.228  13.232  17.573  0.00  0.00    +0.000 A 
ATOM      8  C   UNL     1       8.860  12.958  17.533  0.00  0.00    +0.000 A 
ATOM      9  C   UNL     1       8.376  11.702  17.900  0.00  0.00    +0.000 A 
ATOM     10  C   UNL     1       9.265  10.699  18.294  0.00  0.00    +0.000 A 
ATOM     11  C   UNL     1      10.638  10.958  18.315  0.00  0.00    +0.000 A 
ATOM     12  C   UNL     1      11.120  12.226  17.952  0.00  0.00    +0.000 A 
BRANCH   7  14
ATOM     13  C   UNL     1       9.997  15.561  17.925  0.00  0.00    +0.000 C 
ATOM     14  O   UNL     1      10.576  14.496  17.182  0.00  0.00    +0.000 OA
ENDBRANCH   7  14
ENDBRANCH   5  10
ENDBRANCH   1   6
BRANCH   2  15
ATOM     15  C   UNL     1       7.028   5.085  17.943  0.00  0.00    +0.000 C 
BRANCH  15  16
ATOM     16  C   UNL     1       5.931   5.387  18.953  0.00  0.00    +0.000 C 
BRANCH  16  17
ATOM     17  N   UNL     1       4.634   4.888  18.531  0.00  0.00    +0.000 N 
ATOM     18  N   UNL     1       4.389   3.563  18.601  0.00  0.00    +0.000 NA
ATOM     19  C   UNL     1       3.165   3.427  18.076  0.00  0.00    +0.000 A 
ATOM     20  C   UNL     1       2.532   2.094  17.935  0.00  0.00    +0.000 C 
ATOM     21  C   UNL     1       2.616   4.675  17.710  0.00  0.00    +0.000 A 
ATOM     22  C   UNL     1       3.582   5.606  18.020  0.00  0.00    +0.000 A 
ATOM     23  C   UNL     1       3.580   7.081  17.862  0.00  0.00    +0.000 C 
ENDBRANCH  16  17
ENDBRANCH  15  16
ENDBRANCH   2  15
TORSDOF 6
ENDMDL
MODEL 5
REMARK VINA RESULT:      -7.2      2.075      2.734
REMARK  Name = 
REMARK  9 active torsions:
REMARK  status: ('A' for Active; 'I' for Inactive)
REMARK    1  A    between atoms: C_1  and  O_2
REMARK    2  A    between atoms: O_2  and  C_3
REMARK    3  A    between atoms: C_6  and  C_7
REMARK    4  A    between atoms: N_8  and  N_9
REMARK    5  A    between atoms: C_10  and  C_12
REMARK    6  A    between atoms: C_12  and  C_13
REMARK    7  A    between atoms: C_13  and  N_14
REMARK    8  A    between atoms: C_16  and  C_17
REMARK    9  A    between atoms: C_19  and  C_20
REMARK                            x       y       z     vdW  Elec       q    Type
REMARK                         _______ _______ _______ _____ _____    ______ ____
ROOT
ATOM      1  N   UNL     1       7.704   6.819  17.973  0.00  0.00    +0.000 N 
ATOM      2  C   UNL     1       7.355   5.750  18.789  0.00  0.00    +0.000 C 
ATOM      3  O   UNL     1       7.598   5.668  19.991  0.00  0.00    +0.000 OA
ATOM      4  H   UNL     1       7.471   6.835  16.987  0.00  0.00    +0.000 HD
ENDROOT
BRANCH   1   6
ATOM      5  C   UNL     1       8.176   9.042  17.993  0.00  0.00    +0.000 C 
ATOM      6  N   UNL     1       8.359   7.878  18.528  0.00  0.00    +0.000 NA
BRANCH   5  10
ATOM      7  C   UNL     1      10.117  12.523  19.570  0.00  0.00    +0.000 A 
ATOM      8  C   UNL     1       9.516  12.558  18.311  0.00  0.00    +0.000 A 
ATOM      9  C   UNL     1       8.878  11.429  17.795  0.00  0.00    +0.000 A 
ATOM     10  C   UNL     1       8.854  10.243  18.535  0.00  0.00    +0.000 A 
ATOM     11  C   UNL     1       9.473  10.193  19.786  0.00  0.00    +0.000 A 
ATOM     12  C   UNL     1      10.107  11.334  20.303  0.00  0.00    +0.000 A 
BRANCH   7  14
ATOM     13  C   UNL     1      11.227  14.507  18.912  0.00  0.00    +0.000 C 
ATOM     14  O   UNL     1      10.714  13.691  19.958  0.00  0.00    +0.000 OA
ENDBRANCH   7  14
ENDBRANCH   5  10
ENDBRANCH   1   6
BRANCH   2  15
ATOM     15  C   UNL     1       6.620   4.640  18.075  0.00  0.00    +0.000 C 
BRANCH  15  16
ATOM     16  C   UNL     1       5.443   4.208  18.938  0.00  0.00    +0.000 C 
BRANCH  16  17
ATOM     17  N   UNL     1       4.190   4.802  18.508  0.00  0.00    +0.000 N 
ATOM     18  N   UNL     1       4.038   6.140  18.593  0.00  0.00    +0.000 NA
ATOM     19  C   UNL     1       2.774   6.351  18.204  0.00  0.00    +0.000 A 
ATOM     20  C   UNL     1       2.192   7.714  18.190  0.00  0.00    +0.000 C 
ATOM     21  C   UNL     1       2.137   5.148  17.831  0.00  0.00    +0.000 A 
ATOM     22  C   UNL     1       3.075   4.159  18.029  0.00  0.00    +0.000 A 
ATOM     23  C   UNL     1       2.988   2.695  17.813  0.00  0.00    +0.000 C 
ENDBRANCH  16  17
ENDBRANCH  15  16
ENDBRANCH   2  15
TORSDOF 6
ENDMDL
MODEL 6
REMARK VINA RESULT:      -7.2      2.255      2.689
REMARK  Name = 
REMARK  9 active torsions:
REMARK  status: ('A' for Active; 'I' for Inactive)
REMARK    1  A    between atoms: C_1  and  O_2
REMARK    2  A    between atoms: O_2  and  C_3
REMARK    3  A    between atoms: C_6  and  C_7
REMARK    4  A    between atoms: N_8  and  N_9
REMARK    5  A    between atoms: C_10  and  C_12
REMARK    6  A    between atoms: C_12  and  C_13
REMARK    7  A    between atoms: C_13  and  N_14
REMARK    8  A    between atoms: C_16  and  C_17
REMARK    9  A    between atoms: C_19  and  C_20
REMARK                            x       y       z     vdW  Elec       q    Type
REMARK                         _______ _______ _______ _____ _____    ______ ____
ROOT
ATOM      1  N   UNL     1       7.158   7.697  17.302  0.00  0.00    +0.000 N 
ATOM      2  C   UNL     1       7.211   6.309  17.343  0.00  0.00    +0.000 C 
ATOM      3  O   UNL     1       8.070   5.651  17.926  0.00  0.00    +0.000 OA
ATOM      4  H   UNL     1       6.421   8.187  16.810  0.00  0.00    +0.000 HD
ENDROOT
BRANCH   1   6
ATOM      5  C   UNL     1       8.214   9.670  17.696  0.00  0.00    +0.000 C 
ATOM      6  N   UNL     1       8.116   8.407  17.963  0.00  0.00    +0.000 NA
BRANCH   5  10
ATOM      7  C   UNL     1      11.143  12.122  19.642  0.00  0.00    +0.000 A 
ATOM      8  C   UNL     1      11.084  12.062  18.249  0.00  0.00    +0.000 A 
ATOM      9  C   UNL     1      10.129  11.269  17.611  0.00  0.00    +0.000 A 
ATOM     10  C   UNL     1       9.232  10.511  18.369  0.00  0.00    +0.000 A 
ATOM     11  C   UNL     1       9.299  10.548  19.765  0.00  0.00    +0.000 A 
ATOM     12  C   UNL     1      10.257  11.353  20.401  0.00  0.00    +0.000 A 
BRANCH   7  14
ATOM     13  C   UNL     1      12.313  14.173  19.484  0.00  0.00    +0.000 C 
ATOM     14  O   UNL     1      12.127  12.927  20.144  0.00  0.00    +0.000 OA
ENDBRANCH   7  14
ENDBRANCH   5  10
ENDBRANCH   1   6
BRANCH   2  15
ATOM     15  C   UNL     1       6.094   5.623  16.591  0.00  0.00    +0.000 C 
BRANCH  15  16
ATOM     16  C   UNL     1       4.811   6.412  16.810  0.00  0.00    +0.000 C 
BRANCH  16  17
ATOM     17  N   UNL     1       3.762   5.613  17.416  0.00  0.00    +0.000 N 
ATOM     18  N   UNL     1       3.773   4.275  17.236  0.00  0.00    +0.000 NA
ATOM     19  C   UNL     1       2.656   3.854  17.841  0.00  0.00    +0.000 A 
ATOM     20  C   UNL     1       2.274   2.422  17.838  0.00  0.00    +0.000 C 
ATOM     21  C   UNL     1       1.956   4.922  18.442  0.00  0.00    +0.000 A 
ATOM     22  C   UNL     1       2.694   6.050  18.160  0.00  0.00    +0.000 A 
ATOM     23  C   UNL     1       2.461   7.468  18.526  0.00  0.00    +0.000 C 
ENDBRANCH  16  17
ENDBRANCH  15  16
ENDBRANCH   2  15
TORSDOF 6
ENDMDL
MODEL 7
REMARK VINA RESULT:      -7.1      0.939      2.348
REMARK  Name = 
REMARK  9 active torsions:
REMARK  status: ('A' for Active; 'I' for Inactive)
REMARK    1  A    between atoms: C_1  and  O_2
REMARK    2  A    between atoms: O_2  and  C_3
REMARK    3  A    between atoms: C_6  and  C_7
REMARK    4  A    between atoms: N_8  and  N_9
REMARK    5  A    between atoms: C_10  and  C_12
REMARK    6  A    between atoms: C_12  and  C_13
REMARK    7  A    between atoms: C_13  and  N_14
REMARK    8  A    between atoms: C_16  and  C_17
REMARK    9  A    between atoms: C_19  and  C_20
REMARK                            x       y       z     vdW  Elec       q    Type
REMARK                         _______ _______ _______ _____ _____    ______ ____
ROOT
ATOM      1  N   UNL     1       8.516   8.174  18.777  0.00  0.00    +0.000 N 
ATOM      2  C   UNL     1       7.725   7.315  18.025  0.00  0.00    +0.000 C 
ATOM      3  O   UNL     1       7.373   7.511  16.864  0.00  0.00    +0.000 OA
ATOM      4  H   UNL     1       8.781   7.958  19.730  0.00  0.00    +0.000 HD
ENDROOT
BRANCH   1   6
ATOM      5  C   UNL     1       9.256  10.313  18.984  0.00  0.00    +0.000 C 
ATOM      6  N   UNL     1       8.960   9.327  18.200  0.00  0.00    +0.000 NA
BRANCH   5  10
ATOM      7  C   UNL     1      10.670  14.044  17.417  0.00  0.00    +0.000 A 
ATOM      8  C   UNL     1       9.407  13.957  18.005  0.00  0.00    +0.000 A 
ATOM      9  C   UNL     1       8.945  12.746  18.521  0.00  0.00    +0.000 A 
ATOM     10  C   UNL     1       9.742  11.601  18.435  0.00  0.00    +0.000 A 
ATOM     11  C   UNL     1      10.998  11.674  17.827  0.00  0.00    +0.000 A 
ATOM     12  C   UNL     1      11.462  12.897  17.317  0.00  0.00    +0.000 A 
BRANCH   7  14
ATOM     13  C   UNL     1      10.209  16.365  17.412  0.00  0.00    +0.000 C 
ATOM     14  O   UNL     1      11.003  15.283  16.943  0.00  0.00    +0.000 OA
ENDBRANCH   7  14
ENDBRANCH   5  10
ENDBRANCH   1   6
BRANCH   2  15
ATOM     15  C   UNL     1       7.303   6.062  18.756  0.00  0.00    +0.000 C 
BRANCH  15  16
ATOM     16  C   UNL     1       7.789   4.856  17.966  0.00  0.00    +0.000 C 
BRANCH  16  17
ATOM     17  N   UNL     1       6.877   4.485  16.899  0.00  0.00    +0.000 N 
ATOM     18  N   UNL     1       7.342   4.418  15.634  0.00  0.00    +0.000 NA
ATOM     19  C   UNL     1       6.258   4.136  14.901  0.00  0.00    +0.000 A 
ATOM     20  C   UNL     1       6.340   4.012  13.426  0.00  0.00    +0.000 C 
ATOM     21  C   UNL     1       5.110   3.981  15.708  0.00  0.00    +0.000 A 
ATOM     22  C   UNL     1       5.536   4.205  16.998  0.00  0.00    +0.000 A 
ATOM     23  C   UNL     1       4.784   4.182  18.276  0.00  0.00    +0.000 C 
ENDBRANCH  16  17
ENDBRANCH  15  16
ENDBRANCH   2  15
TORSDOF 6
ENDMDL
MODEL 8
REMARK VINA RESULT:      -7.1      1.990      2.493
REMARK  Name = 
REMARK  9 active torsions:
REMARK  status: ('A' for Active; 'I' for Inactive)
REMARK    1  A    between atoms: C_1  and  O_2
REMARK    2  A    between atoms: O_2  and  C_3
REMARK    3  A    between atoms: C_6  and  C_7
REMARK    4  A    between atoms: N_8  and  N_9
REMARK    5  A    between atoms: C_10  and  C_12
REMARK    6  A    between atoms: C_12  and  C_13
REMARK    7  A    between atoms: C_13  and  N_14
REMARK    8  A    between atoms: C_16  and  C_17
REMARK    9  A    between atoms: C_19  and  C_20
REMARK                            x       y       z     vdW  Elec       q    Type
REMARK                         _______ _______ _______ _____ _____    ______ ____
ROOT
ATOM      1  N   UNL     1       7.497   7.530  17.124  0.00  0.00    +0.000 N 
ATOM      2  C   UNL     1       7.360   6.233  17.601  0.00  0.00    +0.000 C 
ATOM      3  O   UNL     1       7.569   5.878  18.759  0.00  0.00    +0.000 OA
ATOM      4  H   UNL     1       7.304   7.766  16.158  0.00  0.00    +0.000 HD
ENDROOT
BRANCH   1   6
ATOM      5  C   UNL     1       8.508   9.530  17.504  0.00  0.00    +0.000 C 
ATOM      6  N   UNL     1       7.881   8.508  17.992  0.00  0.00    +0.000 NA
BRANCH   5  10
ATOM      7  C   UNL     1       9.801  12.726  20.051  0.00  0.00    +0.000 A 
ATOM      8  C   UNL     1       9.346  12.992  18.759  0.00  0.00    +0.000 A 
ATOM      9  C   UNL     1       8.919  11.955  17.928  0.00  0.00    +0.000 A 
ATOM     10  C   UNL     1       8.963  10.634  18.382  0.00  0.00    +0.000 A 
ATOM     11  C   UNL     1       9.439  10.357  19.666  0.00  0.00    +0.000 A 
ATOM     12  C   UNL     1       9.860  11.404  20.501  0.00  0.00    +0.000 A 
BRANCH   7  14
ATOM     13  C   UNL     1      11.175  14.651  20.139  0.00  0.00    +0.000 C 
ATOM     14  O   UNL     1      10.199  13.825  20.761  0.00  0.00    +0.000 OA
ENDBRANCH   7  14
ENDBRANCH   5  10
ENDBRANCH   1   6
BRANCH   2  15
ATOM     15  C   UNL     1       6.915   5.233  16.559  0.00  0.00    +0.000 C 
BRANCH  15  16
ATOM     16  C   UNL     1       5.554   5.662  16.030  0.00  0.00    +0.000 C 
BRANCH  16  17
ATOM     17  N   UNL     1       4.457   5.114  16.809  0.00  0.00    +0.000 N 
ATOM     18  N   UNL     1       4.250   3.781  16.799  0.00  0.00    +0.000 NA
ATOM     19  C   UNL     1       3.143   3.615  17.532  0.00  0.00    +0.000 A 
ATOM     20  C   UNL     1       2.552   2.272  17.739  0.00  0.00    +0.000 C 
ATOM     21  C   UNL     1       2.670   4.843  18.044  0.00  0.00    +0.000 A 
ATOM     22  C   UNL     1       3.541   5.798  17.568  0.00  0.00    +0.000 A 
ATOM     23  C   UNL     1       3.558   7.268  17.769  0.00  0.00    +0.000 C 
ENDBRANCH  16  17
ENDBRANCH  15  16
ENDBRANCH   2  15
TORSDOF 6
ENDMDL
MODEL 9
REMARK VINA RESULT:      -6.9      1.756      2.388
REMARK  Name = 
REMARK  9 active torsions:
REMARK  status: ('A' for Active; 'I' for Inactive)
REMARK    1  A    between atoms: C_1  and  O_2
REMARK    2  A    between atoms: O_2  and  C_3
REMARK    3  A    between atoms: C_6  and  C_7
REMARK    4  A    between atoms: N_8  and  N_9
REMARK    5  A    between atoms: C_10  and  C_12
REMARK    6  A    between atoms: C_12  and  C_13
REMARK    7  A    between atoms: C_13  and  N_14
REMARK    8  A    between atoms: C_16  and  C_17
REMARK    9  A    between atoms: C_19  and  C_20
REMARK                            x       y       z     vdW  Elec       q    Type
REMARK                         _______ _______ _______ _____ _____    ______ ____
ROOT
ATOM      1  N   UNL     1       8.304   7.903  18.667  0.00  0.00    +0.000 N 
ATOM      2  C   UNL     1       7.721   6.974  17.814  0.00  0.00    +0.000 C 
ATOM      3  O   UNL     1       7.643   7.087  16.592  0.00  0.00    +0.000 OA
ATOM      4  H   UNL     1       8.346   7.753  19.668  0.00  0.00    +0.000 HD
ENDROOT
BRANCH   1   6
ATOM      5  C   UNL     1       9.048  10.035  18.923  0.00  0.00    +0.000 C 
ATOM      6  N   UNL     1       8.849   9.031  18.131  0.00  0.00    +0.000 NA
BRANCH   5  10
ATOM      7  C   UNL     1      10.747  13.697  17.483  0.00  0.00    +0.000 A 
ATOM      8  C   UNL     1       9.386  13.619  17.782  0.00  0.00    +0.000 A 
ATOM      9  C   UNL     1       8.829  12.430  18.256  0.00  0.00    +0.000 A 
ATOM     10  C   UNL     1       9.634  11.299  18.418  0.00  0.00    +0.000 A 
ATOM     11  C   UNL     1      10.993  11.362  18.099  0.00  0.00    +0.000 A 
ATOM     12  C   UNL     1      11.549  12.563  17.629  0.00  0.00    +0.000 A 
BRANCH   7  14
ATOM     13  C   UNL     1      11.613  15.837  18.004  0.00  0.00    +0.000 C 
ATOM     14  O   UNL     1      11.167  14.913  17.019  0.00  0.00    +0.000 OA
ENDBRANCH   7  14
ENDBRANCH   5  10
ENDBRANCH   1   6
BRANCH   2  15
ATOM     15  C   UNL     1       7.163   5.756  18.511  0.00  0.00    +0.000 C 
BRANCH  15  16
ATOM     16  C   UNL     1       6.067   5.161  17.638  0.00  0.00    +0.000 C 
BRANCH  16  17
ATOM     17  N   UNL     1       4.742   5.615  18.021  0.00  0.00    +0.000 N 
ATOM     18  N   UNL     1       4.295   6.797  17.550  0.00  0.00    +0.000 NA
ATOM     19  C   UNL     1       3.104   6.956  18.141  0.00  0.00    +0.000 A 
ATOM     20  C   UNL     1       2.287   8.171  17.910  0.00  0.00    +0.000 C 
ATOM     21  C   UNL     1       2.777   5.851  18.957  0.00  0.00    +0.000 A 
ATOM     22  C   UNL     1       3.850   4.993  18.858  0.00  0.00    +0.000 A 
ATOM     23  C   UNL     1       4.083   3.671  19.489  0.00  0.00    +0.000 C 
ENDBRANCH  16  17
ENDBRANCH  15  16
ENDBRANCH   2  15
TORSDOF 6
ENDMDL
