MODEL 1
REMARK VINA RESULT:      -8.9      0.000      0.000
REMARK  Name = 
REMARK  4 active torsions:
REMARK  status: ('A' for Active; 'I' for Inactive)
REMARK    1  A    between atoms: C_4  and  C_5
REMARK    2  A    between atoms: C_4  and  C_22
REMARK    3  A    between atoms: C_7  and  N_8
REMARK    4  A    between atoms: C_9  and  C_11
REMARK                            x       y       z     vdW  Elec       q    Type
REMARK                         _______ _______ _______ _____ _____    ______ ____
ROOT
ATOM      1  C   UNL     1       3.423   5.602  18.850  0.00  0.00    +0.000 A 
ATOM      2  C   UNL     1       2.993   6.944  18.766  0.00  0.00    +0.000 A 
ATOM      3  C   UNL     1       2.062   7.503  19.649  0.00  0.00    +0.000 A 
ATOM      4  C   UNL     1       1.569   6.712  20.687  0.00  0.00    +0.000 A 
ATOM      5  C   UNL     1       1.992   5.383  20.812  0.00  0.00    +0.000 A 
ATOM      6  C   UNL     1       2.905   4.844  19.903  0.00  0.00    +0.000 A 
ATOM      7  F   UNL     1       3.282   3.567  20.061  0.00  0.00    +0.000 F 
ENDROOT
BRANCH   1  11
ATOM      8  N   UNL     1       7.713   5.088  19.454  0.00  0.00    +0.000 N 
ATOM      9  C   UNL     1       6.641   5.394  18.694  0.00  0.00    +0.000 C 
ATOM     10  N   UNL     1       5.670   4.580  18.513  0.00  0.00    +0.000 NA
ATOM     11  C   UNL     1       4.422   5.015  17.818  0.00  0.00    +0.000 C 
ATOM     12  C   UNL     1       4.744   6.098  16.795  0.00  0.00    +0.000 C 
ATOM     13  C   UNL     1       5.948   6.030  15.878  0.00  0.00    +0.000 C 
ATOM     14  C   UNL     1       5.918   6.979  17.048  0.00  0.00    +0.000 C 
ATOM     15  O   UNL     1       6.756   6.628  18.154  0.00  0.00    +0.000 OA
ATOM     16  H   UNL     1       7.823   4.111  19.683  0.00  0.00    +0.000 HD
ATOM     17  H   UNL     1       8.552   5.628  19.299  0.00  0.00    +0.000 HD
BRANCH  11  18
ATOM     18  C   UNL     1       3.799   3.757  17.076  0.00  0.00    +0.000 C 
ATOM     19  F   UNL     1       2.440   3.797  17.048  0.00  0.00    +0.000 F 
ATOM     20  F   UNL     1       4.198   3.633  15.788  0.00  0.00    +0.000 F 
ATOM     21  F   UNL     1       4.124   2.590  17.695  0.00  0.00    +0.000 F 
ENDBRANCH  11  18
ENDBRANCH   1  11
BRANCH   3  22
ATOM     22  N   UNL     1       1.609   8.836  19.528  0.00  0.00    +0.000 N 
ATOM     23  C   UNL     1       1.659   9.612  18.379  0.00  0.00    +0.000 C 
ATOM     24  O   UNL     1       2.044   9.263  17.269  0.00  0.00    +0.000 OA
ATOM     25  H   UNL     1       1.154   9.270  20.326  0.00  0.00    +0.000 HD
BRANCH  23  26
ATOM     26  C   UNL     1       1.150  11.011  18.532  0.00  0.00    +0.000 A 
ATOM     27  C   UNL     1       2.044  12.070  18.372  0.00  0.00    +0.000 A 
ATOM     28  C   UNL     1       1.570  13.373  18.489  0.00  0.00    +0.000 A 
ATOM     29  C   UNL     1       0.223  13.571  18.766  0.00  0.00    +0.000 A 
ATOM     30 CL   UNL     1      -0.407  15.161  18.901  0.00  0.00    +0.000 Cl
ATOM     31  C   UNL     1      -0.596  12.458  18.922  0.00  0.00    +0.000 A 
ATOM     32  N   UNL     1      -0.173  11.170  18.809  0.00  0.00    +0.000 NA
ENDBRANCH  23  26
ENDBRANCH   3  22
TORSDOF 4
ENDMDL
MODEL 2
REMARK VINA RESULT:      -8.9      0.522      1.142
REMARK  Name = 
REMARK  4 active torsions:
REMARK  status: ('A' for Active; 'I' for Inactive)
REMARK    1  A    between atoms: C_4  and  C_5
REMARK    2  A    between atoms: C_4  and  C_22
REMARK    3  A    between atoms: C_7  and  N_8
REMARK    4  A    between atoms: C_9  and  C_11
REMARK                            x       y       z     vdW  Elec       q    Type
REMARK                         _______ _______ _______ _____ _____    ______ ____
ROOT
ATOM      1  C   UNL     1       3.489   5.527  18.850  0.00  0.00    +0.000 A 
ATOM      2  C   UNL     1       3.042   6.863  18.770  0.00  0.00    +0.000 A 
ATOM      3  C   UNL     1       2.101   7.408  19.653  0.00  0.00    +0.000 A 
ATOM      4  C   UNL     1       1.616   6.607  20.687  0.00  0.00    +0.000 A 
ATOM      5  C   UNL     1       2.056   5.283  20.808  0.00  0.00    +0.000 A 
ATOM      6  C   UNL     1       2.977   4.759  19.900  0.00  0.00    +0.000 A 
ATOM      7  F   UNL     1       3.370   3.486  20.054  0.00  0.00    +0.000 F 
ENDROOT
BRANCH   1  11
ATOM      8  N   UNL     1       7.788   5.094  19.451  0.00  0.00    +0.000 N 
ATOM      9  C   UNL     1       6.709   5.379  18.691  0.00  0.00    +0.000 C 
ATOM     10  N   UNL     1       5.753   4.546  18.513  0.00  0.00    +0.000 NA
ATOM     11  C   UNL     1       4.496   4.957  17.818  0.00  0.00    +0.000 C 
ATOM     12  C   UNL     1       4.797   6.043  16.793  0.00  0.00    +0.000 C 
ATOM     13  C   UNL     1       6.002   5.995  15.875  0.00  0.00    +0.000 C 
ATOM     14  C   UNL     1       5.956   6.946  17.043  0.00  0.00    +0.000 C 
ATOM     15  O   UNL     1       6.801   6.613  18.149  0.00  0.00    +0.000 OA
ATOM     16  H   UNL     1       7.916   4.120  19.682  0.00  0.00    +0.000 HD
ATOM     17  H   UNL     1       8.616   5.649  19.294  0.00  0.00    +0.000 HD
BRANCH  11  18
ATOM     18  C   UNL     1       3.896   3.686  17.080  0.00  0.00    +0.000 C 
ATOM     19  F   UNL     1       4.250   2.522  17.689  0.00  0.00    +0.000 F 
ATOM     20  F   UNL     1       2.543   3.682  17.017  0.00  0.00    +0.000 F 
ATOM     21  F   UNL     1       4.343   3.585  15.798  0.00  0.00    +0.000 F 
ENDBRANCH  11  18
ENDBRANCH   1  11
BRANCH   3  22
ATOM     22  N   UNL     1       1.632   8.735  19.535  0.00  0.00    +0.000 N 
ATOM     23  C   UNL     1       1.604   9.490  18.371  0.00  0.00    +0.000 C 
ATOM     24  O   UNL     1       1.921   9.122  17.246  0.00  0.00    +0.000 OA
ATOM     25  H   UNL     1       1.224   9.181  20.352  0.00  0.00    +0.000 HD
BRANCH  23  26
ATOM     26  C   UNL     1       1.095  10.888  18.529  0.00  0.00    +0.000 A 
ATOM     27  C   UNL     1      -0.272  11.084  18.726  0.00  0.00    +0.000 A 
ATOM     28  C   UNL     1      -0.746  12.381  18.897  0.00  0.00    +0.000 A 
ATOM     29  C   UNL     1       0.159  13.434  18.859  0.00  0.00    +0.000 A 
ATOM     30 CL   UNL     1      -0.380  15.047  19.082  0.00  0.00    +0.000 Cl
ATOM     31  C   UNL     1       1.504  13.149  18.645  0.00  0.00    +0.000 A 
ATOM     32  N   UNL     1       2.007  11.897  18.481  0.00  0.00    +0.000 NA
ENDBRANCH  23  26
ENDBRANCH   3  22
TORSDOF 4
ENDMDL
MODEL 3
REMARK VINA RESULT:      -8.7      1.617      1.842
REMARK  Name = 
REMARK  4 active torsions:
REMARK  status: ('A' for Active; 'I' for Inactive)
REMARK    1  A    between atoms: C_4  and  C_5
REMARK    2  A    between atoms: C_4  and  C_22
REMARK    3  A    between atoms: C_7  and  N_8
REMARK    4  A    between atoms: C_9  and  C_11
REMARK                            x       y       z     vdW  Elec       q    Type
REMARK                         _______ _______ _______ _____ _____    ______ ____
ROOT
ATOM      1  C   UNL     1       3.512   5.311  18.897  0.00  0.00    +0.000 A 
ATOM      2  C   UNL     1       2.955   6.607  18.938  0.00  0.00    +0.000 A 
ATOM      3  C   UNL     1       2.030   7.010  19.909  0.00  0.00    +0.000 A 
ATOM      4  C   UNL     1       1.676   6.104  20.908  0.00  0.00    +0.000 A 
ATOM      5  C   UNL     1       2.228   4.817  20.910  0.00  0.00    +0.000 A 
ATOM      6  C   UNL     1       3.130   4.435  19.917  0.00  0.00    +0.000 A 
ATOM      7  F   UNL     1       3.633   3.192  19.957  0.00  0.00    +0.000 F 
ENDROOT
BRANCH   1  11
ATOM      8  N   UNL     1       7.848   5.021  19.279  0.00  0.00    +0.000 N 
ATOM      9  C   UNL     1       6.726   5.331  18.596  0.00  0.00    +0.000 C 
ATOM     10  N   UNL     1       5.799   4.477  18.370  0.00  0.00    +0.000 NA
ATOM     11  C   UNL     1       4.497   4.898  17.772  0.00  0.00    +0.000 C 
ATOM     12  C   UNL     1       4.705   6.097  16.855  0.00  0.00    +0.000 C 
ATOM     13  C   UNL     1       5.869   6.200  15.891  0.00  0.00    +0.000 C 
ATOM     14  C   UNL     1       5.834   7.023  17.152  0.00  0.00    +0.000 C 
ATOM     15  O   UNL     1       6.741   6.617  18.183  0.00  0.00    +0.000 OA
ATOM     16  H   UNL     1       8.028   4.035  19.402  0.00  0.00    +0.000 HD
ATOM     17  H   UNL     1       8.644   5.627  19.148  0.00  0.00    +0.000 HD
BRANCH  11  18
ATOM     18  C   UNL     1       3.919   3.683  16.929  0.00  0.00    +0.000 C 
ATOM     19  F   UNL     1       4.326   3.717  15.632  0.00  0.00    +0.000 F 
ATOM     20  F   UNL     1       4.282   2.469  17.406  0.00  0.00    +0.000 F 
ATOM     21  F   UNL     1       2.559   3.692  16.892  0.00  0.00    +0.000 F 
ENDBRANCH  11  18
ENDBRANCH   1  11
BRANCH   3  22
ATOM     22  N   UNL     1       1.449   8.298  19.913  0.00  0.00    +0.000 N 
ATOM     23  C   UNL     1       1.214   9.083  21.033  0.00  0.00    +0.000 C 
ATOM     24  O   UNL     1       1.519   8.825  22.192  0.00  0.00    +0.000 OA
ATOM     25  H   UNL     1       1.223   8.733  19.023  0.00  0.00    +0.000 HD
BRANCH  23  26
ATOM     26  C   UNL     1       0.546  10.395  20.764  0.00  0.00    +0.000 A 
ATOM     27  C   UNL     1      -0.463  10.447  19.802  0.00  0.00    +0.000 A 
ATOM     28  C   UNL     1      -1.103  11.661  19.567  0.00  0.00    +0.000 A 
ATOM     29  C   UNL     1      -0.709  12.777  20.295  0.00  0.00    +0.000 A 
ATOM     30 CL   UNL     1      -1.482  14.287  20.049  0.00  0.00    +0.000 Cl
ATOM     31  C   UNL     1       0.315  12.637  21.227  0.00  0.00    +0.000 A 
ATOM     32  N   UNL     1       0.960  11.469  21.491  0.00  0.00    +0.000 NA
ENDBRANCH  23  26
ENDBRANCH   3  22
TORSDOF 4
ENDMDL
MODEL 4
REMARK VINA RESULT:      -8.7      1.977      2.529
REMARK  Name = 
REMARK  4 active torsions:
REMARK  status: ('A' for Active; 'I' for Inactive)
REMARK    1  A    between atoms: C_4  and  C_5
REMARK    2  A    between atoms: C_4  and  C_22
REMARK    3  A    between atoms: C_7  and  N_8
REMARK    4  A    between atoms: C_9  and  C_11
REMARK                            x       y       z     vdW  Elec       q    Type
REMARK                         _______ _______ _______ _____ _____    ______ ____
ROOT
ATOM      1  C   UNL     1       3.669   4.558  19.009  0.00  0.00    +0.000 A 
ATOM      2  C   UNL     1       3.002   5.715  19.468  0.00  0.00    +0.000 A 
ATOM      3  C   UNL     1       2.179   5.724  20.601  0.00  0.00    +0.000 A 
ATOM      4  C   UNL     1       2.046   4.546  21.336  0.00  0.00    +0.000 A 
ATOM      5  C   UNL     1       2.713   3.386  20.922  0.00  0.00    +0.000 A 
ATOM      6  C   UNL     1       3.508   3.400  19.776  0.00  0.00    +0.000 A 
ATOM      7  F   UNL     1       4.127   2.267  19.415  0.00  0.00    +0.000 F 
ENDROOT
BRANCH   1  11
ATOM      8  N   UNL     1       8.018   4.862  18.856  0.00  0.00    +0.000 N 
ATOM      9  C   UNL     1       6.782   5.150  18.396  0.00  0.00    +0.000 C 
ATOM     10  N   UNL     1       5.946   4.243  18.052  0.00  0.00    +0.000 NA
ATOM     11  C   UNL     1       4.531   4.589  17.721  0.00  0.00    +0.000 C 
ATOM     12  C   UNL     1       4.460   5.993  17.131  0.00  0.00    +0.000 C 
ATOM     13  C   UNL     1       5.457   6.507  16.113  0.00  0.00    +0.000 C 
ATOM     14  C   UNL     1       5.496   6.983  17.542  0.00  0.00    +0.000 C 
ATOM     15  O   UNL     1       6.579   6.485  18.333  0.00  0.00    +0.000 OA
ATOM     16  H   UNL     1       8.334   3.916  18.699  0.00  0.00    +0.000 HD
ATOM     17  H   UNL     1       8.707   5.598  18.807  0.00  0.00    +0.000 HD
BRANCH  11  18
ATOM     18  C   UNL     1       3.998   3.541  16.655  0.00  0.00    +0.000 C 
ATOM     19  F   UNL     1       4.375   3.859  15.387  0.00  0.00    +0.000 F 
ATOM     20  F   UNL     1       4.433   2.276  16.871  0.00  0.00    +0.000 F 
ATOM     21  F   UNL     1       2.639   3.484  16.635  0.00  0.00    +0.000 F 
ENDBRANCH  11  18
ENDBRANCH   1  11
BRANCH   3  22
ATOM     22  N   UNL     1       1.485   6.880  21.024  0.00  0.00    +0.000 N 
ATOM     23  C   UNL     1       1.469   8.105  20.373  0.00  0.00    +0.000 C 
ATOM     24  O   UNL     1       1.998   8.378  19.301  0.00  0.00    +0.000 OA
ATOM     25  H   UNL     1       0.895   6.818  21.848  0.00  0.00    +0.000 HD
BRANCH  23  26
ATOM     26  C   UNL     1       0.687   9.181  21.057  0.00  0.00    +0.000 A 
ATOM     27  C   UNL     1       0.329   9.001  22.394  0.00  0.00    +0.000 A 
ATOM     28  C   UNL     1      -0.379  10.010  23.040  0.00  0.00    +0.000 A 
ATOM     29  C   UNL     1      -0.707  11.157  22.329  0.00  0.00    +0.000 A 
ATOM     30 CL   UNL     1      -1.564  12.433  23.092  0.00  0.00    +0.000 Cl
ATOM     31  C   UNL     1      -0.321  11.249  20.996  0.00  0.00    +0.000 A 
ATOM     32  N   UNL     1       0.376  10.289  20.330  0.00  0.00    +0.000 NA
ENDBRANCH  23  26
ENDBRANCH   3  22
TORSDOF 4
ENDMDL
MODEL 5
REMARK VINA RESULT:      -8.5      2.119      2.568
REMARK  Name = 
REMARK  4 active torsions:
REMARK  status: ('A' for Active; 'I' for Inactive)
REMARK    1  A    between atoms: C_4  and  C_5
REMARK    2  A    between atoms: C_4  and  C_22
REMARK    3  A    between atoms: C_7  and  N_8
REMARK    4  A    between atoms: C_9  and  C_11
REMARK                            x       y       z     vdW  Elec       q    Type
REMARK                         _______ _______ _______ _____ _____    ______ ____
ROOT
ATOM      1  C   UNL     1       3.664   4.515  19.009  0.00  0.00    +0.000 A 
ATOM      2  C   UNL     1       2.977   5.659  19.469  0.00  0.00    +0.000 A 
ATOM      3  C   UNL     1       2.175   5.658  20.616  0.00  0.00    +0.000 A 
ATOM      4  C   UNL     1       2.086   4.485  21.366  0.00  0.00    +0.000 A 
ATOM      5  C   UNL     1       2.774   3.338  20.950  0.00  0.00    +0.000 A 
ATOM      6  C   UNL     1       3.547   3.361  19.788  0.00  0.00    +0.000 A 
ATOM      7  F   UNL     1       4.188   2.240  19.427  0.00  0.00    +0.000 F 
ENDROOT
BRANCH   1  11
ATOM      8  N   UNL     1       8.008   4.838  18.772  0.00  0.00    +0.000 N 
ATOM      9  C   UNL     1       6.762   5.123  18.338  0.00  0.00    +0.000 C 
ATOM     10  N   UNL     1       5.924   4.214  18.006  0.00  0.00    +0.000 NA
ATOM     11  C   UNL     1       4.501   4.555  17.704  0.00  0.00    +0.000 C 
ATOM     12  C   UNL     1       4.413   5.960  17.122  0.00  0.00    +0.000 C 
ATOM     13  C   UNL     1       5.387   6.483  16.086  0.00  0.00    +0.000 C 
ATOM     14  C   UNL     1       5.452   6.953  17.516  0.00  0.00    +0.000 C 
ATOM     15  O   UNL     1       6.553   6.457  18.284  0.00  0.00    +0.000 OA
ATOM     16  H   UNL     1       8.325   3.894  18.605  0.00  0.00    +0.000 HD
ATOM     17  H   UNL     1       8.692   5.577  18.713  0.00  0.00    +0.000 HD
BRANCH  11  18
ATOM     18  C   UNL     1       3.952   3.509  16.644  0.00  0.00    +0.000 C 
ATOM     19  F   UNL     1       4.409   2.250  16.879  0.00  0.00    +0.000 F 
ATOM     20  F   UNL     1       2.600   3.420  16.617  0.00  0.00    +0.000 F 
ATOM     21  F   UNL     1       4.343   3.816  15.377  0.00  0.00    +0.000 F 
ENDBRANCH  11  18
ENDBRANCH   1  11
BRANCH   3  22
ATOM     22  N   UNL     1       1.460   6.800  21.042  0.00  0.00    +0.000 N 
ATOM     23  C   UNL     1       1.457   8.039  20.418  0.00  0.00    +0.000 C 
ATOM     24  O   UNL     1       2.019   8.339  19.371  0.00  0.00    +0.000 OA
ATOM     25  H   UNL     1       0.843   6.716  21.845  0.00  0.00    +0.000 HD
BRANCH  23  26
ATOM     26  C   UNL     1       0.645   9.095  21.099  0.00  0.00    +0.000 A 
ATOM     27  C   UNL     1       0.085  10.112  20.325  0.00  0.00    +0.000 A 
ATOM     28  C   UNL     1      -0.690  11.082  20.952  0.00  0.00    +0.000 A 
ATOM     29  C   UNL     1      -0.874  11.006  22.327  0.00  0.00    +0.000 A 
ATOM     30 CL   UNL     1      -1.837  12.172  23.137  0.00  0.00    +0.000 Cl
ATOM     31  C   UNL     1      -0.270   9.965  23.023  0.00  0.00    +0.000 A 
ATOM     32  N   UNL     1       0.489   8.994  22.448  0.00  0.00    +0.000 NA
ENDBRANCH  23  26
ENDBRANCH   3  22
TORSDOF 4
ENDMDL
MODEL 6
REMARK VINA RESULT:      -8.5      1.490      1.852
REMARK  Name = 
REMARK  4 active torsions:
REMARK  status: ('A' for Active; 'I' for Inactive)
REMARK    1  A    between atoms: C_4  and  C_5
REMARK    2  A    between atoms: C_4  and  C_22
REMARK    3  A    between atoms: C_7  and  N_8
REMARK    4  A    between atoms: C_9  and  C_11
REMARK                            x       y       z     vdW  Elec       q    Type
REMARK                         _______ _______ _______ _____ _____    ______ ____
ROOT
ATOM      1  C   UNL     1       3.485   5.325  18.892  0.00  0.00    +0.000 A 
ATOM      2  C   UNL     1       2.953   6.631  18.950  0.00  0.00    +0.000 A 
ATOM      3  C   UNL     1       2.028   7.036  19.920  0.00  0.00    +0.000 A 
ATOM      4  C   UNL     1       1.649   6.121  20.902  0.00  0.00    +0.000 A 
ATOM      5  C   UNL     1       2.176   4.824  20.887  0.00  0.00    +0.000 A 
ATOM      6  C   UNL     1       3.079   4.440  19.894  0.00  0.00    +0.000 A 
ATOM      7  F   UNL     1       3.557   3.188  19.918  0.00  0.00    +0.000 F 
ENDROOT
BRANCH   1  11
ATOM      8  N   UNL     1       7.820   5.022  19.281  0.00  0.00    +0.000 N 
ATOM      9  C   UNL     1       6.700   5.337  18.597  0.00  0.00    +0.000 C 
ATOM     10  N   UNL     1       5.771   4.486  18.368  0.00  0.00    +0.000 NA
ATOM     11  C   UNL     1       4.471   4.911  17.768  0.00  0.00    +0.000 C 
ATOM     12  C   UNL     1       4.684   6.112  16.854  0.00  0.00    +0.000 C 
ATOM     13  C   UNL     1       5.850   6.213  15.891  0.00  0.00    +0.000 C 
ATOM     14  C   UNL     1       5.815   7.034  17.154  0.00  0.00    +0.000 C 
ATOM     15  O   UNL     1       6.719   6.624  18.186  0.00  0.00    +0.000 OA
ATOM     16  H   UNL     1       7.996   4.035  19.402  0.00  0.00    +0.000 HD
ATOM     17  H   UNL     1       8.618   5.626  19.153  0.00  0.00    +0.000 HD
BRANCH  11  18
ATOM     18  C   UNL     1       3.891   3.700  16.922  0.00  0.00    +0.000 C 
ATOM     19  F   UNL     1       4.284   2.494  17.413  0.00  0.00    +0.000 F 
ATOM     20  F   UNL     1       2.538   3.665  16.878  0.00  0.00    +0.000 F 
ATOM     21  F   UNL     1       4.318   3.732  15.630  0.00  0.00    +0.000 F 
ENDBRANCH  11  18
ENDBRANCH   1  11
BRANCH   3  22
ATOM     22  N   UNL     1       1.472   8.335  19.940  0.00  0.00    +0.000 N 
ATOM     23  C   UNL     1       1.231   9.101  21.071  0.00  0.00    +0.000 C 
ATOM     24  O   UNL     1       1.510   8.814  22.230  0.00  0.00    +0.000 OA
ATOM     25  H   UNL     1       1.271   8.792  19.055  0.00  0.00    +0.000 HD
BRANCH  23  26
ATOM     26  C   UNL     1       0.593  10.431  20.818  0.00  0.00    +0.000 A 
ATOM     27  C   UNL     1      -0.217  10.984  21.810  0.00  0.00    +0.000 A 
ATOM     28  C   UNL     1      -0.792  12.231  21.588  0.00  0.00    +0.000 A 
ATOM     29  C   UNL     1      -0.542  12.878  20.384  0.00  0.00    +0.000 A 
ATOM     30 CL   UNL     1      -1.218  14.425  20.077  0.00  0.00    +0.000 Cl
ATOM     31  C   UNL     1       0.268  12.249  19.445  0.00  0.00    +0.000 A 
ATOM     32  N   UNL     1       0.854  11.035  19.626  0.00  0.00    +0.000 NA
ENDBRANCH  23  26
ENDBRANCH   3  22
TORSDOF 4
ENDMDL
MODEL 7
REMARK VINA RESULT:      -8.4      1.337      1.867
REMARK  Name = 
REMARK  4 active torsions:
REMARK  status: ('A' for Active; 'I' for Inactive)
REMARK    1  A    between atoms: C_4  and  C_5
REMARK    2  A    between atoms: C_4  and  C_22
REMARK    3  A    between atoms: C_7  and  N_8
REMARK    4  A    between atoms: C_9  and  C_11
REMARK                            x       y       z     vdW  Elec       q    Type
REMARK                         _______ _______ _______ _____ _____    ______ ____
ROOT
ATOM      1  C   UNL     1       4.524   5.348  18.528  0.00  0.00    +0.000 A 
ATOM      2  C   UNL     1       3.777   6.544  18.594  0.00  0.00    +0.000 A 
ATOM      3  C   UNL     1       2.623   6.681  19.375  0.00  0.00    +0.000 A 
ATOM      4  C   UNL     1       2.217   5.601  20.159  0.00  0.00    +0.000 A 
ATOM      5  C   UNL     1       2.950   4.407  20.135  0.00  0.00    +0.000 A 
ATOM      6  C   UNL     1       4.083   4.291  19.328  0.00  0.00    +0.000 A 
ATOM      7  F   UNL     1       4.753   3.130  19.335  0.00  0.00    +0.000 F 
ENDROOT
BRANCH   1  11
ATOM      8  N   UNL     1       8.669   5.101  19.864  0.00  0.00    +0.000 N 
ATOM      9  C   UNL     1       7.710   5.527  19.016  0.00  0.00    +0.000 C 
ATOM     10  N   UNL     1       6.931   4.722  18.396  0.00  0.00    +0.000 NA
ATOM     11  C   UNL     1       5.768   5.232  17.609  0.00  0.00    +0.000 C 
ATOM     12  C   UNL     1       6.081   6.614  17.050  0.00  0.00    +0.000 C 
ATOM     13  C   UNL     1       7.421   6.968  16.437  0.00  0.00    +0.000 C 
ATOM     14  C   UNL     1       7.034   7.479  17.801  0.00  0.00    +0.000 C 
ATOM     15  O   UNL     1       7.713   6.874  18.906  0.00  0.00    +0.000 OA
ATOM     16  H   UNL     1       8.896   4.119  19.810  0.00  0.00    +0.000 HD
ATOM     17  H   UNL     1       9.422   5.744  20.062  0.00  0.00    +0.000 HD
BRANCH  11  18
ATOM     18  C   UNL     1       5.498   4.226  16.411  0.00  0.00    +0.000 C 
ATOM     19  F   UNL     1       6.633   3.600  15.998  0.00  0.00    +0.000 F 
ATOM     20  F   UNL     1       4.615   3.245  16.713  0.00  0.00    +0.000 F 
ATOM     21  F   UNL     1       5.006   4.864  15.314  0.00  0.00    +0.000 F 
ENDBRANCH  11  18
ENDBRANCH   1  11
BRANCH   3  22
ATOM     22  N   UNL     1       1.862   7.871  19.400  0.00  0.00    +0.000 N 
ATOM     23  C   UNL     1       1.793   8.815  18.386  0.00  0.00    +0.000 C 
ATOM     24  O   UNL     1       2.325   8.754  17.283  0.00  0.00    +0.000 OA
ATOM     25  H   UNL     1       1.261   8.047  20.200  0.00  0.00    +0.000 HD
BRANCH  23  26
ATOM     26  C   UNL     1       0.942  10.010  18.683  0.00  0.00    +0.000 A 
ATOM     27  C   UNL     1      -0.364  10.039  18.194  0.00  0.00    +0.000 A 
ATOM     28  C   UNL     1      -1.166  11.138  18.488  0.00  0.00    +0.000 A 
ATOM     29  C   UNL     1      -0.634  12.168  19.254  0.00  0.00    +0.000 A 
ATOM     30 CL   UNL     1      -1.594  13.532  19.654  0.00  0.00    +0.000 Cl
ATOM     31  C   UNL     1       0.682  12.062  19.690  0.00  0.00    +0.000 A 
ATOM     32  N   UNL     1       1.496  11.004  19.431  0.00  0.00    +0.000 NA
ENDBRANCH  23  26
ENDBRANCH   3  22
TORSDOF 4
ENDMDL
MODEL 8
REMARK VINA RESULT:      -8.3      1.008      1.232
REMARK  Name = 
REMARK  4 active torsions:
REMARK  status: ('A' for Active; 'I' for Inactive)
REMARK    1  A    between atoms: C_4  and  C_5
REMARK    2  A    between atoms: C_4  and  C_22
REMARK    3  A    between atoms: C_7  and  N_8
REMARK    4  A    between atoms: C_9  and  C_11
REMARK                            x       y       z     vdW  Elec       q    Type
REMARK                         _______ _______ _______ _____ _____    ______ ____
ROOT
ATOM      1  C   UNL     1       3.316   5.693  18.876  0.00  0.00    +0.000 A 
ATOM      2  C   UNL     1       2.952   7.052  18.759  0.00  0.00    +0.000 A 
ATOM      3  C   UNL     1       2.036   7.673  19.616  0.00  0.00    +0.000 A 
ATOM      4  C   UNL     1       1.489   6.927  20.661  0.00  0.00    +0.000 A 
ATOM      5  C   UNL     1       1.847   5.582  20.819  0.00  0.00    +0.000 A 
ATOM      6  C   UNL     1       2.746   4.983  19.935  0.00  0.00    +0.000 A 
ATOM      7  F   UNL     1       3.059   3.692  20.123  0.00  0.00    +0.000 F 
ENDROOT
BRANCH   1  11
ATOM      8  N   UNL     1       7.592   5.102  19.509  0.00  0.00    +0.000 N 
ATOM      9  C   UNL     1       6.528   5.401  18.735  0.00  0.00    +0.000 C 
ATOM     10  N   UNL     1       5.537   4.603  18.587  0.00  0.00    +0.000 NA
ATOM     11  C   UNL     1       4.301   5.039  17.871  0.00  0.00    +0.000 C 
ATOM     12  C   UNL     1       4.650   6.070  16.804  0.00  0.00    +0.000 C 
ATOM     13  C   UNL     1       5.853   5.933  15.893  0.00  0.00    +0.000 C 
ATOM     14  C   UNL     1       5.846   6.932  17.022  0.00  0.00    +0.000 C 
ATOM     15  O   UNL     1       6.673   6.607  18.143  0.00  0.00    +0.000 OA
ATOM     16  H   UNL     1       7.678   4.133  19.780  0.00  0.00    +0.000 HD
ATOM     17  H   UNL     1       8.443   5.614  19.333  0.00  0.00    +0.000 HD
BRANCH  11  18
ATOM     18  C   UNL     1       3.648   3.766  17.183  0.00  0.00    +0.000 C 
ATOM     19  F   UNL     1       4.038   3.625  15.887  0.00  0.00    +0.000 F 
ATOM     20  F   UNL     1       3.954   2.599  17.797  0.00  0.00    +0.000 F 
ATOM     21  F   UNL     1       2.290   3.844  17.156  0.00  0.00    +0.000 F 
ENDBRANCH  11  18
ENDBRANCH   1  11
BRANCH   3  22
ATOM     22  N   UNL     1       1.649   9.023  19.462  0.00  0.00    +0.000 N 
ATOM     23  C   UNL     1       0.550   9.629  20.053  0.00  0.00    +0.000 C 
ATOM     24  O   UNL     1      -0.233   9.122  20.849  0.00  0.00    +0.000 OA
ATOM     25  H   UNL     1       2.243   9.639  18.915  0.00  0.00    +0.000 HD
BRANCH  23  26
ATOM     26  C   UNL     1       0.341  11.066  19.690  0.00  0.00    +0.000 A 
ATOM     27  C   UNL     1       1.302  11.704  18.906  0.00  0.00    +0.000 A 
ATOM     28  C   UNL     1       1.099  13.033  18.546  0.00  0.00    +0.000 A 
ATOM     29  C   UNL     1      -0.050  13.677  18.987  0.00  0.00    +0.000 A 
ATOM     30 CL   UNL     1      -0.347  15.310  18.553  0.00  0.00    +0.000 Cl
ATOM     31  C   UNL     1      -0.950  12.969  19.777  0.00  0.00    +0.000 A 
ATOM     32  N   UNL     1      -0.792  11.669  20.143  0.00  0.00    +0.000 NA
ENDBRANCH  23  26
ENDBRANCH   3  22
TORSDOF 4
ENDMDL
MODEL 9
REMARK VINA RESULT:      -8.3      2.783      3.571
REMARK  Name = 
REMARK  4 active torsions:
REMARK  status: ('A' for Active; 'I' for Inactive)
REMARK    1  A    between atoms: C_4  and  C_5
REMARK    2  A    between atoms: C_4  and  C_22
REMARK    3  A    between atoms: C_7  and  N_8
REMARK    4  A    between atoms: C_9  and  C_11
REMARK                            x       y       z     vdW  Elec       q    Type
REMARK                         _______ _______ _______ _____ _____    ______ ____
ROOT
ATOM      1  C   UNL     1       4.811   4.971  18.821  0.00  0.00    +0.000 A 
ATOM      2  C   UNL     1       4.029   6.019  19.354  0.00  0.00    +0.000 A 
ATOM      3  C   UNL     1       2.890   5.798  20.138  0.00  0.00    +0.000 A 
ATOM      4  C   UNL     1       2.535   4.484  20.443  0.00  0.00    +0.000 A 
ATOM      5  C   UNL     1       3.303   3.422  19.949  0.00  0.00    +0.000 A 
ATOM      6  C   UNL     1       4.420   3.671  19.151  0.00  0.00    +0.000 A 
ATOM      7  F   UNL     1       5.126   2.624  18.699  0.00  0.00    +0.000 F 
ENDROOT
BRANCH   1  11
ATOM      8  N   UNL     1       4.786   7.404  15.199  0.00  0.00    +0.000 N 
ATOM      9  C   UNL     1       5.197   6.341  15.923  0.00  0.00    +0.000 C 
ATOM     10  N   UNL     1       5.760   6.463  17.067  0.00  0.00    +0.000 NA
ATOM     11  C   UNL     1       6.036   5.267  17.918  0.00  0.00    +0.000 C 
ATOM     12  C   UNL     1       6.289   4.048  17.040  0.00  0.00    +0.000 C 
ATOM     13  C   UNL     1       7.139   4.101  15.786  0.00  0.00    +0.000 C 
ATOM     14  C   UNL     1       5.638   3.996  15.701  0.00  0.00    +0.000 C 
ATOM     15  O   UNL     1       4.957   5.181  15.274  0.00  0.00    +0.000 OA
ATOM     16  H   UNL     1       5.149   8.300  15.491  0.00  0.00    +0.000 HD
ATOM     17  H   UNL     1       4.648   7.256  14.210  0.00  0.00    +0.000 HD
BRANCH  11  18
ATOM     18  C   UNL     1       7.327   5.565  18.792  0.00  0.00    +0.000 C 
ATOM     19  F   UNL     1       7.873   6.778  18.508  0.00  0.00    +0.000 F 
ATOM     20  F   UNL     1       7.093   5.561  20.127  0.00  0.00    +0.000 F 
ATOM     21  F   UNL     1       8.312   4.653  18.571  0.00  0.00    +0.000 F 
ENDBRANCH  11  18
ENDBRANCH   1  11
BRANCH   3  22
ATOM     22  N   UNL     1       2.093   6.857  20.630  0.00  0.00    +0.000 N 
ATOM     23  C   UNL     1       1.743   8.005  19.935  0.00  0.00    +0.000 C 
ATOM     24  O   UNL     1       2.010   8.272  18.769  0.00  0.00    +0.000 OA
ATOM     25  H   UNL     1       1.684   6.767  21.556  0.00  0.00    +0.000 HD
BRANCH  23  26
ATOM     26  C   UNL     1       0.923   8.992  20.705  0.00  0.00    +0.000 A 
ATOM     27  C   UNL     1       0.768   8.807  22.079  0.00  0.00    +0.000 A 
ATOM     28  C   UNL     1       0.025   9.735  22.801  0.00  0.00    +0.000 A 
ATOM     29  C   UNL     1      -0.540  10.810  22.127  0.00  0.00    +0.000 A 
ATOM     30 CL   UNL     1      -1.449  11.987  22.982  0.00  0.00    +0.000 Cl
ATOM     31  C   UNL     1      -0.346  10.911  20.753  0.00  0.00    +0.000 A 
ATOM     32  N   UNL     1       0.378  10.030  20.012  0.00  0.00    +0.000 NA
ENDBRANCH  23  26
ENDBRANCH   3  22
TORSDOF 4
ENDMDL
