MODEL 1
REMARK VINA RESULT:      -8.1      0.000      0.000
REMARK  Name = 
REMARK  12 active torsions:
REMARK  status: ('A' for Active; 'I' for Inactive)
REMARK    1  A    between atoms: C_1  and  O_2
REMARK    2  A    between atoms: O_2  and  C_3
REMARK    3  A    between atoms: C_7  and  C_8
REMARK    4  A    between atoms: C_8  and  C_10
REMARK    5  A    between atoms: C_12  and  O_13
REMARK    6  A    between atoms: O_13  and  C_14
REMARK    7  A    between atoms: C_15  and  O_16
REMARK    8  A    between atoms: O_16  and  C_17
REMARK    9  A    between atoms: C_18  and  O_19
REMARK   10  A    between atoms: O_19  and  C_20
REMARK   11  A    between atoms: C_27  and  O_28
REMARK   12  A    between atoms: O_28  and  C_29
REMARK                            x       y       z     vdW  Elec       q    Type
REMARK                         _______ _______ _______ _____ _____    ______ ____
ROOT
ATOM      1  C   UNL     1       1.560   8.989  19.214  0.00  0.00    +0.000 A 
ATOM      2  C   UNL     1       2.166   8.084  18.339  0.00  0.00    +0.000 A 
ATOM      3  C   UNL     1       2.440   6.784  18.741  0.00  0.00    +0.000 A 
ATOM      4  N   UNL     1       3.008   5.915  17.799  0.00  0.00    +0.000 NA
ATOM      5  C   UNL     1       3.263   4.712  18.182  0.00  0.00    +0.000 A 
ATOM      6  N   UNL     1       3.021   4.236  19.444  0.00  0.00    +0.000 N 
ATOM      7  C   UNL     1       2.452   5.008  20.429  0.00  0.00    +0.000 A 
ATOM      8  O   UNL     1       2.218   4.571  21.553  0.00  0.00    +0.000 OA
ATOM      9  C   UNL     1       2.131   6.392  20.044  0.00  0.00    +0.000 A 
ATOM     10  C   UNL     1       1.552   7.288  20.947  0.00  0.00    +0.000 A 
ATOM     11  C   UNL     1       1.267   8.598  20.539  0.00  0.00    +0.000 A 
ATOM     12  H   UNL     1       3.302   3.294  19.684  0.00  0.00    +0.000 HD
ENDROOT
BRANCH   1  14
ATOM     13  C   UNL     1      -0.067  10.456  18.328  0.00  0.00    +0.000 C 
ATOM     14  O   UNL     1       1.253  10.276  18.840  0.00  0.00    +0.000 OA
ENDBRANCH   1  14
BRANCH   5  15
ATOM     15  C   UNL     1       3.873   3.724  17.225  0.00  0.00    +0.000 C 
ATOM     16  O   UNL     1       3.429   2.582  17.222  0.00  0.00    +0.000 OA
BRANCH  15  17
ATOM     17  C   UNL     1       4.970   4.138  16.317  0.00  0.00    +0.000 A 
ATOM     18  C   UNL     1       5.828   5.142  16.756  0.00  0.00    +0.000 A 
ATOM     19  C   UNL     1       6.899   5.552  15.957  0.00  0.00    +0.000 A 
ATOM     20  C   UNL     1       7.101   4.965  14.685  0.00  0.00    +0.000 A 
ATOM     21  C   UNL     1       6.219   3.958  14.235  0.00  0.00    +0.000 A 
ATOM     22  C   UNL     1       5.170   3.543  15.069  0.00  0.00    +0.000 A 
BRANCH  19  23
ATOM     23  O   UNL     1       7.779   6.533  16.355  0.00  0.00    +0.000 OA
ATOM     24  C   UNL     1       7.475   7.170  17.594  0.00  0.00    +0.000 C 
ENDBRANCH  19  23
BRANCH  20  25
ATOM     25  O   UNL     1       8.135   5.503  13.951  0.00  0.00    +0.000 OA
ATOM     26  C   UNL     1       7.962   5.606  12.541  0.00  0.00    +0.000 C 
ENDBRANCH  20  25
BRANCH  21  27
ATOM     27  O   UNL     1       6.408   3.444  12.979  0.00  0.00    +0.000 OA
ATOM     28  C   UNL     1       5.271   3.243  12.147  0.00  0.00    +0.000 C 
ENDBRANCH  21  27
ENDBRANCH  15  17
ENDBRANCH   5  15
BRANCH  11  29
ATOM     29  O   UNL     1       0.700   9.550  21.346  0.00  0.00    +0.000 OA
ATOM     30  C   UNL     1      -0.264   9.112  22.298  0.00  0.00    +0.000 C 
ENDBRANCH  11  29
TORSDOF 7
ENDMDL
MODEL 2
REMARK VINA RESULT:      -7.7      3.687      9.770
REMARK  Name = 
REMARK  12 active torsions:
REMARK  status: ('A' for Active; 'I' for Inactive)
REMARK    1  A    between atoms: C_1  and  O_2
REMARK    2  A    between atoms: O_2  and  C_3
REMARK    3  A    between atoms: C_7  and  C_8
REMARK    4  A    between atoms: C_8  and  C_10
REMARK    5  A    between atoms: C_12  and  O_13
REMARK    6  A    between atoms: O_13  and  C_14
REMARK    7  A    between atoms: C_15  and  O_16
REMARK    8  A    between atoms: O_16  and  C_17
REMARK    9  A    between atoms: C_18  and  O_19
REMARK   10  A    between atoms: O_19  and  C_20
REMARK   11  A    between atoms: C_27  and  O_28
REMARK   12  A    between atoms: O_28  and  C_29
REMARK                            x       y       z     vdW  Elec       q    Type
REMARK                         _______ _______ _______ _____ _____    ______ ____
ROOT
ATOM      1  C   UNL     1       3.165   6.692  18.110  0.00  0.00    +0.000 A 
ATOM      2  C   UNL     1       2.496   7.859  17.731  0.00  0.00    +0.000 A 
ATOM      3  C   UNL     1       1.750   8.580  18.653  0.00  0.00    +0.000 A 
ATOM      4  N   UNL     1       1.142   9.764  18.217  0.00  0.00    +0.000 NA
ATOM      5  C   UNL     1       0.448  10.424  19.079  0.00  0.00    +0.000 A 
ATOM      6  N   UNL     1       0.266  10.040  20.381  0.00  0.00    +0.000 N 
ATOM      7  C   UNL     1       0.837   8.904  20.904  0.00  0.00    +0.000 A 
ATOM      8  O   UNL     1       0.689   8.574  22.078  0.00  0.00    +0.000 OA
ATOM      9  C   UNL     1       1.649   8.113  19.965  0.00  0.00    +0.000 A 
ATOM     10  C   UNL     1       2.286   6.933  20.360  0.00  0.00    +0.000 A 
ATOM     11  C   UNL     1       3.045   6.210  19.431  0.00  0.00    +0.000 A 
ATOM     12  H   UNL     1      -0.340  10.585  20.982  0.00  0.00    +0.000 HD
ENDROOT
BRANCH   1  14
ATOM     13  C   UNL     1       4.996   6.696  16.615  0.00  0.00    +0.000 C 
ATOM     14  O   UNL     1       3.932   5.968  17.227  0.00  0.00    +0.000 OA
ENDBRANCH   1  14
BRANCH   5  15
ATOM     15  C   UNL     1      -0.235  11.706  18.682  0.00  0.00    +0.000 C 
ATOM     16  O   UNL     1       0.466  12.693  18.498  0.00  0.00    +0.000 OA
BRANCH  15  17
ATOM     17  C   UNL     1      -1.708  11.751  18.518  0.00  0.00    +0.000 A 
ATOM     18  C   UNL     1      -2.238  11.322  17.305  0.00  0.00    +0.000 A 
ATOM     19  C   UNL     1      -3.621  11.312  17.105  0.00  0.00    +0.000 A 
ATOM     20  C   UNL     1      -4.490  11.764  18.127  0.00  0.00    +0.000 A 
ATOM     21  C   UNL     1      -3.949  12.215  19.351  0.00  0.00    +0.000 A 
ATOM     22  C   UNL     1      -2.558  12.186  19.538  0.00  0.00    +0.000 A 
BRANCH  19  23
ATOM     23  O   UNL     1      -4.189  10.885  15.926  0.00  0.00    +0.000 OA
ATOM     24  C   UNL     1      -3.277  10.425  14.931  0.00  0.00    +0.000 C 
ENDBRANCH  19  23
BRANCH  20  25
ATOM     25  O   UNL     1      -5.825  11.788  17.790  0.00  0.00    +0.000 OA
ATOM     26  C   UNL     1      -6.679  10.827  18.404  0.00  0.00    +0.000 C 
ENDBRANCH  20  25
BRANCH  21  27
ATOM     27  O   UNL     1      -4.810  12.695  20.303  0.00  0.00    +0.000 OA
ATOM     28  C   UNL     1      -4.332  12.857  21.633  0.00  0.00    +0.000 C 
ENDBRANCH  21  27
ENDBRANCH  15  17
ENDBRANCH   5  15
BRANCH  11  29
ATOM     29  O   UNL     1       3.708   5.044  19.719  0.00  0.00    +0.000 OA
ATOM     30  C   UNL     1       2.916   3.892  19.991  0.00  0.00    +0.000 C 
ENDBRANCH  11  29
TORSDOF 7
ENDMDL
MODEL 3
REMARK VINA RESULT:      -7.6      3.297      9.140
REMARK  Name = 
REMARK  12 active torsions:
REMARK  status: ('A' for Active; 'I' for Inactive)
REMARK    1  A    between atoms: C_1  and  O_2
REMARK    2  A    between atoms: O_2  and  C_3
REMARK    3  A    between atoms: C_7  and  C_8
REMARK    4  A    between atoms: C_8  and  C_10
REMARK    5  A    between atoms: C_12  and  O_13
REMARK    6  A    between atoms: O_13  and  C_14
REMARK    7  A    between atoms: C_15  and  O_16
REMARK    8  A    between atoms: O_16  and  C_17
REMARK    9  A    between atoms: C_18  and  O_19
REMARK   10  A    between atoms: O_19  and  C_20
REMARK   11  A    between atoms: C_27  and  O_28
REMARK   12  A    between atoms: O_28  and  C_29
REMARK                            x       y       z     vdW  Elec       q    Type
REMARK                         _______ _______ _______ _____ _____    ______ ____
ROOT
ATOM      1  C   UNL     1       2.579   4.677  20.381  0.00  0.00    +0.000 A 
ATOM      2  C   UNL     1       1.943   5.850  20.794  0.00  0.00    +0.000 A 
ATOM      3  C   UNL     1       1.928   6.973  19.977  0.00  0.00    +0.000 A 
ATOM      4  N   UNL     1       1.235   8.102  20.433  0.00  0.00    +0.000 NA
ATOM      5  C   UNL     1       1.230   9.141  19.671  0.00  0.00    +0.000 A 
ATOM      6  N   UNL     1       1.859   9.209  18.456  0.00  0.00    +0.000 N 
ATOM      7  C   UNL     1       2.549   8.148  17.918  0.00  0.00    +0.000 A 
ATOM      8  O   UNL     1       3.094   8.207  16.819  0.00  0.00    +0.000 OA
ATOM      9  C   UNL     1       2.581   6.930  18.744  0.00  0.00    +0.000 A 
ATOM     10  C   UNL     1       3.248   5.777  18.323  0.00  0.00    +0.000 A 
ATOM     11  C   UNL     1       3.256   4.641  19.143  0.00  0.00    +0.000 A 
ATOM     12  H   UNL     1       1.856  10.082  17.941  0.00  0.00    +0.000 HD
ENDROOT
BRANCH   1  14
ATOM     13  C   UNL     1       1.346   2.848  21.230  0.00  0.00    +0.000 C 
ATOM     14  O   UNL     1       2.592   3.540  21.155  0.00  0.00    +0.000 OA
ENDBRANCH   1  14
BRANCH   5  15
ATOM     15  C   UNL     1       0.506  10.390  20.095  0.00  0.00    +0.000 C 
ATOM     16  O   UNL     1       1.034  11.094  20.949  0.00  0.00    +0.000 OA
BRANCH  15  17
ATOM     17  C   UNL     1      -0.798  10.745  19.486  0.00  0.00    +0.000 A 
ATOM     18  C   UNL     1      -1.549  11.742  20.100  0.00  0.00    +0.000 A 
ATOM     19  C   UNL     1      -2.772  12.141  19.553  0.00  0.00    +0.000 A 
ATOM     20  C   UNL     1      -3.266  11.513  18.385  0.00  0.00    +0.000 A 
ATOM     21  C   UNL     1      -2.509  10.489  17.772  0.00  0.00    +0.000 A 
ATOM     22  C   UNL     1      -1.270  10.128  18.324  0.00  0.00    +0.000 A 
BRANCH  19  23
ATOM     23  O   UNL     1      -3.543  13.130  20.120  0.00  0.00    +0.000 OA
ATOM     24  C   UNL     1      -3.027  13.706  21.319  0.00  0.00    +0.000 C 
ENDBRANCH  19  23
BRANCH  20  25
ATOM     25  O   UNL     1      -4.517  11.926  17.982  0.00  0.00    +0.000 OA
ATOM     26  C   UNL     1      -5.627  11.104  18.325  0.00  0.00    +0.000 C 
ENDBRANCH  20  25
BRANCH  21  27
ATOM     27  O   UNL     1      -3.035   9.863  16.673  0.00  0.00    +0.000 OA
ATOM     28  C   UNL     1      -2.696  10.355  15.382  0.00  0.00    +0.000 C 
ENDBRANCH  21  27
ENDBRANCH  15  17
ENDBRANCH   5  15
BRANCH  11  29
ATOM     29  O   UNL     1       3.880   3.463  18.821  0.00  0.00    +0.000 OA
ATOM     30  C   UNL     1       4.530   3.391  17.556  0.00  0.00    +0.000 C 
ENDBRANCH  11  29
TORSDOF 7
ENDMDL
MODEL 4
REMARK VINA RESULT:      -7.6      3.108      8.906
REMARK  Name = 
REMARK  12 active torsions:
REMARK  status: ('A' for Active; 'I' for Inactive)
REMARK    1  A    between atoms: C_1  and  O_2
REMARK    2  A    between atoms: O_2  and  C_3
REMARK    3  A    between atoms: C_7  and  C_8
REMARK    4  A    between atoms: C_8  and  C_10
REMARK    5  A    between atoms: C_12  and  O_13
REMARK    6  A    between atoms: O_13  and  C_14
REMARK    7  A    between atoms: C_15  and  O_16
REMARK    8  A    between atoms: O_16  and  C_17
REMARK    9  A    between atoms: C_18  and  O_19
REMARK   10  A    between atoms: O_19  and  C_20
REMARK   11  A    between atoms: C_27  and  O_28
REMARK   12  A    between atoms: O_28  and  C_29
REMARK                            x       y       z     vdW  Elec       q    Type
REMARK                         _______ _______ _______ _____ _____    ______ ____
ROOT
ATOM      1  C   UNL     1       4.288   6.018  17.533  0.00  0.00    +0.000 A 
ATOM      2  C   UNL     1       3.659   7.250  17.337  0.00  0.00    +0.000 A 
ATOM      3  C   UNL     1       2.797   7.766  18.294  0.00  0.00    +0.000 A 
ATOM      4  N   UNL     1       2.234   9.026  18.055  0.00  0.00    +0.000 NA
ATOM      5  C   UNL     1       1.432   9.495  18.947  0.00  0.00    +0.000 A 
ATOM      6  N   UNL     1       1.095   8.841  20.102  0.00  0.00    +0.000 N 
ATOM      7  C   UNL     1       1.609   7.609  20.432  0.00  0.00    +0.000 A 
ATOM      8  O   UNL     1       1.320   7.035  21.478  0.00  0.00    +0.000 OA
ATOM      9  C   UNL     1       2.539   7.028  19.450  0.00  0.00    +0.000 A 
ATOM     10  C   UNL     1       3.134   5.780  19.655  0.00  0.00    +0.000 A 
ATOM     11  C   UNL     1       4.011   5.263  18.692  0.00  0.00    +0.000 A 
ATOM     12  H   UNL     1       0.412   9.252  20.727  0.00  0.00    +0.000 HD
ENDROOT
BRANCH   1  14
ATOM     13  C   UNL     1       6.465   6.080  16.615  0.00  0.00    +0.000 C 
ATOM     14  O   UNL     1       5.166   5.490  16.615  0.00  0.00    +0.000 OA
ENDBRANCH   1  14
BRANCH   5  15
ATOM     15  C   UNL     1       0.790  10.844  18.757  0.00  0.00    +0.000 C 
ATOM     16  O   UNL     1       1.515  11.831  18.788  0.00  0.00    +0.000 OA
BRANCH  15  17
ATOM     17  C   UNL     1      -0.672  10.953  18.535  0.00  0.00    +0.000 A 
ATOM     18  C   UNL     1      -1.391  11.804  19.367  0.00  0.00    +0.000 A 
ATOM     19  C   UNL     1      -2.767  11.972  19.185  0.00  0.00    +0.000 A 
ATOM     20  C   UNL     1      -3.441  11.255  18.168  0.00  0.00    +0.000 A 
ATOM     21  C   UNL     1      -2.711  10.378  17.334  0.00  0.00    +0.000 A 
ATOM     22  C   UNL     1      -1.326  10.251  17.518  0.00  0.00    +0.000 A 
BRANCH  19  23
ATOM     23  O   UNL     1      -3.516  12.812  19.978  0.00  0.00    +0.000 OA
ATOM     24  C   UNL     1      -3.365  12.631  21.385  0.00  0.00    +0.000 C 
ENDBRANCH  19  23
BRANCH  20  25
ATOM     25  O   UNL     1      -4.806  11.434  18.132  0.00  0.00    +0.000 OA
ATOM     26  C   UNL     1      -5.349  12.164  17.037  0.00  0.00    +0.000 C 
ENDBRANCH  20  25
BRANCH  21  27
ATOM     27  O   UNL     1      -3.397   9.659  16.391  0.00  0.00    +0.000 OA
ATOM     28  C   UNL     1      -3.157   9.935  15.016  0.00  0.00    +0.000 C 
ENDBRANCH  21  27
ENDBRANCH  15  17
ENDBRANCH   5  15
BRANCH  11  29
ATOM     29  O   UNL     1       4.645   4.051  18.799  0.00  0.00    +0.000 OA
ATOM     30  C   UNL     1       3.886   2.958  19.305  0.00  0.00    +0.000 C 
ENDBRANCH  11  29
TORSDOF 7
ENDMDL
MODEL 5
REMARK VINA RESULT:      -7.5      3.550      9.568
REMARK  Name = 
REMARK  12 active torsions:
REMARK  status: ('A' for Active; 'I' for Inactive)
REMARK    1  A    between atoms: C_1  and  O_2
REMARK    2  A    between atoms: O_2  and  C_3
REMARK    3  A    between atoms: C_7  and  C_8
REMARK    4  A    between atoms: C_8  and  C_10
REMARK    5  A    between atoms: C_12  and  O_13
REMARK    6  A    between atoms: O_13  and  C_14
REMARK    7  A    between atoms: C_15  and  O_16
REMARK    8  A    between atoms: O_16  and  C_17
REMARK    9  A    between atoms: C_18  and  O_19
REMARK   10  A    between atoms: O_19  and  C_20
REMARK   11  A    between atoms: C_27  and  O_28
REMARK   12  A    between atoms: O_28  and  C_29
REMARK                            x       y       z     vdW  Elec       q    Type
REMARK                         _______ _______ _______ _____ _____    ______ ____
ROOT
ATOM      1  C   UNL     1       2.511   4.923  20.347  0.00  0.00    +0.000 A 
ATOM      2  C   UNL     1       1.860   6.063  20.823  0.00  0.00    +0.000 A 
ATOM      3  C   UNL     1       1.815   7.224  20.062  0.00  0.00    +0.000 A 
ATOM      4  N   UNL     1       1.108   8.317  20.580  0.00  0.00    +0.000 NA
ATOM      5  C   UNL     1       1.075   9.390  19.869  0.00  0.00    +0.000 A 
ATOM      6  N   UNL     1       1.687   9.529  18.651  0.00  0.00    +0.000 N 
ATOM      7  C   UNL     1       2.388   8.508  18.055  0.00  0.00    +0.000 A 
ATOM      8  O   UNL     1       2.919   8.629  16.954  0.00  0.00    +0.000 OA
ATOM      9  C   UNL     1       2.452   7.252  18.821  0.00  0.00    +0.000 A 
ATOM     10  C   UNL     1       3.134   6.132  18.337  0.00  0.00    +0.000 A 
ATOM     11  C   UNL     1       3.173   4.959  19.101  0.00  0.00    +0.000 A 
ATOM     12  H   UNL     1       1.662  10.425  18.179  0.00  0.00    +0.000 HD
ENDROOT
BRANCH   1  14
ATOM     13  C   UNL     1       1.310   3.057  21.162  0.00  0.00    +0.000 C 
ATOM     14  O   UNL     1       2.554   3.750  21.065  0.00  0.00    +0.000 OA
ENDBRANCH   1  14
BRANCH   5  15
ATOM     15  C   UNL     1       0.334  10.605  20.362  0.00  0.00    +0.000 C 
ATOM     16  O   UNL     1       0.849  11.262  21.259  0.00  0.00    +0.000 OA
BRANCH  15  17
ATOM     17  C   UNL     1      -0.971  10.981  19.766  0.00  0.00    +0.000 A 
ATOM     18  C   UNL     1      -1.382  10.298  18.626  0.00  0.00    +0.000 A 
ATOM     19  C   UNL     1      -2.617  10.588  18.039  0.00  0.00    +0.000 A 
ATOM     20  C   UNL     1      -3.445  11.596  18.586  0.00  0.00    +0.000 A 
ATOM     21  C   UNL     1      -3.017  12.300  19.735  0.00  0.00    +0.000 A 
ATOM     22  C   UNL     1      -1.787  11.969  20.323  0.00  0.00    +0.000 A 
BRANCH  19  23
ATOM     23  O   UNL     1      -3.069   9.930  16.916  0.00  0.00    +0.000 OA
ATOM     24  C   UNL     1      -2.831  10.592  15.675  0.00  0.00    +0.000 C 
ENDBRANCH  19  23
BRANCH  20  25
ATOM     25  O   UNL     1      -4.598  11.854  17.880  0.00  0.00    +0.000 OA
ATOM     26  C   UNL     1      -5.801  11.242  18.333  0.00  0.00    +0.000 C 
ENDBRANCH  20  25
BRANCH  21  27
ATOM     27  O   UNL     1      -3.815  13.306  20.213  0.00  0.00    +0.000 OA
ATOM     28  C   UNL     1      -4.572  13.071  21.395  0.00  0.00    +0.000 C 
ENDBRANCH  21  27
ENDBRANCH  15  17
ENDBRANCH   5  15
BRANCH  11  29
ATOM     29  O   UNL     1       3.814   3.809  18.715  0.00  0.00    +0.000 OA
ATOM     30  C   UNL     1       5.234   3.850  18.626  0.00  0.00    +0.000 C 
ENDBRANCH  11  29
TORSDOF 7
ENDMDL
MODEL 6
REMARK VINA RESULT:      -7.5      3.116      5.097
REMARK  Name = 
REMARK  12 active torsions:
REMARK  status: ('A' for Active; 'I' for Inactive)
REMARK    1  A    between atoms: C_1  and  O_2
REMARK    2  A    between atoms: O_2  and  C_3
REMARK    3  A    between atoms: C_7  and  C_8
REMARK    4  A    between atoms: C_8  and  C_10
REMARK    5  A    between atoms: C_12  and  O_13
REMARK    6  A    between atoms: O_13  and  C_14
REMARK    7  A    between atoms: C_15  and  O_16
REMARK    8  A    between atoms: O_16  and  C_17
REMARK    9  A    between atoms: C_18  and  O_19
REMARK   10  A    between atoms: O_19  and  C_20
REMARK   11  A    between atoms: C_27  and  O_28
REMARK   12  A    between atoms: O_28  and  C_29
REMARK                            x       y       z     vdW  Elec       q    Type
REMARK                         _______ _______ _______ _____ _____    ______ ____
ROOT
ATOM      1  C   UNL     1      -1.626  11.569  19.563  0.00  0.00    +0.000 A 
ATOM      2  C   UNL     1      -0.765  10.854  18.727  0.00  0.00    +0.000 A 
ATOM      3  C   UNL     1       0.189   9.996  19.258  0.00  0.00    +0.000 A 
ATOM      4  N   UNL     1       0.990   9.276  18.362  0.00  0.00    +0.000 NA
ATOM      5  C   UNL     1       1.875   8.485  18.863  0.00  0.00    +0.000 A 
ATOM      6  N   UNL     1       2.082   8.312  20.206  0.00  0.00    +0.000 N 
ATOM      7  C   UNL     1       1.336   8.961  21.161  0.00  0.00    +0.000 A 
ATOM      8  O   UNL     1       1.511   8.787  22.364  0.00  0.00    +0.000 OA
ATOM      9  C   UNL     1       0.302   9.873  20.643  0.00  0.00    +0.000 A 
ATOM     10  C   UNL     1      -0.529  10.600  21.501  0.00  0.00    +0.000 A 
ATOM     11  C   UNL     1      -1.497  11.460  20.965  0.00  0.00    +0.000 A 
ATOM     12  H   UNL     1       2.837   7.714  20.521  0.00  0.00    +0.000 HD
ENDROOT
BRANCH   1  14
ATOM     13  C   UNL     1      -3.612  11.767  18.299  0.00  0.00    +0.000 C 
ATOM     14  O   UNL     1      -2.597  12.409  19.069  0.00  0.00    +0.000 OA
ENDBRANCH   1  14
BRANCH   5  15
ATOM     15  C   UNL     1       2.771   7.680  17.961  0.00  0.00    +0.000 C 
ATOM     16  O   UNL     1       3.151   8.202  16.919  0.00  0.00    +0.000 OA
BRANCH  15  17
ATOM     17  C   UNL     1       3.176   6.305  18.340  0.00  0.00    +0.000 A 
ATOM     18  C   UNL     1       2.169   5.394  18.644  0.00  0.00    +0.000 A 
ATOM     19  C   UNL     1       2.488   4.075  18.977  0.00  0.00    +0.000 A 
ATOM     20  C   UNL     1       3.842   3.665  19.033  0.00  0.00    +0.000 A 
ATOM     21  C   UNL     1       4.864   4.595  18.740  0.00  0.00    +0.000 A 
ATOM     22  C   UNL     1       4.515   5.906  18.378  0.00  0.00    +0.000 A 
BRANCH  19  23
ATOM     23  O   UNL     1       1.525   3.138  19.274  0.00  0.00    +0.000 OA
ATOM     24  C   UNL     1       0.948   3.236  20.575  0.00  0.00    +0.000 C 
ENDBRANCH  19  23
BRANCH  20  25
ATOM     25  O   UNL     1       4.043   2.368  19.451  0.00  0.00    +0.000 OA
ATOM     26  C   UNL     1       3.860   1.329  18.496  0.00  0.00    +0.000 C 
ENDBRANCH  20  25
BRANCH  21  27
ATOM     27  O   UNL     1       6.166   4.185  18.852  0.00  0.00    +0.000 OA
ATOM     28  C   UNL     1       7.093   4.579  17.847  0.00  0.00    +0.000 C 
ENDBRANCH  21  27
ENDBRANCH  15  17
ENDBRANCH   5  15
BRANCH  11  29
ATOM     29  O   UNL     1      -2.359  12.215  21.719  0.00  0.00    +0.000 OA
ATOM     30  C   UNL     1      -2.107  12.293  23.118  0.00  0.00    +0.000 C 
ENDBRANCH  11  29
TORSDOF 7
ENDMDL
MODEL 7
REMARK VINA RESULT:      -7.4      2.796      8.879
REMARK  Name = 
REMARK  12 active torsions:
REMARK  status: ('A' for Active; 'I' for Inactive)
REMARK    1  A    between atoms: C_1  and  O_2
REMARK    2  A    between atoms: O_2  and  C_3
REMARK    3  A    between atoms: C_7  and  C_8
REMARK    4  A    between atoms: C_8  and  C_10
REMARK    5  A    between atoms: C_12  and  O_13
REMARK    6  A    between atoms: O_13  and  C_14
REMARK    7  A    between atoms: C_15  and  O_16
REMARK    8  A    between atoms: O_16  and  C_17
REMARK    9  A    between atoms: C_18  and  O_19
REMARK   10  A    between atoms: O_19  and  C_20
REMARK   11  A    between atoms: C_27  and  O_28
REMARK   12  A    between atoms: O_28  and  C_29
REMARK                            x       y       z     vdW  Elec       q    Type
REMARK                         _______ _______ _______ _____ _____    ______ ____
ROOT
ATOM      1  C   UNL     1       4.885   5.312  17.719  0.00  0.00    +0.000 A 
ATOM      2  C   UNL     1       4.314   6.544  17.392  0.00  0.00    +0.000 A 
ATOM      3  C   UNL     1       3.352   7.120  18.211  0.00  0.00    +0.000 A 
ATOM      4  N   UNL     1       2.854   8.378  17.847  0.00  0.00    +0.000 NA
ATOM      5  C   UNL     1       1.959   8.903  18.611  0.00  0.00    +0.000 A 
ATOM      6  N   UNL     1       1.466   8.309  19.743  0.00  0.00    +0.000 N 
ATOM      7  C   UNL     1       1.906   7.085  20.189  0.00  0.00    +0.000 A 
ATOM      8  O   UNL     1       1.476   6.566  21.216  0.00  0.00    +0.000 OA
ATOM      9  C   UNL     1       2.936   6.442  19.357  0.00  0.00    +0.000 A 
ATOM     10  C   UNL     1       3.472   5.195  19.690  0.00  0.00    +0.000 A 
ATOM     11  C   UNL     1       4.448   4.617  18.868  0.00  0.00    +0.000 A 
ATOM     12  H   UNL     1       0.722   8.762  20.260  0.00  0.00    +0.000 HD
ENDROOT
BRANCH   1  14
ATOM     13  C   UNL     1       7.193   4.915  17.404  0.00  0.00    +0.000 C 
ATOM     14  O   UNL     1       5.856   4.725  16.942  0.00  0.00    +0.000 OA
ENDBRANCH   1  14
BRANCH   5  15
ATOM     15  C   UNL     1       1.377  10.252  18.283  0.00  0.00    +0.000 C 
ATOM     16  O   UNL     1       2.155  11.157  18.004  0.00  0.00    +0.000 OA
BRANCH  15  17
ATOM     17  C   UNL     1      -0.091  10.459  18.295  0.00  0.00    +0.000 A 
ATOM     18  C   UNL     1      -0.841   9.835  17.302  0.00  0.00    +0.000 A 
ATOM     19  C   UNL     1      -2.232   9.968  17.282  0.00  0.00    +0.000 A 
ATOM     20  C   UNL     1      -2.884  10.761  18.256  0.00  0.00    +0.000 A 
ATOM     21  C   UNL     1      -2.119  11.407  19.253  0.00  0.00    +0.000 A 
ATOM     22  C   UNL     1      -0.727  11.232  19.270  0.00  0.00    +0.000 A 
BRANCH  19  23
ATOM     23  O   UNL     1      -3.014   9.360  16.326  0.00  0.00    +0.000 OA
ATOM     24  C   UNL     1      -2.918   9.904  15.011  0.00  0.00    +0.000 C 
ENDBRANCH  19  23
BRANCH  20  25
ATOM     25  O   UNL     1      -4.245  10.888  18.091  0.00  0.00    +0.000 OA
ATOM     26  C   UNL     1      -4.720  12.015  17.361  0.00  0.00    +0.000 C 
ENDBRANCH  20  25
BRANCH  21  27
ATOM     27  O   UNL     1      -2.771  12.209  20.152  0.00  0.00    +0.000 OA
ATOM     28  C   UNL     1      -2.106  12.557  21.361  0.00  0.00    +0.000 C 
ENDBRANCH  21  27
ENDBRANCH  15  17
ENDBRANCH   5  15
BRANCH  11  29
ATOM     29  O   UNL     1       5.035   3.401  19.106  0.00  0.00    +0.000 OA
ATOM     30  C   UNL     1       4.261   2.424  19.796  0.00  0.00    +0.000 C 
ENDBRANCH  11  29
TORSDOF 7
ENDMDL
MODEL 8
REMARK VINA RESULT:      -7.4      3.250      4.814
REMARK  Name = 
REMARK  12 active torsions:
REMARK  status: ('A' for Active; 'I' for Inactive)
REMARK    1  A    between atoms: C_1  and  O_2
REMARK    2  A    between atoms: O_2  and  C_3
REMARK    3  A    between atoms: C_7  and  C_8
REMARK    4  A    between atoms: C_8  and  C_10
REMARK    5  A    between atoms: C_12  and  O_13
REMARK    6  A    between atoms: O_13  and  C_14
REMARK    7  A    between atoms: C_15  and  O_16
REMARK    8  A    between atoms: O_16  and  C_17
REMARK    9  A    between atoms: C_18  and  O_19
REMARK   10  A    between atoms: O_19  and  C_20
REMARK   11  A    between atoms: C_27  and  O_28
REMARK   12  A    between atoms: O_28  and  C_29
REMARK                            x       y       z     vdW  Elec       q    Type
REMARK                         _______ _______ _______ _____ _____    ______ ____
ROOT
ATOM      1  C   UNL     1      -0.627  12.281  19.820  0.00  0.00    +0.000 A 
ATOM      2  C   UNL     1       0.180  11.556  18.939  0.00  0.00    +0.000 A 
ATOM      3  C   UNL     1       0.729  10.339  19.319  0.00  0.00    +0.000 A 
ATOM      4  N   UNL     1       1.492   9.643  18.373  0.00  0.00    +0.000 NA
ATOM      5  C   UNL     1       2.001   8.516  18.736  0.00  0.00    +0.000 A 
ATOM      6  N   UNL     1       1.848   7.966  19.980  0.00  0.00    +0.000 N 
ATOM      7  C   UNL     1       1.104   8.565  20.969  0.00  0.00    +0.000 A 
ATOM      8  O   UNL     1       0.952   8.058  22.077  0.00  0.00    +0.000 OA
ATOM      9  C   UNL     1       0.491   9.854  20.606  0.00  0.00    +0.000 A 
ATOM     10  C   UNL     1      -0.289  10.575  21.514  0.00  0.00    +0.000 A 
ATOM     11  C   UNL     1      -0.850  11.800  21.128  0.00  0.00    +0.000 A 
ATOM     12  H   UNL     1       2.327   7.102  20.206  0.00  0.00    +0.000 HD
ENDROOT
BRANCH   1  14
ATOM     13  C   UNL     1      -0.393  14.322  18.652  0.00  0.00    +0.000 C 
ATOM     14  O   UNL     1      -1.205  13.478  19.466  0.00  0.00    +0.000 OA
ENDBRANCH   1  14
BRANCH   5  15
ATOM     15  C   UNL     1       2.833   7.714  17.771  0.00  0.00    +0.000 C 
ATOM     16  O   UNL     1       3.204   8.264  16.741  0.00  0.00    +0.000 OA
BRANCH  15  17
ATOM     17  C   UNL     1       3.186   6.306  18.077  0.00  0.00    +0.000 A 
ATOM     18  C   UNL     1       4.518   6.019  18.354  0.00  0.00    +0.000 A 
ATOM     19  C   UNL     1       4.905   4.717  18.681  0.00  0.00    +0.000 A 
ATOM     20  C   UNL     1       3.947   3.676  18.704  0.00  0.00    +0.000 A 
ATOM     21  C   UNL     1       2.596   3.966  18.405  0.00  0.00    +0.000 A 
ATOM     22  C   UNL     1       2.229   5.289  18.111  0.00  0.00    +0.000 A 
BRANCH  19  23
ATOM     23  O   UNL     1       6.210   4.389  18.973  0.00  0.00    +0.000 OA
ATOM     24  C   UNL     1       7.206   5.137  18.277  0.00  0.00    +0.000 C 
ENDBRANCH  19  23
BRANCH  20  25
ATOM     25  O   UNL     1       4.453   2.420  18.956  0.00  0.00    +0.000 OA
ATOM     26  C   UNL     1       4.427   1.955  20.301  0.00  0.00    +0.000 C 
ENDBRANCH  20  25
BRANCH  21  27
ATOM     27  O   UNL     1       1.700   2.931  18.384  0.00  0.00    +0.000 OA
ATOM     28  C   UNL     1       0.723   2.855  19.417  0.00  0.00    +0.000 C 
ENDBRANCH  21  27
ENDBRANCH  15  17
ENDBRANCH   5  15
BRANCH  11  29
ATOM     29  O   UNL     1      -1.629  12.581  21.943  0.00  0.00    +0.000 OA
ATOM     30  C   UNL     1      -0.960  13.464  22.837  0.00  0.00    +0.000 C 
ENDBRANCH  11  29
TORSDOF 7
ENDMDL
MODEL 9
REMARK VINA RESULT:      -7.4      3.342      9.450
REMARK  Name = 
REMARK  12 active torsions:
REMARK  status: ('A' for Active; 'I' for Inactive)
REMARK    1  A    between atoms: C_1  and  O_2
REMARK    2  A    between atoms: O_2  and  C_3
REMARK    3  A    between atoms: C_7  and  C_8
REMARK    4  A    between atoms: C_8  and  C_10
REMARK    5  A    between atoms: C_12  and  O_13
REMARK    6  A    between atoms: O_13  and  C_14
REMARK    7  A    between atoms: C_15  and  O_16
REMARK    8  A    between atoms: O_16  and  C_17
REMARK    9  A    between atoms: C_18  and  O_19
REMARK   10  A    between atoms: O_19  and  C_20
REMARK   11  A    between atoms: C_27  and  O_28
REMARK   12  A    between atoms: O_28  and  C_29
REMARK                            x       y       z     vdW  Elec       q    Type
REMARK                         _______ _______ _______ _____ _____    ______ ____
ROOT
ATOM      1  C   UNL     1       3.853   6.442  17.463  0.00  0.00    +0.000 A 
ATOM      2  C   UNL     1       3.222   7.681  17.322  0.00  0.00    +0.000 A 
ATOM      3  C   UNL     1       2.412   8.182  18.331  0.00  0.00    +0.000 A 
ATOM      4  N   UNL     1       1.845   9.450  18.144  0.00  0.00    +0.000 NA
ATOM      5  C   UNL     1       1.091   9.905  19.084  0.00  0.00    +0.000 A 
ATOM      6  N   UNL     1       0.808   9.230  20.242  0.00  0.00    +0.000 N 
ATOM      7  C   UNL     1       1.330   7.989  20.522  0.00  0.00    +0.000 A 
ATOM      8  O   UNL     1       1.090   7.396  21.570  0.00  0.00    +0.000 OA
ATOM      9  C   UNL     1       2.207   7.422  19.484  0.00  0.00    +0.000 A 
ATOM     10  C   UNL     1       2.805   6.168  19.635  0.00  0.00    +0.000 A 
ATOM     11  C   UNL     1       3.629   5.665  18.620  0.00  0.00    +0.000 A 
ATOM     12  H   UNL     1       0.160   9.632  20.908  0.00  0.00    +0.000 HD
ENDROOT
BRANCH   1  14
ATOM     13  C   UNL     1       5.984   6.508  16.443  0.00  0.00    +0.000 C 
ATOM     14  O   UNL     1       4.681   5.928  16.492  0.00  0.00    +0.000 OA
ENDBRANCH   1  14
BRANCH   5  15
ATOM     15  C   UNL     1       0.448  11.260  18.952  0.00  0.00    +0.000 C 
ATOM     16  O   UNL     1       1.172  12.246  19.033  0.00  0.00    +0.000 OA
BRANCH  15  17
ATOM     17  C   UNL     1      -1.012  11.378  18.727  0.00  0.00    +0.000 A 
ATOM     18  C   UNL     1      -1.560  10.681  17.654  0.00  0.00    +0.000 A 
ATOM     19  C   UNL     1      -2.935  10.729  17.411  0.00  0.00    +0.000 A 
ATOM     20  C   UNL     1      -3.776  11.510  18.241  0.00  0.00    +0.000 A 
ATOM     21  C   UNL     1      -3.215  12.230  19.320  0.00  0.00    +0.000 A 
ATOM     22  C   UNL     1      -1.836  12.140  19.560  0.00  0.00    +0.000 A 
BRANCH  19  23
ATOM     23  O   UNL     1      -3.522  10.048  16.369  0.00  0.00    +0.000 OA
ATOM     24  C   UNL     1      -3.043  10.379  15.067  0.00  0.00    +0.000 C 
ENDBRANCH  19  23
BRANCH  20  25
ATOM     25  O   UNL     1      -5.099  11.550  17.860  0.00  0.00    +0.000 OA
ATOM     26  C   UNL     1      -6.017  10.727  18.572  0.00  0.00    +0.000 C 
ENDBRANCH  20  25
BRANCH  21  27
ATOM     27  O   UNL     1      -4.045  13.017  20.074  0.00  0.00    +0.000 OA
ATOM     28  C   UNL     1      -4.314  12.631  21.417  0.00  0.00    +0.000 C 
ENDBRANCH  21  27
ENDBRANCH  15  17
ENDBRANCH   5  15
BRANCH  11  29
ATOM     29  O   UNL     1       4.261   4.449  18.672  0.00  0.00    +0.000 OA
ATOM     30  C   UNL     1       5.486   4.378  19.393  0.00  0.00    +0.000 C 
ENDBRANCH  11  29
TORSDOF 7
ENDMDL
