MODEL 1
REMARK VINA RESULT:      -5.1      0.000      0.000
REMARK  Name = 
REMARK  11 active torsions:
REMARK  status: ('A' for Active; 'I' for Inactive)
REMARK    1  A    between atoms: C_1  and  C_2
REMARK    2  A    between atoms: C_2  and  O_3
REMARK    3  A    between atoms: O_3  and  C_4
REMARK    4  A    between atoms: C_4  and  C_6
REMARK    5  A    between atoms: C_6  and  C_7
REMARK    6  A    between atoms: C_9  and  C_10
REMARK    7  A    between atoms: C_13  and  O_14
REMARK    8  A    between atoms: O_14  and  C_15
REMARK    9  A    between atoms: N_19  and  C_20
REMARK   10  A    between atoms: C_26  and  C_27
REMARK   11  A    between atoms: C_29  and  C_30
REMARK                            x       y       z     vdW  Elec       q    Type
REMARK                         _______ _______ _______ _____ _____    ______ ____
ROOT
ATOM      1  C   UNL     1      -0.763  14.876  20.592  0.00  0.00    +0.000 C 
ATOM      2  C   UNL     1      -0.125  14.823  19.142  0.00  0.00    +0.000 C 
ATOM      3  C   UNL     1      -0.815  13.644  18.451  0.00  0.00    +0.000 C 
ATOM      4  N   UNL     1      -1.433  12.789  19.463  0.00  0.00    +0.000 NA
ATOM      5  C   UNL     1      -0.978  11.402  19.411  0.00  0.00    +0.000 C 
ATOM      6  C   UNL     1      -1.433  13.486  20.782  0.00  0.00    +0.000 C 
ATOM      7  C   UNL     1      -0.748  12.632  21.922  0.00  0.00    +0.000 C 
ATOM      8  O   UNL     1       0.379  12.158  21.943  0.00  0.00    +0.000 OA
ATOM      9  N   UNL     1      -1.672  12.448  22.937  0.00  0.00    +0.000 N 
ATOM     10  C   UNL     1      -2.914  12.951  22.596  0.00  0.00    +0.000 A 
ATOM     11  C   UNL     1      -4.081  12.876  23.335  0.00  0.00    +0.000 A 
ATOM     12  C   UNL     1      -4.174  12.247  24.690  0.00  0.00    +0.000 C 
ATOM     13  C   UNL     1      -5.228  13.434  22.749  0.00  0.00    +0.000 A 
ATOM     14  C   UNL     1      -5.198  14.009  21.462  0.00  0.00    +0.000 A 
ATOM     15  C   UNL     1      -6.430  14.625  20.867  0.00  0.00    +0.000 C 
ATOM     16  C   UNL     1      -4.001  14.036  20.737  0.00  0.00    +0.000 A 
ATOM     17  C   UNL     1      -2.854  13.534  21.329  0.00  0.00    +0.000 A 
ATOM     18  H   UNL     1      -1.448  11.925  23.771  0.00  0.00    +0.000 HD
ENDROOT
BRANCH   2  19
ATOM     19  C   UNL     1       1.414  14.720  19.109  0.00  0.00    +0.000 A 
ATOM     20  C   UNL     1       2.203  15.868  18.953  0.00  0.00    +0.000 A 
ATOM     21  C   UNL     1       3.512  15.788  18.486  0.00  0.00    +0.000 A 
ATOM     22  C   UNL     1       4.105  14.554  18.258  0.00  0.00    +0.000 A 
ATOM     23  C   UNL     1       3.387  13.392  18.537  0.00  0.00    +0.000 A 
ATOM     24  C   UNL     1       2.043  13.471  18.954  0.00  0.00    +0.000 A 
BRANCH  22  25
ATOM     25  O   UNL     1       5.333  14.624  17.667  0.00  0.00    +0.000 OA
ATOM     26  C   UNL     1       6.424  14.901  18.527  0.00  0.00    +0.000 C 
ENDBRANCH  22  25
ENDBRANCH   2  19
BRANCH   1  27
ATOM     27  C   UNL     1      -1.670  16.078  20.737  0.00  0.00    +0.000 C 
ATOM     28  O   UNL     1      -2.187  16.677  19.802  0.00  0.00    +0.000 OA
BRANCH  27  29
ATOM     29  O   UNL     1      -1.770  16.461  22.043  0.00  0.00    +0.000 OA
BRANCH  29  31
ATOM     30  C   UNL     1      -3.502  16.589  23.703  0.00  0.00    +0.000 C 
ATOM     31  C   UNL     1      -2.967  17.165  22.401  0.00  0.00    +0.000 C 
ENDBRANCH  29  31
ENDBRANCH  27  29
ENDBRANCH   1  27
BRANCH   1  32
ATOM     32  C   UNL     1       0.399  15.084  21.550  0.00  0.00    +0.000 C 
ATOM     33  N   UNL     1       1.363  15.256  22.345  0.00  0.00    +0.000 NA
ENDBRANCH   1  32
TORSDOF 6
ENDMDL
MODEL 2
REMARK VINA RESULT:      -5.1      2.647      4.839
REMARK  Name = 
REMARK  11 active torsions:
REMARK  status: ('A' for Active; 'I' for Inactive)
REMARK    1  A    between atoms: C_1  and  C_2
REMARK    2  A    between atoms: C_2  and  O_3
REMARK    3  A    between atoms: O_3  and  C_4
REMARK    4  A    between atoms: C_4  and  C_6
REMARK    5  A    between atoms: C_6  and  C_7
REMARK    6  A    between atoms: C_9  and  C_10
REMARK    7  A    between atoms: C_13  and  O_14
REMARK    8  A    between atoms: O_14  and  C_15
REMARK    9  A    between atoms: N_19  and  C_20
REMARK   10  A    between atoms: C_26  and  C_27
REMARK   11  A    between atoms: C_29  and  C_30
REMARK                            x       y       z     vdW  Elec       q    Type
REMARK                         _______ _______ _______ _____ _____    ______ ____
ROOT
ATOM      1  C   UNL     1      -0.697  12.332  21.131  0.00  0.00    +0.000 C 
ATOM      2  C   UNL     1       0.685  11.555  21.124  0.00  0.00    +0.000 C 
ATOM      3  C   UNL     1       1.746  12.636  21.344  0.00  0.00    +0.000 C 
ATOM      4  N   UNL     1       1.167  13.945  21.049  0.00  0.00    +0.000 NA
ATOM      5  C   UNL     1       1.899  14.689  20.029  0.00  0.00    +0.000 C 
ATOM      6  C   UNL     1      -0.314  13.823  20.913  0.00  0.00    +0.000 C 
ATOM      7  C   UNL     1      -0.848  14.393  19.538  0.00  0.00    +0.000 C 
ATOM      8  O   UNL     1      -0.513  14.080  18.405  0.00  0.00    +0.000 OA
ATOM      9  N   UNL     1      -1.772  15.387  19.814  0.00  0.00    +0.000 N 
ATOM     10  C   UNL     1      -1.852  15.651  21.169  0.00  0.00    +0.000 A 
ATOM     11  C   UNL     1      -2.612  16.625  21.791  0.00  0.00    +0.000 A 
ATOM     12  C   UNL     1      -3.533  17.556  21.066  0.00  0.00    +0.000 C 
ATOM     13  C   UNL     1      -2.489  16.717  23.186  0.00  0.00    +0.000 A 
ATOM     14  C   UNL     1      -1.611  15.885  23.910  0.00  0.00    +0.000 A 
ATOM     15  C   UNL     1      -1.517  15.982  25.403  0.00  0.00    +0.000 C 
ATOM     16  C   UNL     1      -0.838  14.932  23.236  0.00  0.00    +0.000 A 
ATOM     17  C   UNL     1      -0.992  14.799  21.866  0.00  0.00    +0.000 A 
ATOM     18  H   UNL     1      -2.243  15.893  19.078  0.00  0.00    +0.000 HD
ENDROOT
BRANCH   2  19
ATOM     19  C   UNL     1       0.949  10.703  19.864  0.00  0.00    +0.000 A 
ATOM     20  C   UNL     1       0.891   9.304  19.924  0.00  0.00    +0.000 A 
ATOM     21  C   UNL     1       1.532   8.513  18.974  0.00  0.00    +0.000 A 
ATOM     22  C   UNL     1       2.163   9.093  17.883  0.00  0.00    +0.000 A 
ATOM     23  C   UNL     1       2.116  10.478  17.726  0.00  0.00    +0.000 A 
ATOM     24  C   UNL     1       1.519  11.284  18.717  0.00  0.00    +0.000 A 
BRANCH  22  25
ATOM     25  O   UNL     1       2.870   8.215  17.113  0.00  0.00    +0.000 OA
ATOM     26  C   UNL     1       3.456   7.121  17.795  0.00  0.00    +0.000 C 
ENDBRANCH  22  25
ENDBRANCH   2  19
BRANCH   1  27
ATOM     27  C   UNL     1      -1.481  12.022  22.386  0.00  0.00    +0.000 C 
ATOM     28  O   UNL     1      -1.001  11.553  23.410  0.00  0.00    +0.000 OA
BRANCH  27  29
ATOM     29  O   UNL     1      -2.813  12.256  22.201  0.00  0.00    +0.000 OA
BRANCH  29  31
ATOM     30  C   UNL     1      -4.552  13.634  23.121  0.00  0.00    +0.000 C 
ATOM     31  C   UNL     1      -3.580  12.495  23.389  0.00  0.00    +0.000 C 
ENDBRANCH  29  31
ENDBRANCH  27  29
ENDBRANCH   1  27
BRANCH   1  32
ATOM     32  C   UNL     1      -1.495  11.772  19.964  0.00  0.00    +0.000 C 
ATOM     33  N   UNL     1      -2.156  11.307  18.996  0.00  0.00    +0.000 NA
ENDBRANCH   1  32
TORSDOF 6
ENDMDL
MODEL 3
REMARK VINA RESULT:      -5.0      2.471      6.012
REMARK  Name = 
REMARK  11 active torsions:
REMARK  status: ('A' for Active; 'I' for Inactive)
REMARK    1  A    between atoms: C_1  and  C_2
REMARK    2  A    between atoms: C_2  and  O_3
REMARK    3  A    between atoms: O_3  and  C_4
REMARK    4  A    between atoms: C_4  and  C_6
REMARK    5  A    between atoms: C_6  and  C_7
REMARK    6  A    between atoms: C_9  and  C_10
REMARK    7  A    between atoms: C_13  and  O_14
REMARK    8  A    between atoms: O_14  and  C_15
REMARK    9  A    between atoms: N_19  and  C_20
REMARK   10  A    between atoms: C_26  and  C_27
REMARK   11  A    between atoms: C_29  and  C_30
REMARK                            x       y       z     vdW  Elec       q    Type
REMARK                         _______ _______ _______ _____ _____    ______ ____
ROOT
ATOM      1  C   UNL     1      -1.263  14.436  20.866  0.00  0.00    +0.000 C 
ATOM      2  C   UNL     1      -0.562  14.572  22.281  0.00  0.00    +0.000 C 
ATOM      3  C   UNL     1      -0.812  13.230  22.975  0.00  0.00    +0.000 C 
ATOM      4  N   UNL     1      -1.910  12.539  22.303  0.00  0.00    +0.000 NA
ATOM      5  C   UNL     1      -3.014  12.194  23.194  0.00  0.00    +0.000 C 
ATOM      6  C   UNL     1      -2.225  13.224  21.016  0.00  0.00    +0.000 C 
ATOM      7  C   UNL     1      -3.746  13.638  20.902  0.00  0.00    +0.000 C 
ATOM      8  O   UNL     1      -4.404  14.330  21.666  0.00  0.00    +0.000 OA
ATOM      9  N   UNL     1      -4.274  13.037  19.771  0.00  0.00    +0.000 N 
ATOM     10  C   UNL     1      -3.364  12.185  19.172  0.00  0.00    +0.000 A 
ATOM     11  C   UNL     1      -3.574  11.371  18.074  0.00  0.00    +0.000 A 
ATOM     12  C   UNL     1      -4.859  11.313  17.310  0.00  0.00    +0.000 C 
ATOM     13  C   UNL     1      -2.495  10.564  17.680  0.00  0.00    +0.000 A 
ATOM     14  C   UNL     1      -1.275  10.559  18.387  0.00  0.00    +0.000 A 
ATOM     15  C   UNL     1      -0.126   9.711  17.929  0.00  0.00    +0.000 C 
ATOM     16  C   UNL     1      -1.116  11.378  19.511  0.00  0.00    +0.000 A 
ATOM     17  C   UNL     1      -2.158  12.215  19.876  0.00  0.00    +0.000 A 
ATOM     18  H   UNL     1      -5.239  13.163  19.503  0.00  0.00    +0.000 HD
ENDROOT
BRANCH   2  19
ATOM     19  C   UNL     1      -1.022  15.779  23.126  0.00  0.00    +0.000 A 
ATOM     20  C   UNL     1      -0.248  16.946  23.184  0.00  0.00    +0.000 A 
ATOM     21  C   UNL     1      -0.381  17.850  24.235  0.00  0.00    +0.000 A 
ATOM     22  C   UNL     1      -1.358  17.667  25.202  0.00  0.00    +0.000 A 
ATOM     23  C   UNL     1      -2.234  16.587  25.091  0.00  0.00    +0.000 A 
ATOM     24  C   UNL     1      -2.063  15.639  24.062  0.00  0.00    +0.000 A 
BRANCH  22  25
ATOM     25  O   UNL     1      -1.282  18.543  26.246  0.00  0.00    +0.000 OA
ATOM     26  C   UNL     1      -0.472  18.144  27.337  0.00  0.00    +0.000 C 
ENDBRANCH  22  25
ENDBRANCH   2  19
BRANCH   1  27
ATOM     27  C   UNL     1      -0.233  14.337  19.763  0.00  0.00    +0.000 C 
ATOM     28  O   UNL     1      -0.438  14.624  18.591  0.00  0.00    +0.000 OA
BRANCH  27  29
ATOM     29  O   UNL     1       0.935  13.806  20.230  0.00  0.00    +0.000 OA
BRANCH  29  31
ATOM     30  C   UNL     1       2.306  12.644  18.636  0.00  0.00    +0.000 C 
ATOM     31  C   UNL     1       2.077  13.954  19.376  0.00  0.00    +0.000 C 
ENDBRANCH  29  31
ENDBRANCH  27  29
ENDBRANCH   1  27
BRANCH   1  32
ATOM     32  C   UNL     1      -2.017  15.739  20.649  0.00  0.00    +0.000 C 
ATOM     33  N   UNL     1      -2.642  16.818  20.470  0.00  0.00    +0.000 NA
ENDBRANCH   1  32
TORSDOF 6
ENDMDL
MODEL 4
REMARK VINA RESULT:      -4.9      3.966      6.603
REMARK  Name = 
REMARK  11 active torsions:
REMARK  status: ('A' for Active; 'I' for Inactive)
REMARK    1  A    between atoms: C_1  and  C_2
REMARK    2  A    between atoms: C_2  and  O_3
REMARK    3  A    between atoms: O_3  and  C_4
REMARK    4  A    between atoms: C_4  and  C_6
REMARK    5  A    between atoms: C_6  and  C_7
REMARK    6  A    between atoms: C_9  and  C_10
REMARK    7  A    between atoms: C_13  and  O_14
REMARK    8  A    between atoms: O_14  and  C_15
REMARK    9  A    between atoms: N_19  and  C_20
REMARK   10  A    between atoms: C_26  and  C_27
REMARK   11  A    between atoms: C_29  and  C_30
REMARK                            x       y       z     vdW  Elec       q    Type
REMARK                         _______ _______ _______ _____ _____    ______ ____
ROOT
ATOM      1  C   UNL     1      -3.626  14.079  21.695  0.00  0.00    +0.000 C 
ATOM      2  C   UNL     1      -3.539  14.061  23.277  0.00  0.00    +0.000 C 
ATOM      3  C   UNL     1      -4.989  13.923  23.749  0.00  0.00    +0.000 C 
ATOM      4  N   UNL     1      -5.887  14.286  22.655  0.00  0.00    +0.000 NA
ATOM      5  C   UNL     1      -6.815  15.361  22.996  0.00  0.00    +0.000 C 
ATOM      6  C   UNL     1      -5.116  14.392  21.383  0.00  0.00    +0.000 C 
ATOM      7  C   UNL     1      -5.307  15.789  20.669  0.00  0.00    +0.000 C 
ATOM      8  O   UNL     1      -5.106  16.907  21.121  0.00  0.00    +0.000 OA
ATOM      9  N   UNL     1      -5.806  15.560  19.397  0.00  0.00    +0.000 N 
ATOM     10  C   UNL     1      -6.089  14.222  19.192  0.00  0.00    +0.000 A 
ATOM     11  C   UNL     1      -6.663  13.647  18.073  0.00  0.00    +0.000 A 
ATOM     12  C   UNL     1      -7.046  14.412  16.844  0.00  0.00    +0.000 C 
ATOM     13  C   UNL     1      -6.886  12.262  18.125  0.00  0.00    +0.000 A 
ATOM     14  C   UNL     1      -6.571  11.504  19.272  0.00  0.00    +0.000 A 
ATOM     15  C   UNL     1      -6.790  10.020  19.294  0.00  0.00    +0.000 C 
ATOM     16  C   UNL     1      -6.019  12.132  20.394  0.00  0.00    +0.000 A 
ATOM     17  C   UNL     1      -5.749  13.489  20.332  0.00  0.00    +0.000 A 
ATOM     18  H   UNL     1      -6.007  16.316  18.760  0.00  0.00    +0.000 HD
ENDROOT
BRANCH   2  19
ATOM     19  C   UNL     1      -2.817  15.271  23.906  0.00  0.00    +0.000 A 
ATOM     20  C   UNL     1      -1.495  15.157  24.360  0.00  0.00    +0.000 A 
ATOM     21  C   UNL     1      -0.975  16.043  25.298  0.00  0.00    +0.000 A 
ATOM     22  C   UNL     1      -1.722  17.128  25.735  0.00  0.00    +0.000 A 
ATOM     23  C   UNL     1      -2.989  17.344  25.194  0.00  0.00    +0.000 A 
ATOM     24  C   UNL     1      -3.541  16.415  24.289  0.00  0.00    +0.000 A 
BRANCH  22  25
ATOM     25  O   UNL     1      -1.148  17.828  26.757  0.00  0.00    +0.000 OA
ATOM     26  C   UNL     1      -0.170  17.137  27.514  0.00  0.00    +0.000 C 
ENDBRANCH  22  25
ENDBRANCH   2  19
BRANCH   1  27
ATOM     27  C   UNL     1      -3.078  12.795  21.112  0.00  0.00    +0.000 C 
ATOM     28  O   UNL     1      -2.866  11.774  21.753  0.00  0.00    +0.000 OA
BRANCH  27  29
ATOM     29  O   UNL     1      -2.771  12.949  19.791  0.00  0.00    +0.000 OA
BRANCH  29  31
ATOM     30  C   UNL     1      -3.156  11.496  17.917  0.00  0.00    +0.000 C 
ATOM     31  C   UNL     1      -2.273  11.782  19.122  0.00  0.00    +0.000 C 
ENDBRANCH  29  31
ENDBRANCH  27  29
ENDBRANCH   1  27
BRANCH   1  32
ATOM     32  C   UNL     1      -2.701  15.198  21.240  0.00  0.00    +0.000 C 
ATOM     33  N   UNL     1      -1.935  16.125  20.862  0.00  0.00    +0.000 NA
ENDBRANCH   1  32
TORSDOF 6
ENDMDL
MODEL 5
REMARK VINA RESULT:      -4.9      0.761      1.406
REMARK  Name = 
REMARK  11 active torsions:
REMARK  status: ('A' for Active; 'I' for Inactive)
REMARK    1  A    between atoms: C_1  and  C_2
REMARK    2  A    between atoms: C_2  and  O_3
REMARK    3  A    between atoms: O_3  and  C_4
REMARK    4  A    between atoms: C_4  and  C_6
REMARK    5  A    between atoms: C_6  and  C_7
REMARK    6  A    between atoms: C_9  and  C_10
REMARK    7  A    between atoms: C_13  and  O_14
REMARK    8  A    between atoms: O_14  and  C_15
REMARK    9  A    between atoms: N_19  and  C_20
REMARK   10  A    between atoms: C_26  and  C_27
REMARK   11  A    between atoms: C_29  and  C_30
REMARK                            x       y       z     vdW  Elec       q    Type
REMARK                         _______ _______ _______ _____ _____    ______ ____
ROOT
ATOM      1  C   UNL     1      -0.730  14.885  20.612  0.00  0.00    +0.000 C 
ATOM      2  C   UNL     1      -0.091  14.835  19.162  0.00  0.00    +0.000 C 
ATOM      3  C   UNL     1      -0.791  13.667  18.463  0.00  0.00    +0.000 C 
ATOM      4  N   UNL     1      -1.419  12.812  19.468  0.00  0.00    +0.000 NA
ATOM      5  C   UNL     1      -0.977  11.421  19.408  0.00  0.00    +0.000 C 
ATOM      6  C   UNL     1      -1.414  13.501  20.791  0.00  0.00    +0.000 C 
ATOM      7  C   UNL     1      -0.739  12.633  21.927  0.00  0.00    +0.000 C 
ATOM      8  O   UNL     1       0.384  12.147  21.947  0.00  0.00    +0.000 OA
ATOM      9  N   UNL     1      -1.666  12.451  22.940  0.00  0.00    +0.000 N 
ATOM     10  C   UNL     1      -2.903  12.968  22.600  0.00  0.00    +0.000 A 
ATOM     11  C   UNL     1      -4.072  12.900  23.336  0.00  0.00    +0.000 A 
ATOM     12  C   UNL     1      -4.173  12.264  24.688  0.00  0.00    +0.000 C 
ATOM     13  C   UNL     1      -5.213  13.473  22.752  0.00  0.00    +0.000 A 
ATOM     14  C   UNL     1      -5.175  14.056  21.469  0.00  0.00    +0.000 A 
ATOM     15  C   UNL     1      -6.399  14.688  20.877  0.00  0.00    +0.000 C 
ATOM     16  C   UNL     1      -3.976  14.076  20.746  0.00  0.00    +0.000 A 
ATOM     17  C   UNL     1      -2.835  13.559  21.336  0.00  0.00    +0.000 A 
ATOM     18  H   UNL     1      -1.449  11.921  23.771  0.00  0.00    +0.000 HD
ENDROOT
BRANCH   2  19
ATOM     19  C   UNL     1       1.448  14.717  19.131  0.00  0.00    +0.000 A 
ATOM     20  C   UNL     1       2.248  15.860  18.996  0.00  0.00    +0.000 A 
ATOM     21  C   UNL     1       3.558  15.775  18.531  0.00  0.00    +0.000 A 
ATOM     22  C   UNL     1       4.139  14.539  18.283  0.00  0.00    +0.000 A 
ATOM     23  C   UNL     1       3.409  13.379  18.541  0.00  0.00    +0.000 A 
ATOM     24  C   UNL     1       2.064  13.465  18.956  0.00  0.00    +0.000 A 
BRANCH  22  25
ATOM     25  O   UNL     1       5.369  14.607  17.696  0.00  0.00    +0.000 OA
ATOM     26  C   UNL     1       6.439  15.005  18.535  0.00  0.00    +0.000 C 
ENDBRANCH  22  25
ENDBRANCH   2  19
BRANCH   1  27
ATOM     27  C   UNL     1      -1.626  16.095  20.762  0.00  0.00    +0.000 C 
ATOM     28  O   UNL     1      -2.056  16.514  21.829  0.00  0.00    +0.000 OA
BRANCH  27  29
ATOM     29  O   UNL     1      -1.961  16.611  19.544  0.00  0.00    +0.000 OA
BRANCH  29  31
ATOM     30  C   UNL     1      -1.150  18.224  17.959  0.00  0.00    +0.000 C 
ATOM     31  C   UNL     1      -1.700  18.009  19.361  0.00  0.00    +0.000 C 
ENDBRANCH  29  31
ENDBRANCH  27  29
ENDBRANCH   1  27
BRANCH   1  32
ATOM     32  C   UNL     1       0.433  15.076  21.573  0.00  0.00    +0.000 C 
ATOM     33  N   UNL     1       1.397  15.234  22.369  0.00  0.00    +0.000 NA
ENDBRANCH   1  32
TORSDOF 6
ENDMDL
MODEL 6
REMARK VINA RESULT:      -4.8      2.033      3.737
REMARK  Name = 
REMARK  11 active torsions:
REMARK  status: ('A' for Active; 'I' for Inactive)
REMARK    1  A    between atoms: C_1  and  C_2
REMARK    2  A    between atoms: C_2  and  O_3
REMARK    3  A    between atoms: O_3  and  C_4
REMARK    4  A    between atoms: C_4  and  C_6
REMARK    5  A    between atoms: C_6  and  C_7
REMARK    6  A    between atoms: C_9  and  C_10
REMARK    7  A    between atoms: C_13  and  O_14
REMARK    8  A    between atoms: O_14  and  C_15
REMARK    9  A    between atoms: N_19  and  C_20
REMARK   10  A    between atoms: C_26  and  C_27
REMARK   11  A    between atoms: C_29  and  C_30
REMARK                            x       y       z     vdW  Elec       q    Type
REMARK                         _______ _______ _______ _____ _____    ______ ____
ROOT
ATOM      1  C   UNL     1      -0.102  13.141  21.148  0.00  0.00    +0.000 C 
ATOM      2  C   UNL     1       0.877  14.328  21.527  0.00  0.00    +0.000 C 
ATOM      3  C   UNL     1       0.089  15.603  21.218  0.00  0.00    +0.000 C 
ATOM      4  N   UNL     1      -1.026  15.276  20.330  0.00  0.00    +0.000 NA
ATOM      5  C   UNL     1      -1.023  16.041  19.086  0.00  0.00    +0.000 C 
ATOM      6  C   UNL     1      -1.191  13.795  20.252  0.00  0.00    +0.000 C 
ATOM      7  C   UNL     1      -1.160  13.257  18.766  0.00  0.00    +0.000 C 
ATOM      8  O   UNL     1      -0.288  13.408  17.921  0.00  0.00    +0.000 OA
ATOM      9  N   UNL     1      -2.346  12.585  18.525  0.00  0.00    +0.000 N 
ATOM     10  C   UNL     1      -3.221  12.693  19.591  0.00  0.00    +0.000 A 
ATOM     11  C   UNL     1      -4.515  12.212  19.667  0.00  0.00    +0.000 A 
ATOM     12  C   UNL     1      -5.182  11.432  18.576  0.00  0.00    +0.000 C 
ATOM     13  C   UNL     1      -5.216  12.487  20.852  0.00  0.00    +0.000 A 
ATOM     14  C   UNL     1      -4.643  13.244  21.893  0.00  0.00    +0.000 A 
ATOM     15  C   UNL     1      -5.400  13.501  23.162  0.00  0.00    +0.000 C 
ATOM     16  C   UNL     1      -3.339  13.737  21.762  0.00  0.00    +0.000 A 
ATOM     17  C   UNL     1      -2.622  13.426  20.618  0.00  0.00    +0.000 A 
ATOM     18  H   UNL     1      -2.544  12.157  17.632  0.00  0.00    +0.000 HD
ENDROOT
BRANCH   2  19
ATOM     19  C   UNL     1       2.252  14.289  20.826  0.00  0.00    +0.000 A 
ATOM     20  C   UNL     1       3.427  14.112  21.570  0.00  0.00    +0.000 A 
ATOM     21  C   UNL     1       4.666  14.502  21.068  0.00  0.00    +0.000 A 
ATOM     22  C   UNL     1       4.781  14.985  19.773  0.00  0.00    +0.000 A 
ATOM     23  C   UNL     1       3.647  15.041  18.963  0.00  0.00    +0.000 A 
ATOM     24  C   UNL     1       2.383  14.703  19.489  0.00  0.00    +0.000 A 
BRANCH  22  25
ATOM     25  O   UNL     1       6.021  15.463  19.462  0.00  0.00    +0.000 OA
ATOM     26  C   UNL     1       6.586  14.991  18.252  0.00  0.00    +0.000 C 
ENDBRANCH  22  25
ENDBRANCH   2  19
BRANCH   1  27
ATOM     27  C   UNL     1      -0.598  12.436  22.391  0.00  0.00    +0.000 C 
ATOM     28  O   UNL     1      -0.613  12.928  23.512  0.00  0.00    +0.000 OA
BRANCH  27  29
ATOM     29  O   UNL     1      -0.950  11.146  22.115  0.00  0.00    +0.000 OA
BRANCH  29  31
ATOM     30  C   UNL     1       0.464   9.381  22.924  0.00  0.00    +0.000 C 
ATOM     31  C   UNL     1      -0.785  10.207  23.187  0.00  0.00    +0.000 C 
ENDBRANCH  29  31
ENDBRANCH  27  29
ENDBRANCH   1  27
BRANCH   1  32
ATOM     32  C   UNL     1       0.740  12.135  20.379  0.00  0.00    +0.000 C 
ATOM     33  N   UNL     1       1.439  11.302  19.741  0.00  0.00    +0.000 NA
ENDBRANCH   1  32
TORSDOF 6
ENDMDL
MODEL 7
REMARK VINA RESULT:      -4.8      2.717      4.665
REMARK  Name = 
REMARK  11 active torsions:
REMARK  status: ('A' for Active; 'I' for Inactive)
REMARK    1  A    between atoms: C_1  and  C_2
REMARK    2  A    between atoms: C_2  and  O_3
REMARK    3  A    between atoms: O_3  and  C_4
REMARK    4  A    between atoms: C_4  and  C_6
REMARK    5  A    between atoms: C_6  and  C_7
REMARK    6  A    between atoms: C_9  and  C_10
REMARK    7  A    between atoms: C_13  and  O_14
REMARK    8  A    between atoms: O_14  and  C_15
REMARK    9  A    between atoms: N_19  and  C_20
REMARK   10  A    between atoms: C_26  and  C_27
REMARK   11  A    between atoms: C_29  and  C_30
REMARK                            x       y       z     vdW  Elec       q    Type
REMARK                         _______ _______ _______ _____ _____    ______ ____
ROOT
ATOM      1  C   UNL     1      -2.465  13.080  21.271  0.00  0.00    +0.000 C 
ATOM      2  C   UNL     1      -1.396  12.278  22.124  0.00  0.00    +0.000 C 
ATOM      3  C   UNL     1      -0.790  13.316  23.071  0.00  0.00    +0.000 C 
ATOM      4  N   UNL     1      -1.079  14.657  22.565  0.00  0.00    +0.000 NA
ATOM      5  C   UNL     1       0.116  15.466  22.345  0.00  0.00    +0.000 C 
ATOM      6  C   UNL     1      -2.092  14.576  21.473  0.00  0.00    +0.000 C 
ATOM      7  C   UNL     1      -1.604  15.266  20.137  0.00  0.00    +0.000 C 
ATOM      8  O   UNL     1      -0.591  15.039  19.491  0.00  0.00    +0.000 OA
ATOM      9  N   UNL     1      -2.517  16.253  19.803  0.00  0.00    +0.000 N 
ATOM     10  C   UNL     1      -3.484  16.408  20.779  0.00  0.00    +0.000 A 
ATOM     11  C   UNL     1      -4.502  17.343  20.811  0.00  0.00    +0.000 A 
ATOM     12  C   UNL     1      -4.748  18.348  19.729  0.00  0.00    +0.000 C 
ATOM     13  C   UNL     1      -5.337  17.320  21.940  0.00  0.00    +0.000 A 
ATOM     14  C   UNL     1      -5.126  16.413  22.999  0.00  0.00    +0.000 A 
ATOM     15  C   UNL     1      -6.049  16.387  24.181  0.00  0.00    +0.000 C 
ATOM     16  C   UNL     1      -4.064  15.503  22.939  0.00  0.00    +0.000 A 
ATOM     17  C   UNL     1      -3.268  15.485  21.806  0.00  0.00    +0.000 A 
ATOM     18  H   UNL     1      -2.402  16.827  18.981  0.00  0.00    +0.000 HD
ENDROOT
BRANCH   2  19
ATOM     19  C   UNL     1      -0.332  11.527  21.297  0.00  0.00    +0.000 A 
ATOM     20  C   UNL     1       0.728  12.222  20.698  0.00  0.00    +0.000 A 
ATOM     21  C   UNL     1       1.427  11.684  19.621  0.00  0.00    +0.000 A 
ATOM     22  C   UNL     1       1.157  10.398  19.175  0.00  0.00    +0.000 A 
ATOM     23  C   UNL     1       0.201   9.633  19.843  0.00  0.00    +0.000 A 
ATOM     24  C   UNL     1      -0.549  10.196  20.896  0.00  0.00    +0.000 A 
BRANCH  22  25
ATOM     25  O   UNL     1       1.811  10.054  18.028  0.00  0.00    +0.000 OA
ATOM     26  C   UNL     1       2.120   8.680  17.875  0.00  0.00    +0.000 C 
ENDBRANCH  22  25
ENDBRANCH   2  19
BRANCH   1  27
ATOM     27  C   UNL     1      -3.871  12.686  21.663  0.00  0.00    +0.000 C 
ATOM     28  O   UNL     1      -4.193  12.256  22.764  0.00  0.00    +0.000 OA
BRANCH  27  29
ATOM     29  O   UNL     1      -4.724  12.791  20.603  0.00  0.00    +0.000 OA
BRANCH  29  31
ATOM     30  C   UNL     1      -6.528  14.276  20.046  0.00  0.00    +0.000 C 
ATOM     31  C   UNL     1      -6.085  13.113  20.920  0.00  0.00    +0.000 C 
ENDBRANCH  29  31
ENDBRANCH  27  29
ENDBRANCH   1  27
BRANCH   1  32
ATOM     32  C   UNL     1      -2.268  12.633  19.831  0.00  0.00    +0.000 C 
ATOM     33  N   UNL     1      -2.105  12.262  18.637  0.00  0.00    +0.000 NA
ENDBRANCH   1  32
TORSDOF 6
ENDMDL
MODEL 8
REMARK VINA RESULT:      -4.8      2.562      6.029
REMARK  Name = 
REMARK  11 active torsions:
REMARK  status: ('A' for Active; 'I' for Inactive)
REMARK    1  A    between atoms: C_1  and  C_2
REMARK    2  A    between atoms: C_2  and  O_3
REMARK    3  A    between atoms: O_3  and  C_4
REMARK    4  A    between atoms: C_4  and  C_6
REMARK    5  A    between atoms: C_6  and  C_7
REMARK    6  A    between atoms: C_9  and  C_10
REMARK    7  A    between atoms: C_13  and  O_14
REMARK    8  A    between atoms: O_14  and  C_15
REMARK    9  A    between atoms: N_19  and  C_20
REMARK   10  A    between atoms: C_26  and  C_27
REMARK   11  A    between atoms: C_29  and  C_30
REMARK                            x       y       z     vdW  Elec       q    Type
REMARK                         _______ _______ _______ _____ _____    ______ ____
ROOT
ATOM      1  C   UNL     1      -1.212  14.464  21.058  0.00  0.00    +0.000 C 
ATOM      2  C   UNL     1      -0.614  14.586  22.521  0.00  0.00    +0.000 C 
ATOM      3  C   UNL     1      -0.886  13.228  23.172  0.00  0.00    +0.000 C 
ATOM      4  N   UNL     1      -1.920  12.528  22.412  0.00  0.00    +0.000 NA
ATOM      5  C   UNL     1      -3.076  12.146  23.217  0.00  0.00    +0.000 C 
ATOM      6  C   UNL     1      -2.157  13.232  21.118  0.00  0.00    +0.000 C 
ATOM      7  C   UNL     1      -3.676  13.619  20.905  0.00  0.00    +0.000 C 
ATOM      8  O   UNL     1      -4.399  14.284  21.633  0.00  0.00    +0.000 OA
ATOM      9  N   UNL     1      -4.111  13.030  19.730  0.00  0.00    +0.000 N 
ATOM     10  C   UNL     1      -3.144  12.207  19.181  0.00  0.00    +0.000 A 
ATOM     11  C   UNL     1      -3.260  11.410  18.057  0.00  0.00    +0.000 A 
ATOM     12  C   UNL     1      -4.488  11.342  17.203  0.00  0.00    +0.000 C 
ATOM     13  C   UNL     1      -2.140  10.631  17.725  0.00  0.00    +0.000 A 
ATOM     14  C   UNL     1      -0.973  10.636  18.515  0.00  0.00    +0.000 A 
ATOM     15  C   UNL     1       0.222   9.818  18.125  0.00  0.00    +0.000 C 
ATOM     16  C   UNL     1      -0.910  11.436  19.662  0.00  0.00    +0.000 A 
ATOM     17  C   UNL     1      -1.991  12.246  19.968  0.00  0.00    +0.000 A 
ATOM     18  H   UNL     1      -5.057  13.143  19.397  0.00  0.00    +0.000 HD
ENDROOT
BRANCH   2  19
ATOM     19  C   UNL     1      -1.157  15.768  23.352  0.00  0.00    +0.000 A 
ATOM     20  C   UNL     1      -0.371  16.909  23.568  0.00  0.00    +0.000 A 
ATOM     21  C   UNL     1      -0.624  17.769  24.633  0.00  0.00    +0.000 A 
ATOM     22  C   UNL     1      -1.727  17.573  25.452  0.00  0.00    +0.000 A 
ATOM     23  C   UNL     1      -2.604  16.525  25.174  0.00  0.00    +0.000 A 
ATOM     24  C   UNL     1      -2.317  15.618  24.133  0.00  0.00    +0.000 A 
BRANCH  22  25
ATOM     25  O   UNL     1      -1.773  18.400  26.537  0.00  0.00    +0.000 OA
ATOM     26  C   UNL     1      -0.541  18.630  27.197  0.00  0.00    +0.000 C 
ENDBRANCH  22  25
ENDBRANCH   2  19
BRANCH   1  27
ATOM     27  C   UNL     1      -0.106  14.406  20.028  0.00  0.00    +0.000 C 
ATOM     28  O   UNL     1       0.984  13.877  20.206  0.00  0.00    +0.000 OA
BRANCH  27  29
ATOM     29  O   UNL     1      -0.449  15.095  18.901  0.00  0.00    +0.000 OA
BRANCH  29  31
ATOM     30  C   UNL     1      -0.347  17.246  17.835  0.00  0.00    +0.000 C 
ATOM     31  C   UNL     1       0.452  16.138  18.503  0.00  0.00    +0.000 C 
ENDBRANCH  29  31
ENDBRANCH  27  29
ENDBRANCH   1  27
BRANCH   1  32
ATOM     32  C   UNL     1      -1.975  15.756  20.812  0.00  0.00    +0.000 C 
ATOM     33  N   UNL     1      -2.608  16.827  20.608  0.00  0.00    +0.000 NA
ENDBRANCH   1  32
TORSDOF 6
ENDMDL
MODEL 9
REMARK VINA RESULT:      -4.8      2.533      4.216
REMARK  Name = 
REMARK  11 active torsions:
REMARK  status: ('A' for Active; 'I' for Inactive)
REMARK    1  A    between atoms: C_1  and  C_2
REMARK    2  A    between atoms: C_2  and  O_3
REMARK    3  A    between atoms: O_3  and  C_4
REMARK    4  A    between atoms: C_4  and  C_6
REMARK    5  A    between atoms: C_6  and  C_7
REMARK    6  A    between atoms: C_9  and  C_10
REMARK    7  A    between atoms: C_13  and  O_14
REMARK    8  A    between atoms: O_14  and  C_15
REMARK    9  A    between atoms: N_19  and  C_20
REMARK   10  A    between atoms: C_26  and  C_27
REMARK   11  A    between atoms: C_29  and  C_30
REMARK                            x       y       z     vdW  Elec       q    Type
REMARK                         _______ _______ _______ _____ _____    ______ ____
ROOT
ATOM      1  C   UNL     1       0.335  14.221  21.300  0.00  0.00    +0.000 C 
ATOM      2  C   UNL     1       0.611  15.720  21.737  0.00  0.00    +0.000 C 
ATOM      3  C   UNL     1      -0.308  16.564  20.851  0.00  0.00    +0.000 C 
ATOM      4  N   UNL     1      -0.736  15.766  19.703  0.00  0.00    +0.000 NA
ATOM      5  C   UNL     1      -0.413  16.375  18.417  0.00  0.00    +0.000 C 
ATOM      6  C   UNL     1      -0.375  14.335  19.922  0.00  0.00    +0.000 C 
ATOM      7  C   UNL     1       0.490  13.738  18.741  0.00  0.00    +0.000 C 
ATOM      8  O   UNL     1       1.552  14.149  18.294  0.00  0.00    +0.000 OA
ATOM      9  N   UNL     1      -0.183  12.644  18.223  0.00  0.00    +0.000 N 
ATOM     10  C   UNL     1      -1.428  12.487  18.803  0.00  0.00    +0.000 A 
ATOM     11  C   UNL     1      -2.393  11.551  18.479  0.00  0.00    +0.000 A 
ATOM     12  C   UNL     1      -2.214  10.494  17.434  0.00  0.00    +0.000 C 
ATOM     13  C   UNL     1      -3.600  11.624  19.193  0.00  0.00    +0.000 A 
ATOM     14  C   UNL     1      -3.827  12.621  20.164  0.00  0.00    +0.000 A 
ATOM     15  C   UNL     1      -5.113  12.661  20.935  0.00  0.00    +0.000 C 
ATOM     16  C   UNL     1      -2.834  13.568  20.439  0.00  0.00    +0.000 A 
ATOM     17  C   UNL     1      -1.621  13.471  19.776  0.00  0.00    +0.000 A 
ATOM     18  H   UNL     1       0.189  12.107  17.454  0.00  0.00    +0.000 HD
ENDROOT
BRANCH   2  19
ATOM     19  C   UNL     1       2.088  16.161  21.661  0.00  0.00    +0.000 A 
ATOM     20  C   UNL     1       2.849  16.311  22.829  0.00  0.00    +0.000 A 
ATOM     21  C   UNL     1       3.994  17.103  22.848  0.00  0.00    +0.000 A 
ATOM     22  C   UNL     1       4.469  17.685  21.681  0.00  0.00    +0.000 A 
ATOM     23  C   UNL     1       3.808  17.437  20.479  0.00  0.00    +0.000 A 
ATOM     24  C   UNL     1       2.615  16.685  20.467  0.00  0.00    +0.000 A 
BRANCH  22  25
ATOM     25  O   UNL     1       5.510  18.547  21.869  0.00  0.00    +0.000 OA
ATOM     26  C   UNL     1       6.478  18.591  20.836  0.00  0.00    +0.000 C 
ENDBRANCH  22  25
ENDBRANCH   2  19
BRANCH   1  27
ATOM     27  C   UNL     1      -0.419  13.477  22.379  0.00  0.00    +0.000 C 
ATOM     28  O   UNL     1      -1.120  14.007  23.231  0.00  0.00    +0.000 OA
BRANCH  27  29
ATOM     29  O   UNL     1      -0.150  12.140  22.331  0.00  0.00    +0.000 OA
BRANCH  29  31
ATOM     30  C   UNL     1      -0.552   9.891  23.076  0.00  0.00    +0.000 C 
ATOM     31  C   UNL     1      -1.151  11.277  22.889  0.00  0.00    +0.000 C 
ENDBRANCH  29  31
ENDBRANCH  27  29
ENDBRANCH   1  27
BRANCH   1  32
ATOM     32  C   UNL     1       1.701  13.564  21.184  0.00  0.00    +0.000 C 
ATOM     33  N   UNL     1       2.834  13.019  21.089  0.00  0.00    +0.000 NA
ENDBRANCH   1  32
TORSDOF 6
ENDMDL
