MODEL 1
REMARK VINA RESULT:      -8.1      0.000      0.000
REMARK  Name = 
REMARK  6 active torsions:
REMARK  status: ('A' for Active; 'I' for Inactive)
REMARK    1  A    between atoms: C_1  and  O_2
REMARK    2  A    between atoms: O_2  and  C_3
REMARK    3  A    between atoms: C_5  and  C_6
REMARK    4  A    between atoms: N_7  and  N_8
REMARK    5  A    between atoms: C_9  and  C_11
REMARK    6  A    between atoms: C_22  and  O_23
REMARK                            x       y       z     vdW  Elec       q    Type
REMARK                         _______ _______ _______ _____ _____    ______ ____
ROOT
ATOM      1  N   UNL     1       7.642   7.049  18.058  0.00  0.00    +0.000 N 
ATOM      2  C   UNL     1       7.564   5.784  18.627  0.00  0.00    +0.000 C 
ATOM      3  O   UNL     1       8.143   5.393  19.632  0.00  0.00    +0.000 OA
ATOM      4  H   UNL     1       7.197   7.209  17.161  0.00  0.00    +0.000 HD
ENDROOT
BRANCH   2   5
ATOM      5  C   UNL     1       6.641   4.837  17.834  0.00  0.00    +0.000 C 
ATOM      6  O   UNL     1       7.069   4.397  16.769  0.00  0.00    +0.000 OA
ATOM      7  N   UNL     1       5.365   4.554  18.350  0.00  0.00    +0.000 N 
ATOM      8  C   UNL     1       4.596   3.473  17.744  0.00  0.00    +0.000 C 
ATOM      9  C   UNL     1       3.485   3.992  16.838  0.00  0.00    +0.000 C 
ATOM     10  C   UNL     1       2.239   4.454  17.591  0.00  0.00    +0.000 C 
ATOM     11  C   UNL     1       2.479   5.575  18.601  0.00  0.00    +0.000 C 
ATOM     12  C   UNL     1       3.339   5.142  19.786  0.00  0.00    +0.000 C 
ATOM     13  C   UNL     1       4.847   5.228  19.540  0.00  0.00    +0.000 C 
ENDBRANCH   2   5
BRANCH   1  15
ATOM     14  C   UNL     1       8.348   9.198  18.202  0.00  0.00    +0.000 C 
ATOM     15  N   UNL     1       8.490   7.972  18.597  0.00  0.00    +0.000 NA
BRANCH  14  18
ATOM     16  C   UNL     1      10.903  12.008  18.256  0.00  0.00    +0.000 A 
ATOM     17  C   UNL     1      10.066  10.977  17.803  0.00  0.00    +0.000 A 
ATOM     18  C   UNL     1       9.247  10.269  18.690  0.00  0.00    +0.000 A 
ATOM     19  C   UNL     1       9.260  10.585  20.048  0.00  0.00    +0.000 A 
ATOM     20  C   UNL     1      10.094  11.606  20.512  0.00  0.00    +0.000 A 
ATOM     21  C   UNL     1      10.911  12.315  19.622  0.00  0.00    +0.000 A 
BRANCH  16  23
ATOM     22  C   UNL     1      11.195  13.851  16.750  0.00  0.00    +0.000 C 
ATOM     23  O   UNL     1      11.622  12.592  17.249  0.00  0.00    +0.000 OA
ENDBRANCH  16  23
BRANCH  21  24
ATOM     24  O   UNL     1      11.707  13.306  20.125  0.00  0.00    +0.000 OA
ATOM     25  H   UNL     1      12.436  13.485  19.510  0.00  0.00    +0.000 HD
ENDBRANCH  21  24
ENDBRANCH  14  18
ENDBRANCH   1  15
TORSDOF 5
ENDMDL
MODEL 2
REMARK VINA RESULT:      -7.7      0.804      1.961
REMARK  Name = 
REMARK  6 active torsions:
REMARK  status: ('A' for Active; 'I' for Inactive)
REMARK    1  A    between atoms: C_1  and  O_2
REMARK    2  A    between atoms: O_2  and  C_3
REMARK    3  A    between atoms: C_5  and  C_6
REMARK    4  A    between atoms: N_7  and  N_8
REMARK    5  A    between atoms: C_9  and  C_11
REMARK    6  A    between atoms: C_22  and  O_23
REMARK                            x       y       z     vdW  Elec       q    Type
REMARK                         _______ _______ _______ _____ _____    ______ ____
ROOT
ATOM      1  N   UNL     1       7.742   7.172  18.099  0.00  0.00    +0.000 N 
ATOM      2  C   UNL     1       7.732   5.903  18.664  0.00  0.00    +0.000 C 
ATOM      3  O   UNL     1       8.323   5.544  19.674  0.00  0.00    +0.000 OA
ATOM      4  H   UNL     1       7.298   7.308  17.197  0.00  0.00    +0.000 HD
ENDROOT
BRANCH   2   5
ATOM      5  C   UNL     1       6.877   4.905  17.858  0.00  0.00    +0.000 C 
ATOM      6  O   UNL     1       7.364   4.457  16.822  0.00  0.00    +0.000 OA
ATOM      7  N   UNL     1       5.592   4.586  18.330  0.00  0.00    +0.000 N 
ATOM      8  C   UNL     1       4.888   3.464  17.720  0.00  0.00    +0.000 C 
ATOM      9  C   UNL     1       3.797   3.921  16.759  0.00  0.00    +0.000 C 
ATOM     10  C   UNL     1       2.505   4.353  17.451  0.00  0.00    +0.000 C 
ATOM     11  C   UNL     1       2.664   5.505  18.442  0.00  0.00    +0.000 C 
ATOM     12  C   UNL     1       3.490   5.131  19.670  0.00  0.00    +0.000 C 
ATOM     13  C   UNL     1       5.003   5.267  19.482  0.00  0.00    +0.000 C 
ENDBRANCH   2   5
BRANCH   1  15
ATOM     14  C   UNL     1       8.422   9.333  18.150  0.00  0.00    +0.000 C 
ATOM     15  N   UNL     1       8.526   8.143  18.650  0.00  0.00    +0.000 NA
BRANCH  14  18
ATOM     16  C   UNL     1      10.048  11.862  20.471  0.00  0.00    +0.000 A 
ATOM     17  C   UNL     1       9.237  10.821  19.993  0.00  0.00    +0.000 A 
ATOM     18  C   UNL     1       9.263  10.448  18.644  0.00  0.00    +0.000 A 
ATOM     19  C   UNL     1      10.102  11.118  17.755  0.00  0.00    +0.000 A 
ATOM     20  C   UNL     1      10.910  12.160  18.219  0.00  0.00    +0.000 A 
ATOM     21  C   UNL     1      10.884  12.530  19.570  0.00  0.00    +0.000 A 
BRANCH  16  23
ATOM     22  C   UNL     1       8.603  12.394  22.309  0.00  0.00    +0.000 C 
ATOM     23  O   UNL     1       9.896  12.081  21.814  0.00  0.00    +0.000 OA
ENDBRANCH  16  23
BRANCH  21  24
ATOM     24  O   UNL     1      11.695  13.555  19.974  0.00  0.00    +0.000 OA
ATOM     25  H   UNL     1      12.384  13.709  19.307  0.00  0.00    +0.000 HD
ENDBRANCH  21  24
ENDBRANCH  14  18
ENDBRANCH   1  15
TORSDOF 5
ENDMDL
MODEL 3
REMARK VINA RESULT:      -7.7      1.900      2.357
REMARK  Name = 
REMARK  6 active torsions:
REMARK  status: ('A' for Active; 'I' for Inactive)
REMARK    1  A    between atoms: C_1  and  O_2
REMARK    2  A    between atoms: O_2  and  C_3
REMARK    3  A    between atoms: C_5  and  C_6
REMARK    4  A    between atoms: N_7  and  N_8
REMARK    5  A    between atoms: C_9  and  C_11
REMARK    6  A    between atoms: C_22  and  O_23
REMARK                            x       y       z     vdW  Elec       q    Type
REMARK                         _______ _______ _______ _____ _____    ______ ____
ROOT
ATOM      1  N   UNL     1       7.613   7.348  18.084  0.00  0.00    +0.000 N 
ATOM      2  C   UNL     1       6.728   6.600  17.317  0.00  0.00    +0.000 C 
ATOM      3  O   UNL     1       6.258   6.905  16.230  0.00  0.00    +0.000 OA
ATOM      4  H   UNL     1       7.838   7.028  19.020  0.00  0.00    +0.000 HD
ENDROOT
BRANCH   2   5
ATOM      5  C   UNL     1       6.341   5.269  17.994  0.00  0.00    +0.000 C 
ATOM      6  O   UNL     1       7.213   4.406  18.075  0.00  0.00    +0.000 OA
ATOM      7  N   UNL     1       5.023   5.106  18.452  0.00  0.00    +0.000 N 
ATOM      8  C   UNL     1       4.723   3.966  19.311  0.00  0.00    +0.000 C 
ATOM      9  C   UNL     1       3.991   2.857  18.563  0.00  0.00    +0.000 C 
ATOM     10  C   UNL     1       2.496   3.114  18.384  0.00  0.00    +0.000 C 
ATOM     11  C   UNL     1       2.152   4.394  17.624  0.00  0.00    +0.000 C 
ATOM     12  C   UNL     1       2.534   5.663  18.382  0.00  0.00    +0.000 C 
ATOM     13  C   UNL     1       3.986   6.104  18.190  0.00  0.00    +0.000 C 
ENDBRANCH   2   5
BRANCH   1  15
ATOM     14  C   UNL     1       8.670   9.313  18.483  0.00  0.00    +0.000 C 
ATOM     15  N   UNL     1       7.979   8.591  17.658  0.00  0.00    +0.000 NA
BRANCH  14  18
ATOM     16  C   UNL     1       8.499  12.996  17.572  0.00  0.00    +0.000 A 
ATOM     17  C   UNL     1       8.119  11.681  17.878  0.00  0.00    +0.000 A 
ATOM     18  C   UNL     1       9.077  10.694  18.137  0.00  0.00    +0.000 A 
ATOM     19  C   UNL     1      10.434  11.014  18.087  0.00  0.00    +0.000 A 
ATOM     20  C   UNL     1      10.824  12.320  17.777  0.00  0.00    +0.000 A 
ATOM     21  C   UNL     1       9.863  13.307  17.522  0.00  0.00    +0.000 A 
BRANCH  16  23
ATOM     22  C   UNL     1       6.997  14.661  18.420  0.00  0.00    +0.000 C 
ATOM     23  O   UNL     1       7.430  13.823  17.359  0.00  0.00    +0.000 OA
ENDBRANCH  16  23
BRANCH  21  24
ATOM     24  O   UNL     1      10.297  14.569  17.225  0.00  0.00    +0.000 OA
ATOM     25  H   UNL     1      11.199  14.692  17.561  0.00  0.00    +0.000 HD
ENDBRANCH  21  24
ENDBRANCH  14  18
ENDBRANCH   1  15
TORSDOF 5
ENDMDL
MODEL 4
REMARK VINA RESULT:      -7.5      1.539      2.087
REMARK  Name = 
REMARK  6 active torsions:
REMARK  status: ('A' for Active; 'I' for Inactive)
REMARK    1  A    between atoms: C_1  and  O_2
REMARK    2  A    between atoms: O_2  and  C_3
REMARK    3  A    between atoms: C_5  and  C_6
REMARK    4  A    between atoms: N_7  and  N_8
REMARK    5  A    between atoms: C_9  and  C_11
REMARK    6  A    between atoms: C_22  and  O_23
REMARK                            x       y       z     vdW  Elec       q    Type
REMARK                         _______ _______ _______ _____ _____    ______ ____
ROOT
ATOM      1  N   UNL     1       7.470   7.025  17.420  0.00  0.00    +0.000 N 
ATOM      2  C   UNL     1       6.389   6.483  16.735  0.00  0.00    +0.000 C 
ATOM      3  O   UNL     1       5.750   7.012  15.835  0.00  0.00    +0.000 OA
ATOM      4  H   UNL     1       7.840   6.525  18.221  0.00  0.00    +0.000 HD
ENDROOT
BRANCH   2   5
ATOM      5  C   UNL     1       6.016   5.075  17.240  0.00  0.00    +0.000 C 
ATOM      6  O   UNL     1       6.757   4.148  16.918  0.00  0.00    +0.000 OA
ATOM      7  N   UNL     1       4.850   4.925  18.009  0.00  0.00    +0.000 N 
ATOM      8  C   UNL     1       4.632   3.656  18.697  0.00  0.00    +0.000 C 
ATOM      9  C   UNL     1       3.592   2.790  17.994  0.00  0.00    +0.000 C 
ATOM     10  C   UNL     1       2.150   3.196  18.288  0.00  0.00    +0.000 C 
ATOM     11  C   UNL     1       1.795   4.630  17.898  0.00  0.00    +0.000 C 
ATOM     12  C   UNL     1       2.523   5.678  18.736  0.00  0.00    +0.000 C 
ATOM     13  C   UNL     1       3.923   6.033  18.231  0.00  0.00    +0.000 C 
ENDBRANCH   2   5
BRANCH   1  15
ATOM     14  C   UNL     1       8.307   9.004  18.139  0.00  0.00    +0.000 C 
ATOM     15  N   UNL     1       7.863   8.302  17.145  0.00  0.00    +0.000 NA
BRANCH  14  18
ATOM     16  C   UNL     1      10.452  12.129  17.884  0.00  0.00    +0.000 A 
ATOM     17  C   UNL     1      10.057  10.796  18.077  0.00  0.00    +0.000 A 
ATOM     18  C   UNL     1       8.715  10.416  17.958  0.00  0.00    +0.000 A 
ATOM     19  C   UNL     1       7.748  11.372  17.646  0.00  0.00    +0.000 A 
ATOM     20  C   UNL     1       8.129  12.704  17.457  0.00  0.00    +0.000 A 
ATOM     21  C   UNL     1       9.474  13.081  17.575  0.00  0.00    +0.000 A 
BRANCH  16  23
ATOM     22  C   UNL     1      12.330  12.423  19.345  0.00  0.00    +0.000 C 
ATOM     23  O   UNL     1      11.800  12.311  18.032  0.00  0.00    +0.000 OA
ENDBRANCH  16  23
BRANCH  21  24
ATOM     24  O   UNL     1       9.795  14.395  17.379  0.00  0.00    +0.000 OA
ATOM     25  H   UNL     1       9.605  14.645  16.460  0.00  0.00    +0.000 HD
ENDBRANCH  21  24
ENDBRANCH  14  18
ENDBRANCH   1  15
TORSDOF 5
ENDMDL
MODEL 5
REMARK VINA RESULT:      -7.4      6.205      9.279
REMARK  Name = 
REMARK  6 active torsions:
REMARK  status: ('A' for Active; 'I' for Inactive)
REMARK    1  A    between atoms: C_1  and  O_2
REMARK    2  A    between atoms: O_2  and  C_3
REMARK    3  A    between atoms: C_5  and  C_6
REMARK    4  A    between atoms: N_7  and  N_8
REMARK    5  A    between atoms: C_9  and  C_11
REMARK    6  A    between atoms: C_22  and  O_23
REMARK                            x       y       z     vdW  Elec       q    Type
REMARK                         _______ _______ _______ _____ _____    ______ ____
ROOT
ATOM      1  N   UNL     1       1.503   8.558  19.669  0.00  0.00    +0.000 N 
ATOM      2  C   UNL     1       1.392   9.462  18.619  0.00  0.00    +0.000 C 
ATOM      3  O   UNL     1       1.923   9.380  17.519  0.00  0.00    +0.000 OA
ATOM      4  H   UNL     1       1.100   8.802  20.567  0.00  0.00    +0.000 HD
ENDROOT
BRANCH   2   5
ATOM      5  C   UNL     1       0.503  10.671  18.973  0.00  0.00    +0.000 C 
ATOM      6  O   UNL     1       0.861  11.375  19.915  0.00  0.00    +0.000 OA
ATOM      7  N   UNL     1      -0.669  10.883  18.228  0.00  0.00    +0.000 N 
ATOM      8  C   UNL     1      -1.371  12.152  18.388  0.00  0.00    +0.000 C 
ATOM      9  C   UNL     1      -2.626  12.014  19.243  0.00  0.00    +0.000 C 
ATOM     10  C   UNL     1      -3.827  11.445  18.491  0.00  0.00    +0.000 C 
ATOM     11  C   UNL     1      -3.608  10.058  17.888  0.00  0.00    +0.000 C 
ATOM     12  C   UNL     1      -2.582  10.050  16.758  0.00  0.00    +0.000 C 
ATOM     13  C   UNL     1      -1.129   9.926  17.222  0.00  0.00    +0.000 C 
ENDBRANCH   2   5
BRANCH   1  15
ATOM     14  C   UNL     1       1.908   6.358  20.027  0.00  0.00    +0.000 C 
ATOM     15  N   UNL     1       2.329   7.480  19.538  0.00  0.00    +0.000 NA
BRANCH  14  18
ATOM     16  C   UNL     1       4.838   4.026  19.392  0.00  0.00    +0.000 A 
ATOM     17  C   UNL     1       4.030   5.172  19.420  0.00  0.00    +0.000 A 
ATOM     18  C   UNL     1       2.747   5.138  19.979  0.00  0.00    +0.000 A 
ATOM     19  C   UNL     1       2.256   3.949  20.516  0.00  0.00    +0.000 A 
ATOM     20  C   UNL     1       3.050   2.799  20.489  0.00  0.00    +0.000 A 
ATOM     21  C   UNL     1       4.335   2.836  19.930  0.00  0.00    +0.000 A 
BRANCH  16  23
ATOM     22  C   UNL     1       6.114   4.518  17.423  0.00  0.00    +0.000 C 
ATOM     23  O   UNL     1       6.059   4.249  18.816  0.00  0.00    +0.000 OA
ENDBRANCH  16  23
BRANCH  21  24
ATOM     24  O   UNL     1       5.072   1.684  19.930  0.00  0.00    +0.000 OA
ATOM     25  H   UNL     1       5.938   1.850  20.335  0.00  0.00    +0.000 HD
ENDBRANCH  21  24
ENDBRANCH  14  18
ENDBRANCH   1  15
TORSDOF 5
ENDMDL
MODEL 6
REMARK VINA RESULT:      -7.4      1.415      2.313
REMARK  Name = 
REMARK  6 active torsions:
REMARK  status: ('A' for Active; 'I' for Inactive)
REMARK    1  A    between atoms: C_1  and  O_2
REMARK    2  A    between atoms: O_2  and  C_3
REMARK    3  A    between atoms: C_5  and  C_6
REMARK    4  A    between atoms: N_7  and  N_8
REMARK    5  A    between atoms: C_9  and  C_11
REMARK    6  A    between atoms: C_22  and  O_23
REMARK                            x       y       z     vdW  Elec       q    Type
REMARK                         _______ _______ _______ _____ _____    ______ ____
ROOT
ATOM      1  N   UNL     1       7.638   7.064  17.853  0.00  0.00    +0.000 N 
ATOM      2  C   UNL     1       6.552   6.671  17.080  0.00  0.00    +0.000 C 
ATOM      3  O   UNL     1       5.929   7.358  16.283  0.00  0.00    +0.000 OA
ATOM      4  H   UNL     1       7.993   6.426  18.556  0.00  0.00    +0.000 HD
ENDROOT
BRANCH   2   5
ATOM      5  C   UNL     1       6.150   5.203  17.334  0.00  0.00    +0.000 C 
ATOM      6  O   UNL     1       6.891   4.332  16.884  0.00  0.00    +0.000 OA
ATOM      7  N   UNL     1       4.958   4.944  18.032  0.00  0.00    +0.000 N 
ATOM      8  C   UNL     1       4.707   3.583  18.492  0.00  0.00    +0.000 C 
ATOM      9  C   UNL     1       3.682   2.861  17.625  0.00  0.00    +0.000 C 
ATOM     10  C   UNL     1       2.234   3.233  17.940  0.00  0.00    +0.000 C 
ATOM     11  C   UNL     1       1.906   4.717  17.783  0.00  0.00    +0.000 C 
ATOM     12  C   UNL     1       2.617   5.600  18.805  0.00  0.00    +0.000 C 
ATOM     13  C   UNL     1       4.035   6.014  18.407  0.00  0.00    +0.000 C 
ENDBRANCH   2   5
BRANCH   1  15
ATOM     14  C   UNL     1       8.625   8.833  18.868  0.00  0.00    +0.000 C 
ATOM     15  N   UNL     1       8.056   8.362  17.804  0.00  0.00    +0.000 NA
BRANCH  14  18
ATOM     16  C   UNL     1       9.857  12.158  20.231  0.00  0.00    +0.000 A 
ATOM     17  C   UNL     1       9.411  10.829  20.163  0.00  0.00    +0.000 A 
ATOM     18  C   UNL     1       9.073  10.243  18.937  0.00  0.00    +0.000 A 
ATOM     19  C   UNL     1       9.174  10.986  17.761  0.00  0.00    +0.000 A 
ATOM     20  C   UNL     1       9.612  12.313  17.818  0.00  0.00    +0.000 A 
ATOM     21  C   UNL     1       9.953  12.896  19.046  0.00  0.00    +0.000 A 
BRANCH  16  23
ATOM     22  C   UNL     1       9.105  13.089  22.308  0.00  0.00    +0.000 C 
ATOM     23  O   UNL     1      10.149  12.556  21.507  0.00  0.00    +0.000 OA
ENDBRANCH  16  23
BRANCH  21  24
ATOM     24  O   UNL     1      10.377  14.196  19.047  0.00  0.00    +0.000 OA
ATOM     25  H   UNL     1      10.465  14.512  18.134  0.00  0.00    +0.000 HD
ENDBRANCH  21  24
ENDBRANCH  14  18
ENDBRANCH   1  15
TORSDOF 5
ENDMDL
MODEL 7
REMARK VINA RESULT:      -7.2      1.526      1.616
REMARK  Name = 
REMARK  6 active torsions:
REMARK  status: ('A' for Active; 'I' for Inactive)
REMARK    1  A    between atoms: C_1  and  O_2
REMARK    2  A    between atoms: O_2  and  C_3
REMARK    3  A    between atoms: C_5  and  C_6
REMARK    4  A    between atoms: N_7  and  N_8
REMARK    5  A    between atoms: C_9  and  C_11
REMARK    6  A    between atoms: C_22  and  O_23
REMARK                            x       y       z     vdW  Elec       q    Type
REMARK                         _______ _______ _______ _____ _____    ______ ____
ROOT
ATOM      1  N   UNL     1       7.641   8.377  17.575  0.00  0.00    +0.000 N 
ATOM      2  C   UNL     1       7.790   7.075  18.037  0.00  0.00    +0.000 C 
ATOM      3  O   UNL     1       8.346   6.720  19.068  0.00  0.00    +0.000 OA
ATOM      4  H   UNL     1       7.255   8.524  16.648  0.00  0.00    +0.000 HD
ENDROOT
BRANCH   2   5
ATOM      5  C   UNL     1       7.174   6.035  17.080  0.00  0.00    +0.000 C 
ATOM      6  O   UNL     1       7.532   6.072  15.905  0.00  0.00    +0.000 OA
ATOM      7  N   UNL     1       6.227   5.130  17.590  0.00  0.00    +0.000 N 
ATOM      8  C   UNL     1       5.837   3.995  16.760  0.00  0.00    +0.000 C 
ATOM      9  C   UNL     1       4.464   4.188  16.128  0.00  0.00    +0.000 C 
ATOM     10  C   UNL     1       3.301   3.895  17.073  0.00  0.00    +0.000 C 
ATOM     11  C   UNL     1       3.273   4.750  18.339  0.00  0.00    +0.000 C 
ATOM     12  C   UNL     1       4.439   4.463  19.283  0.00  0.00    +0.000 C 
ATOM     13  C   UNL     1       5.721   5.231  18.958  0.00  0.00    +0.000 C 
ENDBRANCH   2   5
BRANCH   1  15
ATOM     14  C   UNL     1       8.915  10.251  17.589  0.00  0.00    +0.000 C 
ATOM     15  N   UNL     1       8.212   9.402  18.270  0.00  0.00    +0.000 NA
BRANCH  14  18
ATOM     16  C   UNL     1      10.233  13.732  18.343  0.00  0.00    +0.000 A 
ATOM     17  C   UNL     1       9.589  12.661  17.706  0.00  0.00    +0.000 A 
ATOM     18  C   UNL     1       9.616  11.373  18.254  0.00  0.00    +0.000 A 
ATOM     19  C   UNL     1      10.293  11.143  19.451  0.00  0.00    +0.000 A 
ATOM     20  C   UNL     1      10.943  12.202  20.092  0.00  0.00    +0.000 A 
ATOM     21  C   UNL     1      10.913  13.490  19.543  0.00  0.00    +0.000 A 
BRANCH  16  23
ATOM     22  C   UNL     1       8.997  15.756  17.991  0.00  0.00    +0.000 C 
ATOM     23  O   UNL     1      10.094  14.915  17.668  0.00  0.00    +0.000 OA
ENDBRANCH  16  23
BRANCH  21  24
ATOM     24  O   UNL     1      11.562  14.492  20.209  0.00  0.00    +0.000 OA
ATOM     25  H   UNL     1      12.264  14.115  20.763  0.00  0.00    +0.000 HD
ENDBRANCH  21  24
ENDBRANCH  14  18
ENDBRANCH   1  15
TORSDOF 5
ENDMDL
MODEL 8
REMARK VINA RESULT:      -7.1      1.205      1.622
REMARK  Name = 
REMARK  6 active torsions:
REMARK  status: ('A' for Active; 'I' for Inactive)
REMARK    1  A    between atoms: C_1  and  O_2
REMARK    2  A    between atoms: O_2  and  C_3
REMARK    3  A    between atoms: C_5  and  C_6
REMARK    4  A    between atoms: N_7  and  N_8
REMARK    5  A    between atoms: C_9  and  C_11
REMARK    6  A    between atoms: C_22  and  O_23
REMARK                            x       y       z     vdW  Elec       q    Type
REMARK                         _______ _______ _______ _____ _____    ______ ____
ROOT
ATOM      1  N   UNL     1       7.350   7.154  17.012  0.00  0.00    +0.000 N 
ATOM      2  C   UNL     1       7.418   6.175  17.996  0.00  0.00    +0.000 C 
ATOM      3  O   UNL     1       8.100   6.200  19.012  0.00  0.00    +0.000 OA
ATOM      4  H   UNL     1       6.828   6.959  16.165  0.00  0.00    +0.000 HD
ENDROOT
BRANCH   2   5
ATOM      5  C   UNL     1       6.522   4.960  17.681  0.00  0.00    +0.000 C 
ATOM      6  O   UNL     1       6.950   4.141  16.870  0.00  0.00    +0.000 OA
ATOM      7  N   UNL     1       5.268   4.869  18.310  0.00  0.00    +0.000 N 
ATOM      8  C   UNL     1       4.535   3.612  18.215  0.00  0.00    +0.000 C 
ATOM      9  C   UNL     1       3.387   3.687  17.214  0.00  0.00    +0.000 C 
ATOM     10  C   UNL     1       2.137   4.374  17.758  0.00  0.00    +0.000 C 
ATOM     11  C   UNL     1       2.348   5.814  18.223  0.00  0.00    +0.000 C 
ATOM     12  C   UNL     1       3.245   5.922  19.453  0.00  0.00    +0.000 C 
ATOM     13  C   UNL     1       4.744   5.949  19.144  0.00  0.00    +0.000 C 
ENDBRANCH   2   5
BRANCH   1  15
ATOM     14  C   UNL     1       7.684   9.268  17.756  0.00  0.00    +0.000 C 
ATOM     15  N   UNL     1       8.155   8.252  17.106  0.00  0.00    +0.000 NA
BRANCH  14  18
ATOM     16  C   UNL     1      10.548  11.691  18.354  0.00  0.00    +0.000 A 
ATOM     17  C   UNL     1       9.804  10.505  18.260  0.00  0.00    +0.000 A 
ATOM     18  C   UNL     1       8.458  10.525  17.877  0.00  0.00    +0.000 A 
ATOM     19  C   UNL     1       7.838  11.740  17.585  0.00  0.00    +0.000 A 
ATOM     20  C   UNL     1       8.568  12.928  17.680  0.00  0.00    +0.000 A 
ATOM     21  C   UNL     1       9.916  12.905  18.062  0.00  0.00    +0.000 A 
BRANCH  16  23
ATOM     22  C   UNL     1      12.261  11.929  20.014  0.00  0.00    +0.000 C 
ATOM     23  O   UNL     1      11.845  11.477  18.734  0.00  0.00    +0.000 OA
ENDBRANCH  16  23
BRANCH  21  24
ATOM     24  O   UNL     1      10.585  14.095  18.139  0.00  0.00    +0.000 OA
ATOM     25  H   UNL     1      10.049  14.742  18.624  0.00  0.00    +0.000 HD
ENDBRANCH  21  24
ENDBRANCH  14  18
ENDBRANCH   1  15
TORSDOF 5
ENDMDL
MODEL 9
REMARK VINA RESULT:      -7.0      2.070      2.300
REMARK  Name = 
REMARK  6 active torsions:
REMARK  status: ('A' for Active; 'I' for Inactive)
REMARK    1  A    between atoms: C_1  and  O_2
REMARK    2  A    between atoms: O_2  and  C_3
REMARK    3  A    between atoms: C_5  and  C_6
REMARK    4  A    between atoms: N_7  and  N_8
REMARK    5  A    between atoms: C_9  and  C_11
REMARK    6  A    between atoms: C_22  and  O_23
REMARK                            x       y       z     vdW  Elec       q    Type
REMARK                         _______ _______ _______ _____ _____    ______ ____
ROOT
ATOM      1  N   UNL     1       6.494   6.817  16.902  0.00  0.00    +0.000 N 
ATOM      2  C   UNL     1       5.126   6.599  17.001  0.00  0.00    +0.000 C 
ATOM      3  O   UNL     1       4.256   7.444  17.165  0.00  0.00    +0.000 OA
ATOM      4  H   UNL     1       7.116   6.016  16.878  0.00  0.00    +0.000 HD
ENDROOT
BRANCH   2   5
ATOM      5  C   UNL     1       4.758   5.104  16.899  0.00  0.00    +0.000 C 
ATOM      6  O   UNL     1       5.014   4.534  15.841  0.00  0.00    +0.000 OA
ATOM      7  N   UNL     1       4.134   4.490  17.998  0.00  0.00    +0.000 N 
ATOM      8  C   UNL     1       4.018   3.035  18.004  0.00  0.00    +0.000 C 
ATOM      9  C   UNL     1       2.606   2.567  17.671  0.00  0.00    +0.000 C 
ATOM     10  C   UNL     1       1.634   2.649  18.846  0.00  0.00    +0.000 C 
ATOM     11  C   UNL     1       1.456   4.048  19.434  0.00  0.00    +0.000 C 
ATOM     12  C   UNL     1       2.715   4.577  20.116  0.00  0.00    +0.000 C 
ATOM     13  C   UNL     1       3.711   5.252  19.172  0.00  0.00    +0.000 C 
ENDBRANCH   2   5
BRANCH   1  15
ATOM     14  C   UNL     1       7.906   8.243  17.956  0.00  0.00    +0.000 C 
ATOM     15  N   UNL     1       6.982   8.081  17.063  0.00  0.00    +0.000 NA
BRANCH  14  18
ATOM     16  C   UNL     1       8.552  11.983  17.811  0.00  0.00    +0.000 A 
ATOM     17  C   UNL     1       8.038  10.708  17.530  0.00  0.00    +0.000 A 
ATOM     18  C   UNL     1       8.469   9.582  18.241  0.00  0.00    +0.000 A 
ATOM     19  C   UNL     1       9.427   9.722  19.246  0.00  0.00    +0.000 A 
ATOM     20  C   UNL     1       9.950  10.986  19.531  0.00  0.00    +0.000 A 
ATOM     21  C   UNL     1       9.515  12.112  18.819  0.00  0.00    +0.000 A 
BRANCH  16  23
ATOM     22  C   UNL     1       7.038  13.829  17.590  0.00  0.00    +0.000 C 
ATOM     23  O   UNL     1       8.009  12.962  17.023  0.00  0.00    +0.000 OA
ENDBRANCH  16  23
BRANCH  21  24
ATOM     24  O   UNL     1      10.056  13.326  19.138  0.00  0.00    +0.000 OA
ATOM     25  H   UNL     1      10.763  13.207  19.792  0.00  0.00    +0.000 HD
ENDBRANCH  21  24
ENDBRANCH  14  18
ENDBRANCH   1  15
TORSDOF 5
ENDMDL
