MODEL 1
REMARK VINA RESULT:      -7.6      0.000      0.000
REMARK  Name = 
REMARK  4 active torsions:
REMARK  status: ('A' for Active; 'I' for Inactive)
REMARK    1  A    between atoms: N_1  and  C_2
REMARK    2  A    between atoms: C_7  and  C_8
REMARK    3  A    between atoms: C_8  and  C_10
REMARK    4  A    between atoms: C_11  and  C_12
REMARK                            x       y       z     vdW  Elec       q    Type
REMARK                         _______ _______ _______ _____ _____    ______ ____
ROOT
ATOM      1  C   UNL     1       4.836   6.385  16.771  0.00  0.00    +0.000 C 
ATOM      2  O   UNL     1       4.796   5.698  15.747  0.00  0.00    +0.000 OA
ENDROOT
BRANCH   1   8
ATOM      3  C   UNL     1       6.486   5.327  18.510  0.00  0.00    +0.000 A 
ATOM      4  C   UNL     1       7.646   5.540  19.290  0.00  0.00    +0.000 A 
ATOM      5  C   UNL     1       8.439   6.679  19.134  0.00  0.00    +0.000 A 
ATOM      6  C   UNL     1       8.085   7.636  18.200  0.00  0.00    +0.000 A 
ATOM      7  C   UNL     1       6.922   7.463  17.448  0.00  0.00    +0.000 A 
ATOM      8  C   UNL     1       6.085   6.337  17.607  0.00  0.00    +0.000 A 
BRANCH   3   9
ATOM      9  N   UNL     1       5.785   4.124  18.738  0.00  0.00    +0.000 N 
ATOM     10  H   UNL     1       5.533   3.991  19.715  0.00  0.00    +0.000 HD
ATOM     11  H   UNL     1       6.292   3.309  18.396  0.00  0.00    +0.000 HD
ENDBRANCH   3   9
ENDBRANCH   1   8
BRANCH   1  12
ATOM     12  C   UNL     1       3.698   7.282  17.139  0.00  0.00    +0.000 C 
ATOM     13  C   UNL     1       2.660   6.950  17.941  0.00  0.00    +0.000 C 
BRANCH  13  14
ATOM     14  C   UNL     1       2.393   5.627  18.519  0.00  0.00    +0.000 A 
ATOM     15  C   UNL     1       1.872   4.572  17.739  0.00  0.00    +0.000 A 
ATOM     16  C   UNL     1       1.491   3.363  18.337  0.00  0.00    +0.000 A 
ATOM     17  C   UNL     1       1.667   3.236  19.698  0.00  0.00    +0.000 A 
ATOM     18  C   UNL     1       2.226   4.243  20.450  0.00  0.00    +0.000 A 
ATOM     19  C   UNL     1       2.605   5.445  19.892  0.00  0.00    +0.000 A 
ATOM     20  O   UNL     1       2.309   3.921  21.769  0.00  0.00    +0.000 OA
ATOM     21  C   UNL     1       1.681   2.624  21.769  0.00  0.00    +0.000 C 
ATOM     22  O   UNL     1       1.310   2.163  20.452  0.00  0.00    +0.000 OA
ENDBRANCH  13  14
ENDBRANCH   1  12
TORSDOF 4
ENDMDL
MODEL 2
REMARK VINA RESULT:      -7.6      3.311      4.370
REMARK  Name = 
REMARK  4 active torsions:
REMARK  status: ('A' for Active; 'I' for Inactive)
REMARK    1  A    between atoms: N_1  and  C_2
REMARK    2  A    between atoms: C_7  and  C_8
REMARK    3  A    between atoms: C_8  and  C_10
REMARK    4  A    between atoms: C_11  and  C_12
REMARK                            x       y       z     vdW  Elec       q    Type
REMARK                         _______ _______ _______ _____ _____    ______ ____
ROOT
ATOM      1  C   UNL     1       7.063   5.324  16.000  0.00  0.00    +0.000 C 
ATOM      2  O   UNL     1       7.775   4.687  16.780  0.00  0.00    +0.000 OA
ENDROOT
BRANCH   1   8
ATOM      3  C   UNL     1       7.650   5.074  13.460  0.00  0.00    +0.000 A 
ATOM      4  C   UNL     1       7.227   4.551  12.216  0.00  0.00    +0.000 A 
ATOM      5  C   UNL     1       6.124   3.701  12.110  0.00  0.00    +0.000 A 
ATOM      6  C   UNL     1       5.411   3.362  13.247  0.00  0.00    +0.000 A 
ATOM      7  C   UNL     1       5.788   3.901  14.478  0.00  0.00    +0.000 A 
ATOM      8  C   UNL     1       6.880   4.786  14.609  0.00  0.00    +0.000 A 
BRANCH   3   9
ATOM      9  N   UNL     1       8.796   5.896  13.441  0.00  0.00    +0.000 N 
ATOM     10  H   UNL     1       9.167   6.039  12.505  0.00  0.00    +0.000 HD
ATOM     11  H   UNL     1       9.531   5.551  14.057  0.00  0.00    +0.000 HD
ENDBRANCH   3   9
ENDBRANCH   1   8
BRANCH   1  12
ATOM     12  C   UNL     1       6.358   6.565  16.445  0.00  0.00    +0.000 C 
ATOM     13  C   UNL     1       5.341   6.618  17.337  0.00  0.00    +0.000 C 
BRANCH  13  14
ATOM     14  C   UNL     1       4.667   5.473  17.959  0.00  0.00    +0.000 A 
ATOM     15  C   UNL     1       5.276   4.730  18.993  0.00  0.00    +0.000 A 
ATOM     16  C   UNL     1       4.680   3.557  19.477  0.00  0.00    +0.000 A 
ATOM     17  C   UNL     1       3.476   3.175  18.926  0.00  0.00    +0.000 A 
ATOM     18  C   UNL     1       2.854   3.928  17.957  0.00  0.00    +0.000 A 
ATOM     19  C   UNL     1       3.418   5.082  17.458  0.00  0.00    +0.000 A 
ATOM     20  O   UNL     1       1.680   3.378  17.545  0.00  0.00    +0.000 OA
ATOM     21  C   UNL     1       1.666   2.163  18.320  0.00  0.00    +0.000 C 
ATOM     22  O   UNL     1       2.781   2.047  19.230  0.00  0.00    +0.000 OA
ENDBRANCH  13  14
ENDBRANCH   1  12
TORSDOF 4
ENDMDL
MODEL 3
REMARK VINA RESULT:      -7.5      2.220      6.281
REMARK  Name = 
REMARK  4 active torsions:
REMARK  status: ('A' for Active; 'I' for Inactive)
REMARK    1  A    between atoms: N_1  and  C_2
REMARK    2  A    between atoms: C_7  and  C_8
REMARK    3  A    between atoms: C_8  and  C_10
REMARK    4  A    between atoms: C_11  and  C_12
REMARK                            x       y       z     vdW  Elec       q    Type
REMARK                         _______ _______ _______ _____ _____    ______ ____
ROOT
ATOM      1  C   UNL     1       3.202   4.904  17.740  0.00  0.00    +0.000 C 
ATOM      2  O   UNL     1       3.099   6.125  17.592  0.00  0.00    +0.000 OA
ENDROOT
BRANCH   1   8
ATOM      3  C   UNL     1       2.292   4.861  20.196  0.00  0.00    +0.000 A 
ATOM      4  C   UNL     1       1.759   4.048  21.223  0.00  0.00    +0.000 A 
ATOM      5  C   UNL     1       1.399   2.718  20.998  0.00  0.00    +0.000 A 
ATOM      6  C   UNL     1       1.572   2.166  19.741  0.00  0.00    +0.000 A 
ATOM      7  C   UNL     1       2.134   2.939  18.724  0.00  0.00    +0.000 A 
ATOM      8  C   UNL     1       2.536   4.277  18.933  0.00  0.00    +0.000 A 
BRANCH   3   9
ATOM      9  N   UNL     1       2.590   6.196  20.539  0.00  0.00    +0.000 N 
ATOM     10  H   UNL     1       2.321   6.431  21.492  0.00  0.00    +0.000 HD
ATOM     11  H   UNL     1       2.178   6.864  19.888  0.00  0.00    +0.000 HD
ENDBRANCH   3   9
ENDBRANCH   1   8
BRANCH   1  12
ATOM     12  C   UNL     1       3.921   4.068  16.731  0.00  0.00    +0.000 C 
ATOM     13  C   UNL     1       5.255   4.076  16.505  0.00  0.00    +0.000 C 
BRANCH  13  14
ATOM     14  C   UNL     1       6.238   4.973  17.125  0.00  0.00    +0.000 A 
ATOM     15  C   UNL     1       6.991   4.578  18.252  0.00  0.00    +0.000 A 
ATOM     16  C   UNL     1       7.818   5.494  18.915  0.00  0.00    +0.000 A 
ATOM     17  C   UNL     1       7.889   6.776  18.413  0.00  0.00    +0.000 A 
ATOM     18  C   UNL     1       7.199   7.147  17.283  0.00  0.00    +0.000 A 
ATOM     19  C   UNL     1       6.373   6.271  16.613  0.00  0.00    +0.000 A 
ATOM     20  O   UNL     1       7.400   8.451  16.956  0.00  0.00    +0.000 OA
ATOM     21  C   UNL     1       8.244   8.874  18.045  0.00  0.00    +0.000 C 
ATOM     22  O   UNL     1       8.593   7.806  18.951  0.00  0.00    +0.000 OA
ENDBRANCH  13  14
ENDBRANCH   1  12
TORSDOF 4
ENDMDL
MODEL 4
REMARK VINA RESULT:      -7.5      2.661      4.409
REMARK  Name = 
REMARK  4 active torsions:
REMARK  status: ('A' for Active; 'I' for Inactive)
REMARK    1  A    between atoms: N_1  and  C_2
REMARK    2  A    between atoms: C_7  and  C_8
REMARK    3  A    between atoms: C_8  and  C_10
REMARK    4  A    between atoms: C_11  and  C_12
REMARK                            x       y       z     vdW  Elec       q    Type
REMARK                         _______ _______ _______ _____ _____    ______ ____
ROOT
ATOM      1  C   UNL     1       4.900   3.849  18.477  0.00  0.00    +0.000 C 
ATOM      2  O   UNL     1       5.497   4.028  19.542  0.00  0.00    +0.000 OA
ENDROOT
BRANCH   1   8
ATOM      3  C   UNL     1       7.000   4.440  17.027  0.00  0.00    +0.000 A 
ATOM      4  C   UNL     1       7.455   4.829  15.746  0.00  0.00    +0.000 A 
ATOM      5  C   UNL     1       6.602   4.866  14.641  0.00  0.00    +0.000 A 
ATOM      6  C   UNL     1       5.270   4.523  14.794  0.00  0.00    +0.000 A 
ATOM      7  C   UNL     1       4.792   4.175  16.058  0.00  0.00    +0.000 A 
ATOM      8  C   UNL     1       5.626   4.160  17.199  0.00  0.00    +0.000 A 
BRANCH   3   9
ATOM      9  N   UNL     1       7.963   4.414  18.057  0.00  0.00    +0.000 N 
ATOM     10  H   UNL     1       7.554   4.298  18.981  0.00  0.00    +0.000 HD
ATOM     11  H   UNL     1       8.566   5.236  18.045  0.00  0.00    +0.000 HD
ENDBRANCH   3   9
ENDBRANCH   1   8
BRANCH   1  12
ATOM     12  C   UNL     1       3.515   3.286  18.460  0.00  0.00    +0.000 C 
ATOM     13  C   UNL     1       2.373   3.994  18.625  0.00  0.00    +0.000 C 
BRANCH  13  14
ATOM     14  C   UNL     1       2.272   5.421  18.953  0.00  0.00    +0.000 A 
ATOM     15  C   UNL     1       1.942   5.857  20.254  0.00  0.00    +0.000 A 
ATOM     16  C   UNL     1       1.712   7.215  20.515  0.00  0.00    +0.000 A 
ATOM     17  C   UNL     1       1.844   8.101  19.468  0.00  0.00    +0.000 A 
ATOM     18  C   UNL     1       2.220   7.684  18.213  0.00  0.00    +0.000 A 
ATOM     19  C   UNL     1       2.448   6.356  17.924  0.00  0.00    +0.000 A 
ATOM     20  O   UNL     1       2.291   8.711  17.324  0.00  0.00    +0.000 OA
ATOM     21  C   UNL     1       1.855   9.810  18.148  0.00  0.00    +0.000 C 
ATOM     22  O   UNL     1       1.610   9.439  19.521  0.00  0.00    +0.000 OA
ENDBRANCH  13  14
ENDBRANCH   1  12
TORSDOF 4
ENDMDL
MODEL 5
REMARK VINA RESULT:      -7.5      3.308      4.496
REMARK  Name = 
REMARK  4 active torsions:
REMARK  status: ('A' for Active; 'I' for Inactive)
REMARK    1  A    between atoms: N_1  and  C_2
REMARK    2  A    between atoms: C_7  and  C_8
REMARK    3  A    between atoms: C_8  and  C_10
REMARK    4  A    between atoms: C_11  and  C_12
REMARK                            x       y       z     vdW  Elec       q    Type
REMARK                         _______ _______ _______ _____ _____    ______ ____
ROOT
ATOM      1  C   UNL     1       6.375   5.571  15.634  0.00  0.00    +0.000 C 
ATOM      2  O   UNL     1       5.689   6.596  15.688  0.00  0.00    +0.000 OA
ENDROOT
BRANCH   1   8
ATOM      3  C   UNL     1       7.510   5.017  13.340  0.00  0.00    +0.000 A 
ATOM      4  C   UNL     1       7.364   4.348  12.102  0.00  0.00    +0.000 A 
ATOM      5  C   UNL     1       6.289   3.492  11.850  0.00  0.00    +0.000 A 
ATOM      6  C   UNL     1       5.331   3.293  12.828  0.00  0.00    +0.000 A 
ATOM      7  C   UNL     1       5.435   3.975  14.040  0.00  0.00    +0.000 A 
ATOM      8  C   UNL     1       6.494   4.870  14.310  0.00  0.00    +0.000 A 
BRANCH   3   9
ATOM      9  N   UNL     1       8.653   5.831  13.485  0.00  0.00    +0.000 N 
ATOM     10  H   UNL     1       9.332   5.449  14.139  0.00  0.00    +0.000 HD
ATOM     11  H   UNL     1       8.417   6.787  13.747  0.00  0.00    +0.000 HD
ENDBRANCH   3   9
ENDBRANCH   1   8
BRANCH   1  12
ATOM     12  C   UNL     1       7.110   5.076  16.837  0.00  0.00    +0.000 C 
ATOM     13  C   UNL     1       6.541   4.576  17.959  0.00  0.00    +0.000 C 
BRANCH  13  14
ATOM     14  C   UNL     1       5.105   4.518  18.257  0.00  0.00    +0.000 A 
ATOM     15  C   UNL     1       4.475   5.499  19.052  0.00  0.00    +0.000 A 
ATOM     16  C   UNL     1       3.137   5.351  19.442  0.00  0.00    +0.000 A 
ATOM     17  C   UNL     1       2.459   4.235  19.001  0.00  0.00    +0.000 A 
ATOM     18  C   UNL     1       3.055   3.307  18.180  0.00  0.00    +0.000 A 
ATOM     19  C   UNL     1       4.370   3.421  17.785  0.00  0.00    +0.000 A 
ATOM     20  O   UNL     1       2.219   2.283  17.861  0.00  0.00    +0.000 OA
ATOM     21  C   UNL     1       1.051   2.641  18.627  0.00  0.00    +0.000 C 
ATOM     22  O   UNL     1       1.181   3.901  19.319  0.00  0.00    +0.000 OA
ENDBRANCH  13  14
ENDBRANCH   1  12
TORSDOF 4
ENDMDL
MODEL 6
REMARK VINA RESULT:      -7.4      2.649      5.387
REMARK  Name = 
REMARK  4 active torsions:
REMARK  status: ('A' for Active; 'I' for Inactive)
REMARK    1  A    between atoms: N_1  and  C_2
REMARK    2  A    between atoms: C_7  and  C_8
REMARK    3  A    between atoms: C_8  and  C_10
REMARK    4  A    between atoms: C_11  and  C_12
REMARK                            x       y       z     vdW  Elec       q    Type
REMARK                         _______ _______ _______ _____ _____    ______ ____
ROOT
ATOM      1  C   UNL     1       2.948   3.535  17.572  0.00  0.00    +0.000 C 
ATOM      2  O   UNL     1       2.142   3.162  16.715  0.00  0.00    +0.000 OA
ENDROOT
BRANCH   1   8
ATOM      3  C   UNL     1       3.507   2.737  20.004  0.00  0.00    +0.000 A 
ATOM      4  C   UNL     1       2.972   2.414  21.273  0.00  0.00    +0.000 A 
ATOM      5  C   UNL     1       1.633   2.653  21.590  0.00  0.00    +0.000 A 
ATOM      6  C   UNL     1       0.795   3.212  20.642  0.00  0.00    +0.000 A 
ATOM      7  C   UNL     1       1.294   3.500  19.370  0.00  0.00    +0.000 A 
ATOM      8  C   UNL     1       2.635   3.240  19.013  0.00  0.00    +0.000 A 
BRANCH   3   9
ATOM      9  N   UNL     1       4.880   2.476  19.814  0.00  0.00    +0.000 N 
ATOM     10  H   UNL     1       5.078   2.011  18.931  0.00  0.00    +0.000 HD
ATOM     11  H   UNL     1       5.284   1.945  20.585  0.00  0.00    +0.000 HD
ENDBRANCH   3   9
ENDBRANCH   1   8
BRANCH   1  12
ATOM     12  C   UNL     1       4.224   4.210  17.184  0.00  0.00    +0.000 C 
ATOM     13  C   UNL     1       4.560   5.488  17.474  0.00  0.00    +0.000 C 
BRANCH  13  14
ATOM     14  C   UNL     1       3.707   6.487  18.130  0.00  0.00    +0.000 A 
ATOM     15  C   UNL     1       3.219   6.295  19.440  0.00  0.00    +0.000 A 
ATOM     16  C   UNL     1       2.294   7.188  19.996  0.00  0.00    +0.000 A 
ATOM     17  C   UNL     1       1.902   8.265  19.230  0.00  0.00    +0.000 A 
ATOM     18  C   UNL     1       2.419   8.484  17.974  0.00  0.00    +0.000 A 
ATOM     19  C   UNL     1       3.326   7.620  17.399  0.00  0.00    +0.000 A 
ATOM     20  O   UNL     1       1.902   9.596  17.386  0.00  0.00    +0.000 OA
ATOM     21  C   UNL     1       0.955  10.015  18.389  0.00  0.00    +0.000 C 
ATOM     22  O   UNL     1       0.980   9.201  19.580  0.00  0.00    +0.000 OA
ENDBRANCH  13  14
ENDBRANCH   1  12
TORSDOF 4
ENDMDL
MODEL 7
REMARK VINA RESULT:      -7.4      2.584      5.052
REMARK  Name = 
REMARK  4 active torsions:
REMARK  status: ('A' for Active; 'I' for Inactive)
REMARK    1  A    between atoms: N_1  and  C_2
REMARK    2  A    between atoms: C_7  and  C_8
REMARK    3  A    between atoms: C_8  and  C_10
REMARK    4  A    between atoms: C_11  and  C_12
REMARK                            x       y       z     vdW  Elec       q    Type
REMARK                         _______ _______ _______ _____ _____    ______ ____
ROOT
ATOM      1  C   UNL     1       2.945   4.028  17.661  0.00  0.00    +0.000 C 
ATOM      2  O   UNL     1       2.203   3.640  16.755  0.00  0.00    +0.000 OA
ENDROOT
BRANCH   1   8
ATOM      3  C   UNL     1       3.543   2.920  19.959  0.00  0.00    +0.000 A 
ATOM      4  C   UNL     1       3.031   2.447  21.189  0.00  0.00    +0.000 A 
ATOM      5  C   UNL     1       1.703   2.663  21.566  0.00  0.00    +0.000 A 
ATOM      6  C   UNL     1       0.854   3.350  20.716  0.00  0.00    +0.000 A 
ATOM      7  C   UNL     1       1.330   3.789  19.479  0.00  0.00    +0.000 A 
ATOM      8  C   UNL     1       2.659   3.557  19.060  0.00  0.00    +0.000 A 
BRANCH   3   9
ATOM      9  N   UNL     1       4.907   2.665  19.705  0.00  0.00    +0.000 N 
ATOM     10  H   UNL     1       5.423   3.499  19.435  0.00  0.00    +0.000 HD
ATOM     11  H   UNL     1       5.041   1.933  19.008  0.00  0.00    +0.000 HD
ENDBRANCH   3   9
ENDBRANCH   1   8
BRANCH   1  12
ATOM     12  C   UNL     1       4.127   4.894  17.367  0.00  0.00    +0.000 C 
ATOM     13  C   UNL     1       4.222   6.217  17.637  0.00  0.00    +0.000 C 
BRANCH  13  14
ATOM     14  C   UNL     1       3.159   7.077  18.170  0.00  0.00    +0.000 A 
ATOM     15  C   UNL     1       2.570   8.093  17.388  0.00  0.00    +0.000 A 
ATOM     16  C   UNL     1       1.659   8.994  17.956  0.00  0.00    +0.000 A 
ATOM     17  C   UNL     1       1.343   8.833  19.288  0.00  0.00    +0.000 A 
ATOM     18  C   UNL     1       1.874   7.809  20.037  0.00  0.00    +0.000 A 
ATOM     19  C   UNL     1       2.776   6.912  19.508  0.00  0.00    +0.000 A 
ATOM     20  O   UNL     1       1.439   7.828  21.325  0.00  0.00    +0.000 OA
ATOM     21  C   UNL     1       0.625   9.018  21.317  0.00  0.00    +0.000 C 
ATOM     22  O   UNL     1       0.525   9.638  20.017  0.00  0.00    +0.000 OA
ENDBRANCH  13  14
ENDBRANCH   1  12
TORSDOF 4
ENDMDL
MODEL 8
REMARK VINA RESULT:      -7.4      2.762      6.545
REMARK  Name = 
REMARK  4 active torsions:
REMARK  status: ('A' for Active; 'I' for Inactive)
REMARK    1  A    between atoms: N_1  and  C_2
REMARK    2  A    between atoms: C_7  and  C_8
REMARK    3  A    between atoms: C_8  and  C_10
REMARK    4  A    between atoms: C_11  and  C_12
REMARK                            x       y       z     vdW  Elec       q    Type
REMARK                         _______ _______ _______ _____ _____    ______ ____
ROOT
ATOM      1  C   UNL     1       4.025   5.582  18.631  0.00  0.00    +0.000 C 
ATOM      2  O   UNL     1       3.854   6.562  17.902  0.00  0.00    +0.000 OA
ENDROOT
BRANCH   1   8
ATOM      3  C   UNL     1       1.993   4.942  20.155  0.00  0.00    +0.000 A 
ATOM      4  C   UNL     1       0.979   3.986  20.398  0.00  0.00    +0.000 A 
ATOM      5  C   UNL     1       0.728   2.936  19.512  0.00  0.00    +0.000 A 
ATOM      6  C   UNL     1       1.493   2.811  18.366  0.00  0.00    +0.000 A 
ATOM      7  C   UNL     1       2.525   3.720  18.129  0.00  0.00    +0.000 A 
ATOM      8  C   UNL     1       2.820   4.773  19.022  0.00  0.00    +0.000 A 
BRANCH   3   9
ATOM      9  N   UNL     1       2.129   5.973  21.107  0.00  0.00    +0.000 N 
ATOM     10  H   UNL     1       2.684   6.755  20.769  0.00  0.00    +0.000 HD
ATOM     11  H   UNL     1       2.507   5.635  21.992  0.00  0.00    +0.000 HD
ENDBRANCH   3   9
ENDBRANCH   1   8
BRANCH   1  12
ATOM     12  C   UNL     1       5.397   5.180  19.066  0.00  0.00    +0.000 C 
ATOM     13  C   UNL     1       6.409   4.811  18.245  0.00  0.00    +0.000 C 
BRANCH  13  14
ATOM     14  C   UNL     1       6.330   4.635  16.790  0.00  0.00    +0.000 A 
ATOM     15  C   UNL     1       5.439   3.710  16.205  0.00  0.00    +0.000 A 
ATOM     16  C   UNL     1       5.478   3.454  14.828  0.00  0.00    +0.000 A 
ATOM     17  C   UNL     1       6.393   4.153  14.070  0.00  0.00    +0.000 A 
ATOM     18  C   UNL     1       7.224   5.095  14.630  0.00  0.00    +0.000 A 
ATOM     19  C   UNL     1       7.213   5.365  15.982  0.00  0.00    +0.000 A 
ATOM     20  O   UNL     1       8.051   5.668  13.716  0.00  0.00    +0.000 OA
ATOM     21  C   UNL     1       7.690   4.933  12.529  0.00  0.00    +0.000 C 
ATOM     22  O   UNL     1       6.608   3.999  12.737  0.00  0.00    +0.000 OA
ENDBRANCH  13  14
ENDBRANCH   1  12
TORSDOF 4
ENDMDL
MODEL 9
REMARK VINA RESULT:      -7.3      2.095      5.259
REMARK  Name = 
REMARK  4 active torsions:
REMARK  status: ('A' for Active; 'I' for Inactive)
REMARK    1  A    between atoms: N_1  and  C_2
REMARK    2  A    between atoms: C_7  and  C_8
REMARK    3  A    between atoms: C_8  and  C_10
REMARK    4  A    between atoms: C_11  and  C_12
REMARK                            x       y       z     vdW  Elec       q    Type
REMARK                         _______ _______ _______ _____ _____    ______ ____
ROOT
ATOM      1  C   UNL     1       1.832   4.905  18.110  0.00  0.00    +0.000 C 
ATOM      2  O   UNL     1       1.344   4.353  17.121  0.00  0.00    +0.000 OA
ENDROOT
BRANCH   1   8
ATOM      3  C   UNL     1       3.339   3.049  19.180  0.00  0.00    +0.000 A 
ATOM      4  C   UNL     1       3.568   2.257  20.329  0.00  0.00    +0.000 A 
ATOM      5  C   UNL     1       2.883   2.480  21.526  0.00  0.00    +0.000 A 
ATOM      6  C   UNL     1       1.944   3.495  21.597  0.00  0.00    +0.000 A 
ATOM      7  C   UNL     1       1.675   4.260  20.462  0.00  0.00    +0.000 A 
ATOM      8  C   UNL     1       2.331   4.037  19.231  0.00  0.00    +0.000 A 
BRANCH   3   9
ATOM      9  N   UNL     1       4.115   2.746  18.042  0.00  0.00    +0.000 N 
ATOM     10  H   UNL     1       3.831   1.882  17.586  0.00  0.00    +0.000 HD
ATOM     11  H   UNL     1       5.113   2.717  18.249  0.00  0.00    +0.000 HD
ENDBRANCH   3   9
ENDBRANCH   1   8
BRANCH   1  12
ATOM     12  C   UNL     1       1.974   6.392  18.167  0.00  0.00    +0.000 C 
ATOM     13  C   UNL     1       3.087   7.091  17.840  0.00  0.00    +0.000 C 
BRANCH  13  14
ATOM     14  C   UNL     1       4.391   6.530  17.470  0.00  0.00    +0.000 A 
ATOM     15  C   UNL     1       4.749   6.320  16.121  0.00  0.00    +0.000 A 
ATOM     16  C   UNL     1       5.937   5.654  15.792  0.00  0.00    +0.000 A 
ATOM     17  C   UNL     1       6.748   5.240  16.827  0.00  0.00    +0.000 A 
ATOM     18  C   UNL     1       6.428   5.493  18.140  0.00  0.00    +0.000 A 
ATOM     19  C   UNL     1       5.264   6.140  18.494  0.00  0.00    +0.000 A 
ATOM     20  O   UNL     1       7.355   5.001  19.005  0.00  0.00    +0.000 OA
ATOM     21  C   UNL     1       8.260   4.354  18.089  0.00  0.00    +0.000 C 
ATOM     22  O   UNL     1       7.905   4.537  16.702  0.00  0.00    +0.000 OA
ENDBRANCH  13  14
ENDBRANCH   1  12
TORSDOF 4
ENDMDL
