MODEL 1
REMARK VINA RESULT:      -7.9      0.000      0.000
REMARK  Name = 
REMARK  6 active torsions:
REMARK  status: ('A' for Active; 'I' for Inactive)
REMARK    1  A    between atoms: N_1  and  C_2
REMARK    2  A    between atoms: C_2  and  C_3
REMARK    3  A    between atoms: C_5  and  O_6
REMARK    4  A    between atoms: O_6  and  C_7
REMARK    5  A    between atoms: C_11  and  C_12
REMARK    6  A    between atoms: N_14  and  C_15
REMARK                            x       y       z     vdW  Elec       q    Type
REMARK                         _______ _______ _______ _____ _____    ______ ____
ROOT
ATOM      1  C   UNL     1       3.262   4.922  18.648  0.00  0.00    +0.000 A 
ATOM      2  C   UNL     1       2.924   4.622  19.968  0.00  0.00    +0.000 A 
ATOM      3  C   UNL     1       2.250   5.557  20.746  0.00  0.00    +0.000 A 
ATOM      4  C   UNL     1       1.925   6.798  20.203  0.00  0.00    +0.000 A 
ATOM      5  C   UNL     1       2.232   7.110  18.868  0.00  0.00    +0.000 A 
ATOM      6  C   UNL     1       2.864   6.143  18.078  0.00  0.00    +0.000 A 
ENDROOT
BRANCH   5   7
ATOM      7  C   UNL     1       1.926   8.502  18.399  0.00  0.00    +0.000 C 
ATOM      8  O   UNL     1       2.328   8.811  17.278  0.00  0.00    +0.000 OA
ATOM      9  N   UNL     1       1.222   9.338  19.250  0.00  0.00    +0.000 N 
ATOM     10  H   UNL     1       1.119   9.077  20.217  0.00  0.00    +0.000 HD
BRANCH   9  11
ATOM     11  C   UNL     1       0.743  10.631  18.919  0.00  0.00    +0.000 A 
ATOM     12  C   UNL     1       1.561  11.765  18.874  0.00  0.00    +0.000 A 
ATOM     13  C   UNL     1       1.028  13.022  18.577  0.00  0.00    +0.000 A 
ATOM     14  C   UNL     1      -0.330  13.158  18.314  0.00  0.00    +0.000 A 
ATOM     15  C   UNL     1      -1.151  12.032  18.324  0.00  0.00    +0.000 A 
ATOM     16  C   UNL     1      -0.615  10.773  18.616  0.00  0.00    +0.000 A 
ENDBRANCH   9  11
ENDBRANCH   5   7
BRANCH   1  17
ATOM     17  O   UNL     1       3.956   3.941  17.976  0.00  0.00    +0.000 OA
BRANCH  17  20
ATOM     18  C   UNL     1       6.711   4.522  15.664  0.00  0.00    +0.000 A 
ATOM     19  C   UNL     1       5.405   4.330  16.066  0.00  0.00    +0.000 A 
ATOM     20  C   UNL     1       5.188   4.219  17.425  0.00  0.00    +0.000 A 
ATOM     21  N   UNL     1       6.159   4.404  18.335  0.00  0.00    +0.000 NA
ATOM     22  C   UNL     1       7.379   4.653  17.846  0.00  0.00    +0.000 A 
ATOM     23  N   UNL     1       7.716   4.695  16.548  0.00  0.00    +0.000 NA
BRANCH  18  24
ATOM     24  C   UNL     1       7.069   4.475  14.194  0.00  0.00    +0.000 C 
BRANCH  24  25
ATOM     25  N   UNL     1       6.192   3.594  13.422  0.00  0.00    +0.000 NA
ATOM     26  H   UNL     1       6.759   2.852  13.010  0.00  0.00    +0.000 HD
ATOM     27  H   UNL     1       5.818   4.125  12.637  0.00  0.00    +0.000 HD
ENDBRANCH  24  25
ENDBRANCH  18  24
ENDBRANCH  17  20
ENDBRANCH   1  17
TORSDOF 6
ENDMDL
MODEL 2
REMARK VINA RESULT:      -7.8      2.079      2.537
REMARK  Name = 
REMARK  6 active torsions:
REMARK  status: ('A' for Active; 'I' for Inactive)
REMARK    1  A    between atoms: N_1  and  C_2
REMARK    2  A    between atoms: C_2  and  C_3
REMARK    3  A    between atoms: C_5  and  O_6
REMARK    4  A    between atoms: O_6  and  C_7
REMARK    5  A    between atoms: C_11  and  C_12
REMARK    6  A    between atoms: N_14  and  C_15
REMARK                            x       y       z     vdW  Elec       q    Type
REMARK                         _______ _______ _______ _____ _____    ______ ____
ROOT
ATOM      1  C   UNL     1       3.778   4.038  19.715  0.00  0.00    +0.000 A 
ATOM      2  C   UNL     1       2.825   3.093  20.096  0.00  0.00    +0.000 A 
ATOM      3  C   UNL     1       1.557   3.502  20.496  0.00  0.00    +0.000 A 
ATOM      4  C   UNL     1       1.249   4.861  20.524  0.00  0.00    +0.000 A 
ATOM      5  C   UNL     1       2.186   5.826  20.118  0.00  0.00    +0.000 A 
ATOM      6  C   UNL     1       3.441   5.401  19.668  0.00  0.00    +0.000 A 
ENDROOT
BRANCH   5   7
ATOM      7  C   UNL     1       1.797   7.267  20.271  0.00  0.00    +0.000 C 
ATOM      8  O   UNL     1       2.054   8.013  19.327  0.00  0.00    +0.000 OA
ATOM      9  N   UNL     1       1.183   7.658  21.449  0.00  0.00    +0.000 N 
ATOM     10  H   UNL     1       1.203   7.034  22.240  0.00  0.00    +0.000 HD
BRANCH   9  11
ATOM     11  C   UNL     1       0.641   8.942  21.705  0.00  0.00    +0.000 A 
ATOM     12  C   UNL     1      -0.192   9.222  22.794  0.00  0.00    +0.000 A 
ATOM     13  C   UNL     1      -0.728  10.499  22.978  0.00  0.00    +0.000 A 
ATOM     14  C   UNL     1      -0.431  11.515  22.077  0.00  0.00    +0.000 A 
ATOM     15  C   UNL     1       0.423  11.259  21.005  0.00  0.00    +0.000 A 
ATOM     16  C   UNL     1       0.965   9.981  20.826  0.00  0.00    +0.000 A 
ENDBRANCH   9  11
ENDBRANCH   5   7
BRANCH   1  17
ATOM     17  O   UNL     1       5.010   3.531  19.368  0.00  0.00    +0.000 OA
BRANCH  17  20
ATOM     18  C   UNL     1       6.635   4.815  16.370  0.00  0.00    +0.000 A 
ATOM     19  C   UNL     1       5.692   4.139  17.118  0.00  0.00    +0.000 A 
ATOM     20  C   UNL     1       5.819   4.218  18.491  0.00  0.00    +0.000 A 
ATOM     21  N   UNL     1       6.730   5.002  19.093  0.00  0.00    +0.000 NA
ATOM     22  C   UNL     1       7.554   5.672  18.280  0.00  0.00    +0.000 A 
ATOM     23  N   UNL     1       7.575   5.599  16.941  0.00  0.00    +0.000 NA
BRANCH  18  24
ATOM     24  C   UNL     1       6.683   4.640  14.869  0.00  0.00    +0.000 C 
BRANCH  24  25
ATOM     25  N   UNL     1       7.719   5.453  14.232  0.00  0.00    +0.000 NA
ATOM     26  H   UNL     1       8.631   5.062  14.470  0.00  0.00    +0.000 HD
ATOM     27  H   UNL     1       7.698   6.382  14.652  0.00  0.00    +0.000 HD
ENDBRANCH  24  25
ENDBRANCH  18  24
ENDBRANCH  17  20
ENDBRANCH   1  17
TORSDOF 6
ENDMDL
MODEL 3
REMARK VINA RESULT:      -7.8      2.134      3.053
REMARK  Name = 
REMARK  6 active torsions:
REMARK  status: ('A' for Active; 'I' for Inactive)
REMARK    1  A    between atoms: N_1  and  C_2
REMARK    2  A    between atoms: C_2  and  C_3
REMARK    3  A    between atoms: C_5  and  O_6
REMARK    4  A    between atoms: O_6  and  C_7
REMARK    5  A    between atoms: C_11  and  C_12
REMARK    6  A    between atoms: N_14  and  C_15
REMARK                            x       y       z     vdW  Elec       q    Type
REMARK                         _______ _______ _______ _____ _____    ______ ____
ROOT
ATOM      1  C   UNL     1       3.157   4.203  18.760  0.00  0.00    +0.000 A 
ATOM      2  C   UNL     1       2.797   3.307  19.768  0.00  0.00    +0.000 A 
ATOM      3  C   UNL     1       2.062   3.748  20.864  0.00  0.00    +0.000 A 
ATOM      4  C   UNL     1       1.697   5.090  20.953  0.00  0.00    +0.000 A 
ATOM      5  C   UNL     1       2.027   6.002  19.936  0.00  0.00    +0.000 A 
ATOM      6  C   UNL     1       2.721   5.537  18.813  0.00  0.00    +0.000 A 
ENDROOT
BRANCH   5   7
ATOM      7  C   UNL     1       1.673   7.441  20.163  0.00  0.00    +0.000 C 
ATOM      8  O   UNL     1       2.077   8.250  19.329  0.00  0.00    +0.000 OA
ATOM      9  N   UNL     1       0.926   7.762  21.284  0.00  0.00    +0.000 N 
ATOM     10  H   UNL     1       0.821   7.076  22.014  0.00  0.00    +0.000 HD
BRANCH   9  11
ATOM     11  C   UNL     1       0.402   9.045  21.582  0.00  0.00    +0.000 A 
ATOM     12  C   UNL     1       0.578  10.158  20.753  0.00  0.00    +0.000 A 
ATOM     13  C   UNL     1       0.069  11.409  21.113  0.00  0.00    +0.000 A 
ATOM     14  C   UNL     1      -0.628  11.559  22.306  0.00  0.00    +0.000 A 
ATOM     15  C   UNL     1      -0.838  10.453  23.127  0.00  0.00    +0.000 A 
ATOM     16  C   UNL     1      -0.334   9.199  22.762  0.00  0.00    +0.000 A 
ENDBRANCH   9  11
ENDBRANCH   5   7
BRANCH   1  17
ATOM     17  O   UNL     1       3.911   3.672  17.737  0.00  0.00    +0.000 OA
BRANCH  17  20
ATOM     18  C   UNL     1       7.213   5.168  18.108  0.00  0.00    +0.000 A 
ATOM     19  C   UNL     1       5.985   4.676  18.504  0.00  0.00    +0.000 A 
ATOM     20  C   UNL     1       5.193   4.126  17.516  0.00  0.00    +0.000 A 
ATOM     21  N   UNL     1       5.617   3.957  16.252  0.00  0.00    +0.000 NA
ATOM     22  C   UNL     1       6.848   4.405  15.984  0.00  0.00    +0.000 A 
ATOM     23  N   UNL     1       7.666   5.032  16.843  0.00  0.00    +0.000 NA
BRANCH  18  24
ATOM     24  C   UNL     1       8.070   5.946  19.081  0.00  0.00    +0.000 C 
BRANCH  24  25
ATOM     25  N   UNL     1       8.069   5.372  20.427  0.00  0.00    +0.000 NA
ATOM     26  H   UNL     1       7.437   4.571  20.438  0.00  0.00    +0.000 HD
ATOM     27  H   UNL     1       7.664   6.055  21.066  0.00  0.00    +0.000 HD
ENDBRANCH  24  25
ENDBRANCH  18  24
ENDBRANCH  17  20
ENDBRANCH   1  17
TORSDOF 6
ENDMDL
MODEL 4
REMARK VINA RESULT:      -7.7      0.999      2.136
REMARK  Name = 
REMARK  6 active torsions:
REMARK  status: ('A' for Active; 'I' for Inactive)
REMARK    1  A    between atoms: N_1  and  C_2
REMARK    2  A    between atoms: C_2  and  C_3
REMARK    3  A    between atoms: C_5  and  O_6
REMARK    4  A    between atoms: O_6  and  C_7
REMARK    5  A    between atoms: C_11  and  C_12
REMARK    6  A    between atoms: N_14  and  C_15
REMARK                            x       y       z     vdW  Elec       q    Type
REMARK                         _______ _______ _______ _____ _____    ______ ____
ROOT
ATOM      1  C   UNL     1       2.989   5.206  18.612  0.00  0.00    +0.000 A 
ATOM      2  C   UNL     1       2.558   4.853  19.892  0.00  0.00    +0.000 A 
ATOM      3  C   UNL     1       1.861   5.771  20.671  0.00  0.00    +0.000 A 
ATOM      4  C   UNL     1       1.607   7.046  20.171  0.00  0.00    +0.000 A 
ATOM      5  C   UNL     1       2.009   7.412  18.875  0.00  0.00    +0.000 A 
ATOM      6  C   UNL     1       2.664   6.464  18.080  0.00  0.00    +0.000 A 
ENDROOT
BRANCH   5   7
ATOM      7  C   UNL     1       1.774   8.833  18.458  0.00  0.00    +0.000 C 
ATOM      8  O   UNL     1       2.227   9.173  17.366  0.00  0.00    +0.000 OA
ATOM      9  N   UNL     1       1.072   9.660  19.319  0.00  0.00    +0.000 N 
ATOM     10  H   UNL     1       0.925   9.362  20.270  0.00  0.00    +0.000 HD
BRANCH   9  11
ATOM     11  C   UNL     1       0.655  10.983  19.029  0.00  0.00    +0.000 A 
ATOM     12  C   UNL     1       1.483  12.101  19.182  0.00  0.00    +0.000 A 
ATOM     13  C   UNL     1       1.008  13.387  18.915  0.00  0.00    +0.000 A 
ATOM     14  C   UNL     1      -0.301  13.571  18.486  0.00  0.00    +0.000 A 
ATOM     15  C   UNL     1      -1.128  12.464  18.299  0.00  0.00    +0.000 A 
ATOM     16  C   UNL     1      -0.649  11.176  18.560  0.00  0.00    +0.000 A 
ENDBRANCH   9  11
ENDBRANCH   5   7
BRANCH   1  17
ATOM     17  O   UNL     1       3.698   4.237  17.938  0.00  0.00    +0.000 OA
BRANCH  17  20
ATOM     18  C   UNL     1       7.228   5.094  18.221  0.00  0.00    +0.000 A 
ATOM     19  C   UNL     1       5.927   4.897  18.639  0.00  0.00    +0.000 A 
ATOM     20  C   UNL     1       5.044   4.405  17.699  0.00  0.00    +0.000 A 
ATOM     21  N   UNL     1       5.429   4.017  16.471  0.00  0.00    +0.000 NA
ATOM     22  C   UNL     1       6.725   4.184  16.185  0.00  0.00    +0.000 A 
ATOM     23  N   UNL     1       7.648   4.732  16.990  0.00  0.00    +0.000 NA
BRANCH  18  24
ATOM     24  C   UNL     1       8.219   5.794  19.124  0.00  0.00    +0.000 C 
BRANCH  24  25
ATOM     25  N   UNL     1       8.143   5.342  20.513  0.00  0.00    +0.000 NA
ATOM     26  H   UNL     1       9.069   5.431  20.934  0.00  0.00    +0.000 HD
ATOM     27  H   UNL     1       7.933   4.345  20.513  0.00  0.00    +0.000 HD
ENDBRANCH  24  25
ENDBRANCH  18  24
ENDBRANCH  17  20
ENDBRANCH   1  17
TORSDOF 6
ENDMDL
MODEL 5
REMARK VINA RESULT:      -7.7      2.078      3.101
REMARK  Name = 
REMARK  6 active torsions:
REMARK  status: ('A' for Active; 'I' for Inactive)
REMARK    1  A    between atoms: N_1  and  C_2
REMARK    2  A    between atoms: C_2  and  C_3
REMARK    3  A    between atoms: C_5  and  O_6
REMARK    4  A    between atoms: O_6  and  C_7
REMARK    5  A    between atoms: C_11  and  C_12
REMARK    6  A    between atoms: N_14  and  C_15
REMARK                            x       y       z     vdW  Elec       q    Type
REMARK                         _______ _______ _______ _____ _____    ______ ____
ROOT
ATOM      1  C   UNL     1       3.216   3.898  18.921  0.00  0.00    +0.000 A 
ATOM      2  C   UNL     1       2.791   3.006  19.907  0.00  0.00    +0.000 A 
ATOM      3  C   UNL     1       2.005   3.457  20.962  0.00  0.00    +0.000 A 
ATOM      4  C   UNL     1       1.654   4.803  21.034  0.00  0.00    +0.000 A 
ATOM      5  C   UNL     1       2.049   5.711  20.037  0.00  0.00    +0.000 A 
ATOM      6  C   UNL     1       2.796   5.237  18.952  0.00  0.00    +0.000 A 
ENDROOT
BRANCH   5   7
ATOM      7  C   UNL     1       1.703   7.155  20.246  0.00  0.00    +0.000 C 
ATOM      8  O   UNL     1       2.265   7.972  19.518  0.00  0.00    +0.000 OA
ATOM      9  N   UNL     1       0.787   7.471  21.236  0.00  0.00    +0.000 N 
ATOM     10  H   UNL     1       0.540   6.770  21.915  0.00  0.00    +0.000 HD
BRANCH   9  11
ATOM     11  C   UNL     1       0.257   8.763  21.481  0.00  0.00    +0.000 A 
ATOM     12  C   UNL     1      -0.004   9.256  22.764  0.00  0.00    +0.000 A 
ATOM     13  C   UNL     1      -0.561  10.524  22.945  0.00  0.00    +0.000 A 
ATOM     14  C   UNL     1      -0.859  11.318  21.844  0.00  0.00    +0.000 A 
ATOM     15  C   UNL     1      -0.576  10.853  20.561  0.00  0.00    +0.000 A 
ATOM     16  C   UNL     1      -0.011   9.585  20.381  0.00  0.00    +0.000 A 
ENDBRANCH   9  11
ENDBRANCH   5   7
BRANCH   1  17
ATOM     17  O   UNL     1       4.016   3.357  17.939  0.00  0.00    +0.000 OA
BRANCH  17  20
ATOM     18  C   UNL     1       7.181   5.158  18.065  0.00  0.00    +0.000 A 
ATOM     19  C   UNL     1       6.062   4.514  18.552  0.00  0.00    +0.000 A 
ATOM     20  C   UNL     1       5.214   3.956  17.616  0.00  0.00    +0.000 A 
ATOM     21  N   UNL     1       5.501   3.923  16.303  0.00  0.00    +0.000 NA
ATOM     22  C   UNL     1       6.643   4.515  15.939  0.00  0.00    +0.000 A 
ATOM     23  N   UNL     1       7.493   5.160  16.751  0.00  0.00    +0.000 NA
BRANCH  18  24
ATOM     24  C   UNL     1       8.069   5.951  18.999  0.00  0.00    +0.000 C 
BRANCH  24  25
ATOM     25  N   UNL     1       7.992   5.491  20.386  0.00  0.00    +0.000 NA
ATOM     26  H   UNL     1       7.066   5.093  20.545  0.00  0.00    +0.000 HD
ATOM     27  H   UNL     1       8.052   6.306  20.996  0.00  0.00    +0.000 HD
ENDBRANCH  24  25
ENDBRANCH  18  24
ENDBRANCH  17  20
ENDBRANCH   1  17
TORSDOF 6
ENDMDL
MODEL 6
REMARK VINA RESULT:      -7.6      2.333      3.195
REMARK  Name = 
REMARK  6 active torsions:
REMARK  status: ('A' for Active; 'I' for Inactive)
REMARK    1  A    between atoms: N_1  and  C_2
REMARK    2  A    between atoms: C_2  and  C_3
REMARK    3  A    between atoms: C_5  and  O_6
REMARK    4  A    between atoms: O_6  and  C_7
REMARK    5  A    between atoms: C_11  and  C_12
REMARK    6  A    between atoms: N_14  and  C_15
REMARK                            x       y       z     vdW  Elec       q    Type
REMARK                         _______ _______ _______ _____ _____    ______ ____
ROOT
ATOM      1  C   UNL     1       4.153   4.347  19.514  0.00  0.00    +0.000 A 
ATOM      2  C   UNL     1       3.334   3.321  19.988  0.00  0.00    +0.000 A 
ATOM      3  C   UNL     1       2.066   3.611  20.482  0.00  0.00    +0.000 A 
ATOM      4  C   UNL     1       1.624   4.932  20.511  0.00  0.00    +0.000 A 
ATOM      5  C   UNL     1       2.423   5.976  20.014  0.00  0.00    +0.000 A 
ATOM      6  C   UNL     1       3.675   5.667  19.471  0.00  0.00    +0.000 A 
ENDROOT
BRANCH   5   7
ATOM      7  C   UNL     1       1.902   7.373  20.171  0.00  0.00    +0.000 C 
ATOM      8  O   UNL     1       1.958   8.102  19.182  0.00  0.00    +0.000 OA
ATOM      9  N   UNL     1       1.398   7.748  21.406  0.00  0.00    +0.000 N 
ATOM     10  H   UNL     1       1.582   7.165  22.206  0.00  0.00    +0.000 HD
BRANCH   9  11
ATOM     11  C   UNL     1       0.756   8.979  21.691  0.00  0.00    +0.000 A 
ATOM     12  C   UNL     1      -0.148   9.149  22.745  0.00  0.00    +0.000 A 
ATOM     13  C   UNL     1      -0.780  10.377  22.958  0.00  0.00    +0.000 A 
ATOM     14  C   UNL     1      -0.510  11.453  22.121  0.00  0.00    +0.000 A 
ATOM     15  C   UNL     1       0.412  11.308  21.086  0.00  0.00    +0.000 A 
ATOM     16  C   UNL     1       1.049  10.080  20.878  0.00  0.00    +0.000 A 
ENDBRANCH   9  11
ENDBRANCH   5   7
BRANCH   1  17
ATOM     17  O   UNL     1       5.399   3.957  19.078  0.00  0.00    +0.000 OA
BRANCH  17  20
ATOM     18  C   UNL     1       7.284   6.592  17.410  0.00  0.00    +0.000 A 
ATOM     19  C   UNL     1       6.727   5.895  18.464  0.00  0.00    +0.000 A 
ATOM     20  C   UNL     1       6.076   4.718  18.151  0.00  0.00    +0.000 A 
ATOM     21  N   UNL     1       6.073   4.195  16.913  0.00  0.00    +0.000 NA
ATOM     22  C   UNL     1       6.699   4.913  15.973  0.00  0.00    +0.000 A 
ATOM     23  N   UNL     1       7.285   6.106  16.150  0.00  0.00    +0.000 NA
BRANCH  18  24
ATOM     24  C   UNL     1       7.858   7.974  17.631  0.00  0.00    +0.000 C 
BRANCH  24  25
ATOM     25  N   UNL     1       8.632   8.079  18.868  0.00  0.00    +0.000 NA
ATOM     26  H   UNL     1       7.983   8.136  19.653  0.00  0.00    +0.000 HD
ATOM     27  H   UNL     1       9.133   8.967  18.856  0.00  0.00    +0.000 HD
ENDBRANCH  24  25
ENDBRANCH  18  24
ENDBRANCH  17  20
ENDBRANCH   1  17
TORSDOF 6
ENDMDL
MODEL 7
REMARK VINA RESULT:      -7.6      2.172      2.921
REMARK  Name = 
REMARK  6 active torsions:
REMARK  status: ('A' for Active; 'I' for Inactive)
REMARK    1  A    between atoms: N_1  and  C_2
REMARK    2  A    between atoms: C_2  and  C_3
REMARK    3  A    between atoms: C_5  and  O_6
REMARK    4  A    between atoms: O_6  and  C_7
REMARK    5  A    between atoms: C_11  and  C_12
REMARK    6  A    between atoms: N_14  and  C_15
REMARK                            x       y       z     vdW  Elec       q    Type
REMARK                         _______ _______ _______ _____ _____    ______ ____
ROOT
ATOM      1  C   UNL     1       3.522   4.190  18.721  0.00  0.00    +0.000 A 
ATOM      2  C   UNL     1       3.241   3.306  19.765  0.00  0.00    +0.000 A 
ATOM      3  C   UNL     1       2.501   3.735  20.862  0.00  0.00    +0.000 A 
ATOM      4  C   UNL     1       2.051   5.053  20.917  0.00  0.00    +0.000 A 
ATOM      5  C   UNL     1       2.301   5.950  19.864  0.00  0.00    +0.000 A 
ATOM      6  C   UNL     1       3.002   5.494  18.742  0.00  0.00    +0.000 A 
ENDROOT
BRANCH   5   7
ATOM      7  C   UNL     1       1.859   7.370  20.053  0.00  0.00    +0.000 C 
ATOM      8  O   UNL     1       2.076   8.147  19.125  0.00  0.00    +0.000 OA
ATOM      9  N   UNL     1       1.244   7.711  21.247  0.00  0.00    +0.000 N 
ATOM     10  H   UNL     1       1.297   7.071  22.024  0.00  0.00    +0.000 HD
BRANCH   9  11
ATOM     11  C   UNL     1       0.657   8.967  21.539  0.00  0.00    +0.000 A 
ATOM     12  C   UNL     1       0.844  10.106  20.747  0.00  0.00    +0.000 A 
ATOM     13  C   UNL     1       0.269  11.329  21.102  0.00  0.00    +0.000 A 
ATOM     14  C   UNL     1      -0.507  11.426  22.251  0.00  0.00    +0.000 A 
ATOM     15  C   UNL     1      -0.728  10.293  23.033  0.00  0.00    +0.000 A 
ATOM     16  C   UNL     1      -0.157   9.067  22.673  0.00  0.00    +0.000 A 
ENDBRANCH   9  11
ENDBRANCH   5   7
BRANCH   1  17
ATOM     17  O   UNL     1       4.289   3.675  17.700  0.00  0.00    +0.000 OA
BRANCH  17  20
ATOM     18  C   UNL     1       7.107   5.958  17.353  0.00  0.00    +0.000 A 
ATOM     19  C   UNL     1       6.110   5.253  17.997  0.00  0.00    +0.000 A 
ATOM     20  C   UNL     1       5.369   4.383  17.223  0.00  0.00    +0.000 A 
ATOM     21  N   UNL     1       5.660   4.127  15.935  0.00  0.00    +0.000 NA
ATOM     22  C   UNL     1       6.688   4.811  15.421  0.00  0.00    +0.000 A 
ATOM     23  N   UNL     1       7.416   5.741  16.057  0.00  0.00    +0.000 NA
BRANCH  18  24
ATOM     24  C   UNL     1       7.848   7.061  18.077  0.00  0.00    +0.000 C 
BRANCH  24  25
ATOM     25  N   UNL     1       7.718   8.362  17.420  0.00  0.00    +0.000 NA
ATOM     26  H   UNL     1       6.749   8.480  17.122  0.00  0.00    +0.000 HD
ATOM     27  H   UNL     1       8.271   8.344  16.564  0.00  0.00    +0.000 HD
ENDBRANCH  24  25
ENDBRANCH  18  24
ENDBRANCH  17  20
ENDBRANCH   1  17
TORSDOF 6
ENDMDL
MODEL 8
REMARK VINA RESULT:      -7.6      2.053      2.787
REMARK  Name = 
REMARK  6 active torsions:
REMARK  status: ('A' for Active; 'I' for Inactive)
REMARK    1  A    between atoms: N_1  and  C_2
REMARK    2  A    between atoms: C_2  and  C_3
REMARK    3  A    between atoms: C_5  and  O_6
REMARK    4  A    between atoms: O_6  and  C_7
REMARK    5  A    between atoms: C_11  and  C_12
REMARK    6  A    between atoms: N_14  and  C_15
REMARK                            x       y       z     vdW  Elec       q    Type
REMARK                         _______ _______ _______ _____ _____    ______ ____
ROOT
ATOM      1  C   UNL     1       4.768   3.933  19.468  0.00  0.00    +0.000 A 
ATOM      2  C   UNL     1       4.267   2.638  19.614  0.00  0.00    +0.000 A 
ATOM      3  C   UNL     1       2.935   2.440  19.962  0.00  0.00    +0.000 A 
ATOM      4  C   UNL     1       2.108   3.541  20.174  0.00  0.00    +0.000 A 
ATOM      5  C   UNL     1       2.586   4.852  20.006  0.00  0.00    +0.000 A 
ATOM      6  C   UNL     1       3.914   5.039  19.605  0.00  0.00    +0.000 A 
ENDROOT
BRANCH   5   7
ATOM      7  C   UNL     1       1.650   5.973  20.347  0.00  0.00    +0.000 C 
ATOM      8  O   UNL     1       0.504   5.661  20.667  0.00  0.00    +0.000 OA
ATOM      9  N   UNL     1       2.130   7.271  20.277  0.00  0.00    +0.000 N 
ATOM     10  H   UNL     1       3.006   7.443  19.809  0.00  0.00    +0.000 HD
BRANCH   9  11
ATOM     11  C   UNL     1       1.424   8.430  20.684  0.00  0.00    +0.000 A 
ATOM     12  C   UNL     1       1.153   8.736  22.022  0.00  0.00    +0.000 A 
ATOM     13  C   UNL     1       0.420   9.875  22.364  0.00  0.00    +0.000 A 
ATOM     14  C   UNL     1      -0.045  10.728  21.370  0.00  0.00    +0.000 A 
ATOM     15  C   UNL     1       0.244  10.453  20.034  0.00  0.00    +0.000 A 
ATOM     16  C   UNL     1       0.984   9.315  19.693  0.00  0.00    +0.000 A 
ENDBRANCH   9  11
ENDBRANCH   5   7
BRANCH   1  17
ATOM     17  O   UNL     1       6.106   4.019  19.154  0.00  0.00    +0.000 OA
BRANCH  17  20
ATOM     18  C   UNL     1       6.851   5.270  15.814  0.00  0.00    +0.000 A 
ATOM     19  C   UNL     1       6.299   4.442  16.770  0.00  0.00    +0.000 A 
ATOM     20  C   UNL     1       6.518   4.789  18.089  0.00  0.00    +0.000 A 
ATOM     21  N   UNL     1       7.130   5.930  18.449  0.00  0.00    +0.000 NA
ATOM     22  C   UNL     1       7.569   6.699  17.447  0.00  0.00    +0.000 A 
ATOM     23  N   UNL     1       7.487   6.416  16.138  0.00  0.00    +0.000 NA
BRANCH  18  24
ATOM     24  C   UNL     1       6.817   4.874  14.354  0.00  0.00    +0.000 C 
BRANCH  24  25
ATOM     25  N   UNL     1       6.326   3.512  14.144  0.00  0.00    +0.000 NA
ATOM     26  H   UNL     1       6.376   3.299  13.147  0.00  0.00    +0.000 HD
ATOM     27  H   UNL     1       5.335   3.489  14.383  0.00  0.00    +0.000 HD
ENDBRANCH  24  25
ENDBRANCH  18  24
ENDBRANCH  17  20
ENDBRANCH   1  17
TORSDOF 6
ENDMDL
MODEL 9
REMARK VINA RESULT:      -7.6      0.945      1.255
REMARK  Name = 
REMARK  6 active torsions:
REMARK  status: ('A' for Active; 'I' for Inactive)
REMARK    1  A    between atoms: N_1  and  C_2
REMARK    2  A    between atoms: C_2  and  C_3
REMARK    3  A    between atoms: C_5  and  O_6
REMARK    4  A    between atoms: O_6  and  C_7
REMARK    5  A    between atoms: C_11  and  C_12
REMARK    6  A    between atoms: N_14  and  C_15
REMARK                            x       y       z     vdW  Elec       q    Type
REMARK                         _______ _______ _______ _____ _____    ______ ____
ROOT
ATOM      1  C   UNL     1       3.434   4.369  18.956  0.00  0.00    +0.000 A 
ATOM      2  C   UNL     1       2.967   3.833  20.158  0.00  0.00    +0.000 A 
ATOM      3  C   UNL     1       2.179   4.604  21.005  0.00  0.00    +0.000 A 
ATOM      4  C   UNL     1       1.867   5.916  20.653  0.00  0.00    +0.000 A 
ATOM      5  C   UNL     1       2.305   6.464  19.435  0.00  0.00    +0.000 A 
ATOM      6  C   UNL     1       3.054   5.663  18.566  0.00  0.00    +0.000 A 
ENDROOT
BRANCH   5   7
ATOM      7  C   UNL     1       2.000   7.911  19.185  0.00  0.00    +0.000 C 
ATOM      8  O   UNL     1       2.528   8.427  18.201  0.00  0.00    +0.000 OA
ATOM      9  N   UNL     1       1.155   8.564  20.067  0.00  0.00    +0.000 N 
ATOM     10  H   UNL     1       0.940   8.128  20.950  0.00  0.00    +0.000 HD
BRANCH   9  11
ATOM     11  C   UNL     1       0.665   9.884  19.910  0.00  0.00    +0.000 A 
ATOM     12  C   UNL     1      -0.077  10.302  18.800  0.00  0.00    +0.000 A 
ATOM     13  C   UNL     1      -0.505  11.626  18.680  0.00  0.00    +0.000 A 
ATOM     14  C   UNL     1      -0.199  12.549  19.672  0.00  0.00    +0.000 A 
ATOM     15  C   UNL     1       0.513  12.141  20.799  0.00  0.00    +0.000 A 
ATOM     16  C   UNL     1       0.934  10.812  20.922  0.00  0.00    +0.000 A 
ENDBRANCH   9  11
ENDBRANCH   5   7
BRANCH   1  17
ATOM     17  O   UNL     1       4.233   3.534  18.206  0.00  0.00    +0.000 OA
BRANCH  17  20
ATOM     18  C   UNL     1       6.708   4.612  15.759  0.00  0.00    +0.000 A 
ATOM     19  C   UNL     1       5.479   4.194  16.229  0.00  0.00    +0.000 A 
ATOM     20  C   UNL     1       5.365   4.026  17.595  0.00  0.00    +0.000 A 
ATOM     21  N   UNL     1       6.344   4.359  18.454  0.00  0.00    +0.000 NA
ATOM     22  C   UNL     1       7.472   4.820  17.903  0.00  0.00    +0.000 A 
ATOM     23  N   UNL     1       7.720   4.939  16.590  0.00  0.00    +0.000 NA
BRANCH  18  24
ATOM     24  C   UNL     1       6.979   4.650  14.271  0.00  0.00    +0.000 C 
BRANCH  24  25
ATOM     25  N   UNL     1       6.261   3.611  13.533  0.00  0.00    +0.000 NA
ATOM     26  H   UNL     1       6.861   3.275  12.779  0.00  0.00    +0.000 HD
ATOM     27  H   UNL     1       5.457   4.041  13.078  0.00  0.00    +0.000 HD
ENDBRANCH  24  25
ENDBRANCH  18  24
ENDBRANCH  17  20
ENDBRANCH   1  17
TORSDOF 6
ENDMDL
