MODEL 1
REMARK VINA RESULT:      -7.5      0.000      0.000
REMARK  Name = 
REMARK  7 active torsions:
REMARK  status: ('A' for Active; 'I' for Inactive)
REMARK    1  A    between atoms: C_1  and  C_2
REMARK    2  A    between atoms: C_2  and  C_3
REMARK    3  A    between atoms: C_2  and  C_4
REMARK    4  A    between atoms: C_4  and  N_5
REMARK    5  A    between atoms: N_8  and  C_9
REMARK    6  A    between atoms: N_14  and  C_15
REMARK    7  A    between atoms: C_15  and  C_16
REMARK                            x       y       z     vdW  Elec       q    Type
REMARK                         _______ _______ _______ _____ _____    ______ ____
ROOT
ATOM      1  N   UNL     1       4.851   5.021  18.887  0.00  0.00    +0.000 N 
ATOM      2  C   UNL     1       4.532   3.664  19.088  0.00  0.00    +0.000 A 
ATOM      3  O   UNL     1       5.330   2.888  19.623  0.00  0.00    +0.000 OA
ATOM      4  N   UNL     1       3.264   3.219  18.656  0.00  0.00    +0.000 N 
ATOM      5  C   UNL     1       2.951   1.811  18.785  0.00  0.00    +0.000 C 
ATOM      6  C   UNL     1       2.223   4.018  18.157  0.00  0.00    +0.000 A 
ATOM      7  O   UNL     1       1.099   3.609  17.896  0.00  0.00    +0.000 OA
ATOM      8  C   UNL     1       2.609   5.396  17.998  0.00  0.00    +0.000 A 
ATOM      9  C   UNL     1       1.855   6.490  17.627  0.00  0.00    +0.000 A 
ATOM     10  N   UNL     1       2.663   7.596  17.765  0.00  0.00    +0.000 N 
ATOM     11  C   UNL     1       3.963   7.177  17.978  0.00  0.00    +0.000 A 
ATOM     12  C   UNL     1       3.898   5.846  18.309  0.00  0.00    +0.000 A 
ENDROOT
BRANCH   1  13
ATOM     13  C   UNL     1       6.178   5.506  19.302  0.00  0.00    +0.000 C 
BRANCH  13  15
ATOM     14  C   UNL     1       6.924   4.664  16.995  0.00  0.00    +0.000 C 
ATOM     15  C   UNL     1       7.280   5.517  18.214  0.00  0.00    +0.000 C 
ATOM     16  C   UNL     1       7.545   6.961  17.758  0.00  0.00    +0.000 C 
ENDBRANCH  13  15
ENDBRANCH   1  13
BRANCH  10  17
ATOM     17  C   UNL     1       2.184   8.921  18.148  0.00  0.00    +0.000 C 
BRANCH  17  18
ATOM     18  C   UNL     1       1.330   8.972  19.380  0.00  0.00    +0.000 A 
ATOM     19  C   UNL     1       1.724   8.230  20.510  0.00  0.00    +0.000 A 
ATOM     20  C   UNL     1       1.076   8.389  21.734  0.00  0.00    +0.000 A 
ATOM     21  C   UNL     1       0.016   9.283  21.849  0.00  0.00    +0.000 A 
ATOM     22  C   UNL     1      -0.420   9.991  20.729  0.00  0.00    +0.000 A 
ATOM     23  C   UNL     1       0.222   9.827  19.498  0.00  0.00    +0.000 A 
ATOM     24 CL   UNL     1      -0.369  10.753  18.165  0.00  0.00    +0.000 Cl
ENDBRANCH  17  18
ENDBRANCH  10  17
TORSDOF 4
ENDMDL
MODEL 2
REMARK VINA RESULT:      -7.5      1.994      3.539
REMARK  Name = 
REMARK  7 active torsions:
REMARK  status: ('A' for Active; 'I' for Inactive)
REMARK    1  A    between atoms: C_1  and  C_2
REMARK    2  A    between atoms: C_2  and  C_3
REMARK    3  A    between atoms: C_2  and  C_4
REMARK    4  A    between atoms: C_4  and  N_5
REMARK    5  A    between atoms: N_8  and  C_9
REMARK    6  A    between atoms: N_14  and  C_15
REMARK    7  A    between atoms: C_15  and  C_16
REMARK                            x       y       z     vdW  Elec       q    Type
REMARK                         _______ _______ _______ _____ _____    ______ ____
ROOT
ATOM      1  N   UNL     1       3.543   5.139  19.140  0.00  0.00    +0.000 N 
ATOM      2  C   UNL     1       4.494   4.414  18.396  0.00  0.00    +0.000 A 
ATOM      3  O   UNL     1       4.770   3.243  18.673  0.00  0.00    +0.000 OA
ATOM      4  N   UNL     1       5.122   5.074  17.318  0.00  0.00    +0.000 N 
ATOM      5  C   UNL     1       6.157   4.368  16.592  0.00  0.00    +0.000 C 
ATOM      6  C   UNL     1       4.808   6.349  16.820  0.00  0.00    +0.000 A 
ATOM      7  O   UNL     1       5.301   6.841  15.814  0.00  0.00    +0.000 OA
ATOM      8  C   UNL     1       3.814   7.024  17.613  0.00  0.00    +0.000 A 
ATOM      9  C   UNL     1       3.185   8.234  17.404  0.00  0.00    +0.000 A 
ATOM     10  N   UNL     1       2.221   8.356  18.378  0.00  0.00    +0.000 N 
ATOM     11  C   UNL     1       2.408   7.363  19.321  0.00  0.00    +0.000 A 
ATOM     12  C   UNL     1       3.256   6.442  18.758  0.00  0.00    +0.000 A 
ENDROOT
BRANCH   1  13
ATOM     13  C   UNL     1       2.893   4.485  20.289  0.00  0.00    +0.000 C 
BRANCH  13  15
ATOM     14  C   UNL     1       1.215   3.396  18.680  0.00  0.00    +0.000 C 
ATOM     15  C   UNL     1       1.441   3.993  20.071  0.00  0.00    +0.000 C 
ATOM     16  C   UNL     1       1.084   2.941  21.135  0.00  0.00    +0.000 C 
ENDBRANCH  13  15
ENDBRANCH   1  13
BRANCH  10  17
ATOM     17  C   UNL     1       0.944   9.040  18.189  0.00  0.00    +0.000 C 
BRANCH  17  18
ATOM     18  C   UNL     1       0.623  10.105  19.196  0.00  0.00    +0.000 A 
ATOM     19  C   UNL     1      -0.310   9.820  20.210  0.00  0.00    +0.000 A 
ATOM     20  C   UNL     1      -0.503  10.700  21.275  0.00  0.00    +0.000 A 
ATOM     21  C   UNL     1       0.225  11.884  21.339  0.00  0.00    +0.000 A 
ATOM     22  C   UNL     1       1.118  12.206  20.318  0.00  0.00    +0.000 A 
ATOM     23  C   UNL     1       1.307  11.330  19.245  0.00  0.00    +0.000 A 
ATOM     24 CL   UNL     1       2.445  11.796  18.031  0.00  0.00    +0.000 Cl
ENDBRANCH  17  18
ENDBRANCH  10  17
TORSDOF 4
ENDMDL
MODEL 3
REMARK VINA RESULT:      -7.4      2.152      3.683
REMARK  Name = 
REMARK  7 active torsions:
REMARK  status: ('A' for Active; 'I' for Inactive)
REMARK    1  A    between atoms: C_1  and  C_2
REMARK    2  A    between atoms: C_2  and  C_3
REMARK    3  A    between atoms: C_2  and  C_4
REMARK    4  A    between atoms: C_4  and  N_5
REMARK    5  A    between atoms: N_8  and  C_9
REMARK    6  A    between atoms: N_14  and  C_15
REMARK    7  A    between atoms: C_15  and  C_16
REMARK                            x       y       z     vdW  Elec       q    Type
REMARK                         _______ _______ _______ _____ _____    ______ ____
ROOT
ATOM      1  N   UNL     1       3.325   5.136  19.539  0.00  0.00    +0.000 N 
ATOM      2  C   UNL     1       4.166   4.374  18.704  0.00  0.00    +0.000 A 
ATOM      3  O   UNL     1       4.436   3.198  18.967  0.00  0.00    +0.000 OA
ATOM      4  N   UNL     1       4.689   5.002  17.555  0.00  0.00    +0.000 N 
ATOM      5  C   UNL     1       5.617   4.256  16.729  0.00  0.00    +0.000 C 
ATOM      6  C   UNL     1       4.360   6.279  17.076  0.00  0.00    +0.000 A 
ATOM      7  O   UNL     1       4.753   6.745  16.015  0.00  0.00    +0.000 OA
ATOM      8  C   UNL     1       3.480   6.994  17.964  0.00  0.00    +0.000 A 
ATOM      9  C   UNL     1       2.868   8.221  17.808  0.00  0.00    +0.000 A 
ATOM     10  N   UNL     1       2.021   8.383  18.880  0.00  0.00    +0.000 N 
ATOM     11  C   UNL     1       2.283   7.395  19.811  0.00  0.00    +0.000 A 
ATOM     12  C   UNL     1       3.036   6.442  19.171  0.00  0.00    +0.000 A 
ENDROOT
BRANCH   1  13
ATOM     13  C   UNL     1       2.787   4.515  20.761  0.00  0.00    +0.000 C 
BRANCH  13  15
ATOM     14  C   UNL     1       1.007   3.496  19.217  0.00  0.00    +0.000 C 
ATOM     15  C   UNL     1       1.378   3.881  20.651  0.00  0.00    +0.000 C 
ATOM     16  C   UNL     1       1.298   2.633  21.545  0.00  0.00    +0.000 C 
ENDBRANCH  13  15
ENDBRANCH   1  13
BRANCH  10  17
ATOM     17  C   UNL     1       0.752   9.103  18.824  0.00  0.00    +0.000 C 
BRANCH  17  18
ATOM     18  C   UNL     1       0.597  10.224  19.810  0.00  0.00    +0.000 A 
ATOM     19  C   UNL     1       0.982  11.522  19.426  0.00  0.00    +0.000 A 
ATOM     20  C   UNL     1       0.685  12.624  20.228  0.00  0.00    +0.000 A 
ATOM     21  C   UNL     1       0.008  12.447  21.431  0.00  0.00    +0.000 A 
ATOM     22  C   UNL     1      -0.339  11.163  21.850  0.00  0.00    +0.000 A 
ATOM     23  C   UNL     1      -0.035  10.055  21.052  0.00  0.00    +0.000 A 
ATOM     24 CL   UNL     1      -0.514   8.501  21.636  0.00  0.00    +0.000 Cl
ENDBRANCH  17  18
ENDBRANCH  10  17
TORSDOF 4
ENDMDL
MODEL 4
REMARK VINA RESULT:      -7.4      1.938      3.613
REMARK  Name = 
REMARK  7 active torsions:
REMARK  status: ('A' for Active; 'I' for Inactive)
REMARK    1  A    between atoms: C_1  and  C_2
REMARK    2  A    between atoms: C_2  and  C_3
REMARK    3  A    between atoms: C_2  and  C_4
REMARK    4  A    between atoms: C_4  and  N_5
REMARK    5  A    between atoms: N_8  and  C_9
REMARK    6  A    between atoms: N_14  and  C_15
REMARK    7  A    between atoms: C_15  and  C_16
REMARK                            x       y       z     vdW  Elec       q    Type
REMARK                         _______ _______ _______ _____ _____    ______ ____
ROOT
ATOM      1  N   UNL     1       3.706   5.224  19.390  0.00  0.00    +0.000 N 
ATOM      2  C   UNL     1       4.851   4.569  18.894  0.00  0.00    +0.000 A 
ATOM      3  O   UNL     1       5.181   3.452  19.304  0.00  0.00    +0.000 OA
ATOM      4  N   UNL     1       5.610   5.236  17.909  0.00  0.00    +0.000 N 
ATOM      5  C   UNL     1       6.832   4.610  17.446  0.00  0.00    +0.000 C 
ATOM      6  C   UNL     1       5.276   6.439  17.268  0.00  0.00    +0.000 A 
ATOM      7  O   UNL     1       5.906   6.929  16.339  0.00  0.00    +0.000 OA
ATOM      8  C   UNL     1       4.085   7.042  17.806  0.00  0.00    +0.000 A 
ATOM      9  C   UNL     1       3.394   8.163  17.393  0.00  0.00    +0.000 A 
ATOM     10  N   UNL     1       2.250   8.229  18.156  0.00  0.00    +0.000 N 
ATOM     11  C   UNL     1       2.346   7.315  19.188  0.00  0.00    +0.000 A 
ATOM     12  C   UNL     1       3.374   6.464  18.865  0.00  0.00    +0.000 A 
ENDROOT
BRANCH   1  13
ATOM     13  C   UNL     1       2.912   4.564  20.439  0.00  0.00    +0.000 C 
BRANCH  13  15
ATOM     14  C   UNL     1       1.594   3.354  18.598  0.00  0.00    +0.000 C 
ATOM     15  C   UNL     1       1.552   3.963  20.001  0.00  0.00    +0.000 C 
ATOM     16  C   UNL     1       1.113   2.885  21.006  0.00  0.00    +0.000 C 
ENDBRANCH  13  15
ENDBRANCH   1  13
BRANCH  10  17
ATOM     17  C   UNL     1       0.974   8.756  17.679  0.00  0.00    +0.000 C 
BRANCH  17  18
ATOM     18  C   UNL     1       0.419   9.914  18.456  0.00  0.00    +0.000 A 
ATOM     19  C   UNL     1       1.243  10.553  19.401  0.00  0.00    +0.000 A 
ATOM     20  C   UNL     1       0.845  11.744  20.010  0.00  0.00    +0.000 A 
ATOM     21  C   UNL     1      -0.385  12.310  19.692  0.00  0.00    +0.000 A 
ATOM     22  C   UNL     1      -1.235  11.666  18.794  0.00  0.00    +0.000 A 
ATOM     23  C   UNL     1      -0.844  10.468  18.189  0.00  0.00    +0.000 A 
ATOM     24 CL   UNL     1      -1.948   9.742  17.076  0.00  0.00    +0.000 Cl
ENDBRANCH  17  18
ENDBRANCH  10  17
TORSDOF 4
ENDMDL
MODEL 5
REMARK VINA RESULT:      -7.3      6.959      9.483
REMARK  Name = 
REMARK  7 active torsions:
REMARK  status: ('A' for Active; 'I' for Inactive)
REMARK    1  A    between atoms: C_1  and  C_2
REMARK    2  A    between atoms: C_2  and  C_3
REMARK    3  A    between atoms: C_2  and  C_4
REMARK    4  A    between atoms: C_4  and  N_5
REMARK    5  A    between atoms: N_8  and  C_9
REMARK    6  A    between atoms: N_14  and  C_15
REMARK    7  A    between atoms: C_15  and  C_16
REMARK                            x       y       z     vdW  Elec       q    Type
REMARK                         _______ _______ _______ _____ _____    ______ ____
ROOT
ATOM      1  N   UNL     1      -4.131  11.894  18.843  0.00  0.00    +0.000 N 
ATOM      2  C   UNL     1      -5.483  11.509  18.928  0.00  0.00    +0.000 A 
ATOM      3  O   UNL     1      -6.050  10.942  17.989  0.00  0.00    +0.000 OA
ATOM      4  N   UNL     1      -6.170  11.795  20.127  0.00  0.00    +0.000 N 
ATOM      5  C   UNL     1      -7.581  11.476  20.201  0.00  0.00    +0.000 C 
ATOM      6  C   UNL     1      -5.613  12.313  21.307  0.00  0.00    +0.000 A 
ATOM      7  O   UNL     1      -6.221  12.444  22.361  0.00  0.00    +0.000 OA
ATOM      8  C   UNL     1      -4.225  12.664  21.158  0.00  0.00    +0.000 A 
ATOM      9  C   UNL     1      -3.318  13.111  22.096  0.00  0.00    +0.000 A 
ATOM     10  N   UNL     1      -2.092  13.164  21.471  0.00  0.00    +0.000 N 
ATOM     11  C   UNL     1      -2.274  12.993  20.112  0.00  0.00    +0.000 A 
ATOM     12  C   UNL     1      -3.545  12.500  19.944  0.00  0.00    +0.000 A 
ENDROOT
BRANCH   1  13
ATOM     13  C   UNL     1      -3.397  11.634  17.593  0.00  0.00    +0.000 C 
BRANCH  13  15
ATOM     14  C   UNL     1      -2.850   9.724  15.968  0.00  0.00    +0.000 C 
ATOM     15  C   UNL     1      -2.813  10.210  17.418  0.00  0.00    +0.000 C 
ATOM     16  C   UNL     1      -1.361  10.180  17.923  0.00  0.00    +0.000 C 
ENDBRANCH  13  15
ENDBRANCH   1  13
BRANCH  10  17
ATOM     17  C   UNL     1      -0.818  12.911  22.139  0.00  0.00    +0.000 C 
BRANCH  17  18
ATOM     18  C   UNL     1      -0.304  11.505  22.045  0.00  0.00    +0.000 A 
ATOM     19  C   UNL     1      -0.825  10.532  22.919  0.00  0.00    +0.000 A 
ATOM     20  C   UNL     1      -0.523   9.181  22.750  0.00  0.00    +0.000 A 
ATOM     21  C   UNL     1       0.311   8.779  21.712  0.00  0.00    +0.000 A 
ATOM     22  C   UNL     1       0.876   9.733  20.866  0.00  0.00    +0.000 A 
ATOM     23  C   UNL     1       0.583  11.089  21.038  0.00  0.00    +0.000 A 
ATOM     24 CL   UNL     1       1.309  12.205  19.937  0.00  0.00    +0.000 Cl
ENDBRANCH  17  18
ENDBRANCH  10  17
TORSDOF 4
ENDMDL
MODEL 6
REMARK VINA RESULT:      -7.2      3.554      5.261
REMARK  Name = 
REMARK  7 active torsions:
REMARK  status: ('A' for Active; 'I' for Inactive)
REMARK    1  A    between atoms: C_1  and  C_2
REMARK    2  A    between atoms: C_2  and  C_3
REMARK    3  A    between atoms: C_2  and  C_4
REMARK    4  A    between atoms: C_4  and  N_5
REMARK    5  A    between atoms: N_8  and  C_9
REMARK    6  A    between atoms: N_14  and  C_15
REMARK    7  A    between atoms: C_15  and  C_16
REMARK                            x       y       z     vdW  Elec       q    Type
REMARK                         _______ _______ _______ _____ _____    ______ ____
ROOT
ATOM      1  N   UNL     1       6.301   5.301  16.106  0.00  0.00    +0.000 N 
ATOM      2  C   UNL     1       7.169   6.227  16.718  0.00  0.00    +0.000 A 
ATOM      3  O   UNL     1       7.715   7.123  16.067  0.00  0.00    +0.000 OA
ATOM      4  N   UNL     1       7.392   6.095  18.105  0.00  0.00    +0.000 N 
ATOM      5  C   UNL     1       8.342   6.990  18.734  0.00  0.00    +0.000 C 
ATOM      6  C   UNL     1       6.740   5.209  18.977  0.00  0.00    +0.000 A 
ATOM      7  O   UNL     1       6.883   5.201  20.192  0.00  0.00    +0.000 OA
ATOM      8  C   UNL     1       5.852   4.308  18.290  0.00  0.00    +0.000 A 
ATOM      9  C   UNL     1       4.978   3.367  18.795  0.00  0.00    +0.000 A 
ATOM     10  N   UNL     1       4.264   2.874  17.727  0.00  0.00    +0.000 N 
ATOM     11  C   UNL     1       4.848   3.313  16.555  0.00  0.00    +0.000 A 
ATOM     12  C   UNL     1       5.696   4.337  16.898  0.00  0.00    +0.000 A 
ENDROOT
BRANCH   1  13
ATOM     13  C   UNL     1       6.072   5.397  14.654  0.00  0.00    +0.000 C 
BRANCH  13  15
ATOM     14  C   UNL     1       6.119   3.607  12.816  0.00  0.00    +0.000 C 
ATOM     15  C   UNL     1       6.946   4.488  13.755  0.00  0.00    +0.000 C 
ATOM     16  C   UNL     1       7.906   5.351  12.920  0.00  0.00    +0.000 C 
ENDBRANCH  13  15
ENDBRANCH   1  13
BRANCH  10  17
ATOM     17  C   UNL     1       2.874   2.430  17.804  0.00  0.00    +0.000 C 
BRANCH  17  18
ATOM     18  C   UNL     1       2.103   2.912  18.998  0.00  0.00    +0.000 A 
ATOM     19  C   UNL     1       1.900   2.028  20.074  0.00  0.00    +0.000 A 
ATOM     20  C   UNL     1       1.359   2.479  21.279  0.00  0.00    +0.000 A 
ATOM     21  C   UNL     1       1.004   3.816  21.425  0.00  0.00    +0.000 A 
ATOM     22  C   UNL     1       1.153   4.695  20.353  0.00  0.00    +0.000 A 
ATOM     23  C   UNL     1       1.686   4.245  19.141  0.00  0.00    +0.000 A 
ATOM     24 CL   UNL     1       1.854   5.401  17.869  0.00  0.00    +0.000 Cl
ENDBRANCH  17  18
ENDBRANCH  10  17
TORSDOF 4
ENDMDL
MODEL 7
REMARK VINA RESULT:      -7.2      3.713      7.690
REMARK  Name = 
REMARK  7 active torsions:
REMARK  status: ('A' for Active; 'I' for Inactive)
REMARK    1  A    between atoms: C_1  and  C_2
REMARK    2  A    between atoms: C_2  and  C_3
REMARK    3  A    between atoms: C_2  and  C_4
REMARK    4  A    between atoms: C_4  and  N_5
REMARK    5  A    between atoms: N_8  and  C_9
REMARK    6  A    between atoms: N_14  and  C_15
REMARK    7  A    between atoms: C_15  and  C_16
REMARK                            x       y       z     vdW  Elec       q    Type
REMARK                         _______ _______ _______ _____ _____    ______ ____
ROOT
ATOM      1  N   UNL     1      -0.621  10.772  19.045  0.00  0.00    +0.000 N 
ATOM      2  C   UNL     1      -1.145  11.293  20.245  0.00  0.00    +0.000 A 
ATOM      3  O   UNL     1      -2.110  12.063  20.243  0.00  0.00    +0.000 OA
ATOM      4  N   UNL     1      -0.527  10.902  21.452  0.00  0.00    +0.000 N 
ATOM      5  C   UNL     1      -1.005  11.490  22.687  0.00  0.00    +0.000 C 
ATOM      6  C   UNL     1       0.484   9.940  21.601  0.00  0.00    +0.000 A 
ATOM      7  O   UNL     1       0.917   9.550  22.677  0.00  0.00    +0.000 OA
ATOM      8  C   UNL     1       0.957   9.433  20.339  0.00  0.00    +0.000 A 
ATOM      9  C   UNL     1       1.864   8.429  20.071  0.00  0.00    +0.000 A 
ATOM     10  N   UNL     1       1.859   8.240  18.708  0.00  0.00    +0.000 N 
ATOM     11  C   UNL     1       1.152   9.269  18.116  0.00  0.00    +0.000 A 
ATOM     12  C   UNL     1       0.445   9.887  19.118  0.00  0.00    +0.000 A 
ENDROOT
BRANCH   1  13
ATOM     13  C   UNL     1      -1.227  11.185  17.769  0.00  0.00    +0.000 C 
BRANCH  13  15
ATOM     14  C   UNL     1      -3.245   9.601  17.869  0.00  0.00    +0.000 C 
ATOM     15  C   UNL     1      -2.075  10.120  17.030  0.00  0.00    +0.000 C 
ATOM     16  C   UNL     1      -2.618  10.706  15.717  0.00  0.00    +0.000 C 
ENDBRANCH  13  15
ENDBRANCH   1  13
BRANCH  10  17
ATOM     17  C   UNL     1       2.081   6.952  18.056  0.00  0.00    +0.000 C 
BRANCH  17  18
ATOM     18  C   UNL     1       3.489   6.436  18.100  0.00  0.00    +0.000 A 
ATOM     19  C   UNL     1       4.421   6.930  17.169  0.00  0.00    +0.000 A 
ATOM     20  C   UNL     1       5.779   6.629  17.285  0.00  0.00    +0.000 A 
ATOM     21  C   UNL     1       6.226   5.822  18.326  0.00  0.00    +0.000 A 
ATOM     22  C   UNL     1       5.310   5.284  19.230  0.00  0.00    +0.000 A 
ATOM     23  C   UNL     1       3.948   5.577  19.112  0.00  0.00    +0.000 A 
ATOM     24 CL   UNL     1       2.883   4.885  20.283  0.00  0.00    +0.000 Cl
ENDBRANCH  17  18
ENDBRANCH  10  17
TORSDOF 4
ENDMDL
MODEL 8
REMARK VINA RESULT:      -7.2      2.282      3.724
REMARK  Name = 
REMARK  7 active torsions:
REMARK  status: ('A' for Active; 'I' for Inactive)
REMARK    1  A    between atoms: C_1  and  C_2
REMARK    2  A    between atoms: C_2  and  C_3
REMARK    3  A    between atoms: C_2  and  C_4
REMARK    4  A    between atoms: C_4  and  N_5
REMARK    5  A    between atoms: N_8  and  C_9
REMARK    6  A    between atoms: N_14  and  C_15
REMARK    7  A    between atoms: C_15  and  C_16
REMARK                            x       y       z     vdW  Elec       q    Type
REMARK                         _______ _______ _______ _____ _____    ______ ____
ROOT
ATOM      1  N   UNL     1       3.081   4.570  18.171  0.00  0.00    +0.000 N 
ATOM      2  C   UNL     1       4.053   3.913  17.392  0.00  0.00    +0.000 A 
ATOM      3  O   UNL     1       4.103   2.681  17.331  0.00  0.00    +0.000 OA
ATOM      4  N   UNL     1       4.971   4.715  16.681  0.00  0.00    +0.000 N 
ATOM      5  C   UNL     1       6.024   4.054  15.937  0.00  0.00    +0.000 C 
ATOM      6  C   UNL     1       4.944   6.113  16.561  0.00  0.00    +0.000 A 
ATOM      7  O   UNL     1       5.694   6.763  15.845  0.00  0.00    +0.000 OA
ATOM      8  C   UNL     1       3.914   6.718  17.364  0.00  0.00    +0.000 A 
ATOM      9  C   UNL     1       3.514   8.036  17.448  0.00  0.00    +0.000 A 
ATOM     10  N   UNL     1       2.398   8.063  18.253  0.00  0.00    +0.000 N 
ATOM     11  C   UNL     1       2.252   6.830  18.859  0.00  0.00    +0.000 A 
ATOM     12  C   UNL     1       3.060   5.957  18.173  0.00  0.00    +0.000 A 
ENDROOT
BRANCH   1  13
ATOM     13  C   UNL     1       2.128   3.759  18.947  0.00  0.00    +0.000 C 
BRANCH  13  15
ATOM     14  C   UNL     1       1.241   3.086  21.260  0.00  0.00    +0.000 C 
ATOM     15  C   UNL     1       2.447   3.568  20.451  0.00  0.00    +0.000 C 
ATOM     16  C   UNL     1       3.598   2.562  20.615  0.00  0.00    +0.000 C 
ENDBRANCH  13  15
ENDBRANCH   1  13
BRANCH  10  17
ATOM     17  C   UNL     1       1.293   9.005  18.095  0.00  0.00    +0.000 C 
BRANCH  17  18
ATOM     18  C   UNL     1       1.375  10.249  18.930  0.00  0.00    +0.000 A 
ATOM     19  C   UNL     1       1.930  11.411  18.361  0.00  0.00    +0.000 A 
ATOM     20  C   UNL     1       1.858  12.637  19.023  0.00  0.00    +0.000 A 
ATOM     21  C   UNL     1       1.240  12.721  20.266  0.00  0.00    +0.000 A 
ATOM     22  C   UNL     1       0.728  11.571  20.866  0.00  0.00    +0.000 A 
ATOM     23  C   UNL     1       0.806  10.339  20.210  0.00  0.00    +0.000 A 
ATOM     24 CL   UNL     1       0.132   8.967  21.014  0.00  0.00    +0.000 Cl
ENDBRANCH  17  18
ENDBRANCH  10  17
TORSDOF 4
ENDMDL
MODEL 9
REMARK VINA RESULT:      -7.1      1.849      3.677
REMARK  Name = 
REMARK  7 active torsions:
REMARK  status: ('A' for Active; 'I' for Inactive)
REMARK    1  A    between atoms: C_1  and  C_2
REMARK    2  A    between atoms: C_2  and  C_3
REMARK    3  A    between atoms: C_2  and  C_4
REMARK    4  A    between atoms: C_4  and  N_5
REMARK    5  A    between atoms: N_8  and  C_9
REMARK    6  A    between atoms: N_14  and  C_15
REMARK    7  A    between atoms: C_15  and  C_16
REMARK                            x       y       z     vdW  Elec       q    Type
REMARK                         _______ _______ _______ _____ _____    ______ ____
ROOT
ATOM      1  N   UNL     1       3.077   4.780  17.747  0.00  0.00    +0.000 N 
ATOM      2  C   UNL     1       4.251   4.192  17.235  0.00  0.00    +0.000 A 
ATOM      3  O   UNL     1       4.335   2.973  17.058  0.00  0.00    +0.000 OA
ATOM      4  N   UNL     1       5.330   5.048  16.930  0.00  0.00    +0.000 N 
ATOM      5  C   UNL     1       6.570   4.451  16.477  0.00  0.00    +0.000 C 
ATOM      6  C   UNL     1       5.321   6.451  16.962  0.00  0.00    +0.000 A 
ATOM      7  O   UNL     1       6.244   7.160  16.584  0.00  0.00    +0.000 OA
ATOM      8  C   UNL     1       4.086   6.986  17.472  0.00  0.00    +0.000 A 
ATOM      9  C   UNL     1       3.660   8.294  17.573  0.00  0.00    +0.000 A 
ATOM     10  N   UNL     1       2.351   8.256  17.997  0.00  0.00    +0.000 N 
ATOM     11  C   UNL     1       2.045   6.968  18.390  0.00  0.00    +0.000 A 
ATOM     12  C   UNL     1       3.037   6.159  17.893  0.00  0.00    +0.000 A 
ENDROOT
BRANCH   1  13
ATOM     13  C   UNL     1       1.944   3.908  18.101  0.00  0.00    +0.000 C 
BRANCH  13  15
ATOM     14  C   UNL     1       0.961   4.087  20.466  0.00  0.00    +0.000 C 
ATOM     15  C   UNL     1       1.932   3.344  19.545  0.00  0.00    +0.000 C 
ATOM     16  C   UNL     1       1.559   1.853  19.517  0.00  0.00    +0.000 C 
ENDBRANCH  13  15
ENDBRANCH   1  13
BRANCH  10  17
ATOM     17  C   UNL     1       1.334   9.231  17.612  0.00  0.00    +0.000 C 
BRANCH  17  18
ATOM     18  C   UNL     1       0.553   9.836  18.742  0.00  0.00    +0.000 A 
ATOM     19  C   UNL     1       1.209  10.084  19.962  0.00  0.00    +0.000 A 
ATOM     20  C   UNL     1       0.586  10.813  20.975  0.00  0.00    +0.000 A 
ATOM     21  C   UNL     1      -0.705  11.298  20.790  0.00  0.00    +0.000 A 
ATOM     22  C   UNL     1      -1.388  11.021  19.607  0.00  0.00    +0.000 A 
ATOM     23  C   UNL     1      -0.770  10.282  18.593  0.00  0.00    +0.000 A 
ATOM     24 CL   UNL     1      -1.678   9.997  17.151  0.00  0.00    +0.000 Cl
ENDBRANCH  17  18
ENDBRANCH  10  17
TORSDOF 4
ENDMDL
