MODEL 1
REMARK VINA RESULT:      -6.0      0.000      0.000
REMARK  Name = 
REMARK  5 active torsions:
REMARK  status: ('A' for Active; 'I' for Inactive)
REMARK    1  A    between atoms: C_7  and  O_8
REMARK    2  A    between atoms: O_8  and  C_9
REMARK    3  A    between atoms: C_9  and  C_10
REMARK    4  A    between atoms: C_10  and  C_11
REMARK    5  A    between atoms: C_11  and  N_12
REMARK                            x       y       z     vdW  Elec       q    Type
REMARK                         _______ _______ _______ _____ _____    ______ ____
ROOT
ATOM      1  O   UNL     1       3.252   4.526  17.167  0.00  0.00    +0.000 OA
ENDROOT
BRANCH   1   8
ATOM      2 CL   UNL     1       2.577   6.661  19.633  0.00  0.00    +0.000 Cl
ATOM      3  C   UNL     1       2.124   5.013  19.369  0.00  0.00    +0.000 A 
ATOM      4  C   UNL     1       1.322   4.463  20.384  0.00  0.00    +0.000 A 
ATOM      5  C   UNL     1       0.877   3.146  20.319  0.00  0.00    +0.000 A 
ATOM      6  C   UNL     1       1.232   2.358  19.231  0.00  0.00    +0.000 A 
ATOM      7  C   UNL     1       2.029   2.897  18.219  0.00  0.00    +0.000 A 
ATOM      8  C   UNL     1       2.490   4.226  18.265  0.00  0.00    +0.000 A 
ENDBRANCH   1   8
BRANCH   1   9
ATOM      9  C   UNL     1       4.433   3.784  16.894  0.00  0.00    +0.000 C 
BRANCH   9  10
ATOM     10  C   UNL     1       5.203   4.461  15.762  0.00  0.00    +0.000 C 
BRANCH  10  11
ATOM     11  C   UNL     1       6.710   4.341  15.969  0.00  0.00    +0.000 C 
BRANCH  11  12
ATOM     12  N   UNL     1       7.187   5.177  17.052  0.00  0.00    +0.000 N 
ATOM     13  C   UNL     1       7.640   4.747  18.267  0.00  0.00    +0.000 A 
ATOM     14  C   UNL     1       7.919   5.899  18.965  0.00  0.00    +0.000 A 
ATOM     15  N   UNL     1       7.650   7.007  18.204  0.00  0.00    +0.000 NA
ATOM     16  C   UNL     1       7.208   6.542  17.058  0.00  0.00    +0.000 A 
ENDBRANCH  11  12
ENDBRANCH  10  11
ENDBRANCH   9  10
ENDBRANCH   1   9
TORSDOF 5
ENDMDL
MODEL 2
REMARK VINA RESULT:      -6.0      2.911      5.695
REMARK  Name = 
REMARK  5 active torsions:
REMARK  status: ('A' for Active; 'I' for Inactive)
REMARK    1  A    between atoms: C_7  and  O_8
REMARK    2  A    between atoms: O_8  and  C_9
REMARK    3  A    between atoms: C_9  and  C_10
REMARK    4  A    between atoms: C_10  and  C_11
REMARK    5  A    between atoms: C_11  and  N_12
REMARK                            x       y       z     vdW  Elec       q    Type
REMARK                         _______ _______ _______ _____ _____    ______ ____
ROOT
ATOM      1  O   UNL     1       4.227   4.571  17.855  0.00  0.00    +0.000 OA
ENDROOT
BRANCH   1   8
ATOM      2 CL   UNL     1       5.076   6.803  15.534  0.00  0.00    +0.000 Cl
ATOM      3  C   UNL     1       5.843   6.308  17.003  0.00  0.00    +0.000 A 
ATOM      4  C   UNL     1       7.056   6.966  17.273  0.00  0.00    +0.000 A 
ATOM      5  C   UNL     1       7.795   6.676  18.416  0.00  0.00    +0.000 A 
ATOM      6  C   UNL     1       7.326   5.719  19.308  0.00  0.00    +0.000 A 
ATOM      7  C   UNL     1       6.123   5.061  19.045  0.00  0.00    +0.000 A 
ATOM      8  C   UNL     1       5.360   5.338  17.896  0.00  0.00    +0.000 A 
ENDBRANCH   1   8
BRANCH   1   9
ATOM      9  C   UNL     1       4.213   3.356  17.118  0.00  0.00    +0.000 C 
BRANCH   9  10
ATOM     10  C   UNL     1       2.927   2.593  17.426  0.00  0.00    +0.000 C 
BRANCH  10  11
ATOM     11  C   UNL     1       3.039   1.826  18.741  0.00  0.00    +0.000 C 
BRANCH  11  12
ATOM     12  N   UNL     1       2.460   2.550  19.854  0.00  0.00    +0.000 N 
ATOM     13  C   UNL     1       1.447   3.463  19.786  0.00  0.00    +0.000 A 
ATOM     14  C   UNL     1       1.293   3.913  21.076  0.00  0.00    +0.000 A 
ATOM     15  N   UNL     1       2.182   3.295  21.917  0.00  0.00    +0.000 NA
ATOM     16  C   UNL     1       2.874   2.482  21.152  0.00  0.00    +0.000 A 
ENDBRANCH  11  12
ENDBRANCH  10  11
ENDBRANCH   9  10
ENDBRANCH   1   9
TORSDOF 5
ENDMDL
MODEL 3
REMARK VINA RESULT:      -6.0      2.192      3.025
REMARK  Name = 
REMARK  5 active torsions:
REMARK  status: ('A' for Active; 'I' for Inactive)
REMARK    1  A    between atoms: C_7  and  O_8
REMARK    2  A    between atoms: O_8  and  C_9
REMARK    3  A    between atoms: C_9  and  C_10
REMARK    4  A    between atoms: C_10  and  C_11
REMARK    5  A    between atoms: C_11  and  N_12
REMARK                            x       y       z     vdW  Elec       q    Type
REMARK                         _______ _______ _______ _____ _____    ______ ____
ROOT
ATOM      1  O   UNL     1       4.557   4.267  19.484  0.00  0.00    +0.000 OA
ENDROOT
BRANCH   1   8
ATOM      2 CL   UNL     1       3.673   1.447  17.947  0.00  0.00    +0.000 Cl
ATOM      3  C   UNL     1       2.795   2.542  18.958  0.00  0.00    +0.000 A 
ATOM      4  C   UNL     1       1.453   2.182  19.174  0.00  0.00    +0.000 A 
ATOM      5  C   UNL     1       0.613   2.963  19.962  0.00  0.00    +0.000 A 
ATOM      6  C   UNL     1       1.110   4.121  20.548  0.00  0.00    +0.000 A 
ATOM      7  C   UNL     1       2.441   4.486  20.338  0.00  0.00    +0.000 A 
ATOM      8  C   UNL     1       3.307   3.711  19.544  0.00  0.00    +0.000 A 
ENDBRANCH   1   8
BRANCH   1   9
ATOM      9  C   UNL     1       4.715   5.628  19.107  0.00  0.00    +0.000 C 
BRANCH   9  10
ATOM     10  C   UNL     1       4.005   5.870  17.778  0.00  0.00    +0.000 C 
BRANCH  10  11
ATOM     11  C   UNL     1       4.887   6.657  16.814  0.00  0.00    +0.000 C 
BRANCH  11  12
ATOM     12  N   UNL     1       5.804   5.807  16.084  0.00  0.00    +0.000 N 
ATOM     13  C   UNL     1       5.520   5.087  14.959  0.00  0.00    +0.000 A 
ATOM     14  C   UNL     1       6.679   4.400  14.679  0.00  0.00    +0.000 A 
ATOM     15  N   UNL     1       7.651   4.689  15.601  0.00  0.00    +0.000 NA
ATOM     16  C   UNL     1       7.095   5.536  16.437  0.00  0.00    +0.000 A 
ENDBRANCH  11  12
ENDBRANCH  10  11
ENDBRANCH   9  10
ENDBRANCH   1   9
TORSDOF 5
ENDMDL
MODEL 4
REMARK VINA RESULT:      -5.9      2.920      5.373
REMARK  Name = 
REMARK  5 active torsions:
REMARK  status: ('A' for Active; 'I' for Inactive)
REMARK    1  A    between atoms: C_7  and  O_8
REMARK    2  A    between atoms: O_8  and  C_9
REMARK    3  A    between atoms: C_9  and  C_10
REMARK    4  A    between atoms: C_10  and  C_11
REMARK    5  A    between atoms: C_11  and  N_12
REMARK                            x       y       z     vdW  Elec       q    Type
REMARK                         _______ _______ _______ _____ _____    ______ ____
ROOT
ATOM      1  O   UNL     1       3.711   4.815  16.976  0.00  0.00    +0.000 OA
ENDROOT
BRANCH   1   8
ATOM      2 CL   UNL     1       6.169   3.808  14.967  0.00  0.00    +0.000 Cl
ATOM      3  C   UNL     1       6.174   4.464  16.568  0.00  0.00    +0.000 A 
ATOM      4  C   UNL     1       7.454   4.597  17.135  0.00  0.00    +0.000 A 
ATOM      5  C   UNL     1       7.624   5.107  18.419  0.00  0.00    +0.000 A 
ATOM      6  C   UNL     1       6.510   5.492  19.154  0.00  0.00    +0.000 A 
ATOM      7  C   UNL     1       5.236   5.362  18.597  0.00  0.00    +0.000 A 
ATOM      8  C   UNL     1       5.041   4.848  17.302  0.00  0.00    +0.000 A 
ENDBRANCH   1   8
BRANCH   1   9
ATOM      9  C   UNL     1       2.734   5.235  17.919  0.00  0.00    +0.000 C 
BRANCH   9  10
ATOM     10  C   UNL     1       1.555   4.266  17.891  0.00  0.00    +0.000 C 
BRANCH  10  11
ATOM     11  C   UNL     1       1.533   3.385  19.136  0.00  0.00    +0.000 C 
BRANCH  11  12
ATOM     12  N   UNL     1       2.777   2.669  19.329  0.00  0.00    +0.000 N 
ATOM     13  C   UNL     1       3.287   1.698  18.515  0.00  0.00    +0.000 A 
ATOM     14  C   UNL     1       4.440   1.285  19.140  0.00  0.00    +0.000 A 
ATOM     15  N   UNL     1       4.639   1.981  20.304  0.00  0.00    +0.000 NA
ATOM     16  C   UNL     1       3.620   2.805  20.394  0.00  0.00    +0.000 A 
ENDBRANCH  11  12
ENDBRANCH  10  11
ENDBRANCH   9  10
ENDBRANCH   1   9
TORSDOF 5
ENDMDL
MODEL 5
REMARK VINA RESULT:      -5.9      1.653      2.043
REMARK  Name = 
REMARK  5 active torsions:
REMARK  status: ('A' for Active; 'I' for Inactive)
REMARK    1  A    between atoms: C_7  and  O_8
REMARK    2  A    between atoms: O_8  and  C_9
REMARK    3  A    between atoms: C_9  and  C_10
REMARK    4  A    between atoms: C_10  and  C_11
REMARK    5  A    between atoms: C_11  and  N_12
REMARK                            x       y       z     vdW  Elec       q    Type
REMARK                         _______ _______ _______ _____ _____    ______ ____
ROOT
ATOM      1  O   UNL     1       3.812   4.468  18.169  0.00  0.00    +0.000 OA
ENDROOT
BRANCH   1   8
ATOM      2 CL   UNL     1       4.813   1.947  20.101  0.00  0.00    +0.000 Cl
ATOM      3  C   UNL     1       3.376   2.909  20.101  0.00  0.00    +0.000 A 
ATOM      4  C   UNL     1       2.449   2.565  21.101  0.00  0.00    +0.000 A 
ATOM      5  C   UNL     1       1.241   3.244  21.231  0.00  0.00    +0.000 A 
ATOM      6  C   UNL     1       0.945   4.281  20.355  0.00  0.00    +0.000 A 
ATOM      7  C   UNL     1       1.860   4.628  19.359  0.00  0.00    +0.000 A 
ATOM      8  C   UNL     1       3.086   3.954  19.211  0.00  0.00    +0.000 A 
ENDBRANCH   1   8
BRANCH   1   9
ATOM      9  C   UNL     1       4.143   3.649  17.056  0.00  0.00    +0.000 C 
BRANCH   9  10
ATOM     10  C   UNL     1       5.010   4.444  16.083  0.00  0.00    +0.000 C 
BRANCH  10  11
ATOM     11  C   UNL     1       6.493   4.269  16.394  0.00  0.00    +0.000 C 
BRANCH  11  12
ATOM     12  N   UNL     1       7.016   5.341  17.217  0.00  0.00    +0.000 N 
ATOM     13  C   UNL     1       7.066   6.664  16.885  0.00  0.00    +0.000 A 
ATOM     14  C   UNL     1       7.693   7.270  17.949  0.00  0.00    +0.000 A 
ATOM     15  N   UNL     1       8.018   6.349  18.912  0.00  0.00    +0.000 NA
ATOM     16  C   UNL     1       7.601   5.195  18.441  0.00  0.00    +0.000 A 
ENDBRANCH  11  12
ENDBRANCH  10  11
ENDBRANCH   9  10
ENDBRANCH   1   9
TORSDOF 5
ENDMDL
MODEL 6
REMARK VINA RESULT:      -5.9      1.975      2.921
REMARK  Name = 
REMARK  5 active torsions:
REMARK  status: ('A' for Active; 'I' for Inactive)
REMARK    1  A    between atoms: C_7  and  O_8
REMARK    2  A    between atoms: O_8  and  C_9
REMARK    3  A    between atoms: C_9  and  C_10
REMARK    4  A    between atoms: C_10  and  C_11
REMARK    5  A    between atoms: C_11  and  N_12
REMARK                            x       y       z     vdW  Elec       q    Type
REMARK                         _______ _______ _______ _____ _____    ______ ____
ROOT
ATOM      1  O   UNL     1       2.210   5.441  17.969  0.00  0.00    +0.000 OA
ENDROOT
BRANCH   1   8
ATOM      2 CL   UNL     1       2.496   2.171  17.404  0.00  0.00    +0.000 Cl
ATOM      3  C   UNL     1       2.280   3.083  18.858  0.00  0.00    +0.000 A 
ATOM      4  C   UNL     1       2.207   2.303  20.025  0.00  0.00    +0.000 A 
ATOM      5  C   UNL     1       2.031   2.889  21.275  0.00  0.00    +0.000 A 
ATOM      6  C   UNL     1       1.925   4.271  21.372  0.00  0.00    +0.000 A 
ATOM      7  C   UNL     1       1.995   5.052  20.217  0.00  0.00    +0.000 A 
ATOM      8  C   UNL     1       2.173   4.480  18.944  0.00  0.00    +0.000 A 
ENDBRANCH   1   8
BRANCH   1   9
ATOM      9  C   UNL     1       2.689   6.745  18.269  0.00  0.00    +0.000 C 
BRANCH   9  10
ATOM     10  C   UNL     1       3.998   6.986  17.521  0.00  0.00    +0.000 C 
BRANCH  10  11
ATOM     11  C   UNL     1       5.060   5.966  17.922  0.00  0.00    +0.000 C 
BRANCH  11  12
ATOM     12  N   UNL     1       5.787   5.448  16.781  0.00  0.00    +0.000 N 
ATOM     13  C   UNL     1       5.401   4.411  15.980  0.00  0.00    +0.000 A 
ATOM     14  C   UNL     1       6.434   4.256  15.085  0.00  0.00    +0.000 A 
ATOM     15  N   UNL     1       7.427   5.171  15.324  0.00  0.00    +0.000 NA
ATOM     16  C   UNL     1       7.011   5.873  16.354  0.00  0.00    +0.000 A 
ENDBRANCH  11  12
ENDBRANCH  10  11
ENDBRANCH   9  10
ENDBRANCH   1   9
TORSDOF 5
ENDMDL
MODEL 7
REMARK VINA RESULT:      -5.8      2.098      3.225
REMARK  Name = 
REMARK  5 active torsions:
REMARK  status: ('A' for Active; 'I' for Inactive)
REMARK    1  A    between atoms: C_7  and  O_8
REMARK    2  A    between atoms: O_8  and  C_9
REMARK    3  A    between atoms: C_9  and  C_10
REMARK    4  A    between atoms: C_10  and  C_11
REMARK    5  A    between atoms: C_11  and  N_12
REMARK                            x       y       z     vdW  Elec       q    Type
REMARK                         _______ _______ _______ _____ _____    ______ ____
ROOT
ATOM      1  O   UNL     1       4.665   4.141  19.786  0.00  0.00    +0.000 OA
ENDROOT
BRANCH   1   8
ATOM      2 CL   UNL     1       3.792   1.252  18.377  0.00  0.00    +0.000 Cl
ATOM      3  C   UNL     1       2.869   2.485  19.165  0.00  0.00    +0.000 A 
ATOM      4  C   UNL     1       1.488   2.227  19.222  0.00  0.00    +0.000 A 
ATOM      5  C   UNL     1       0.610   3.125  19.821  0.00  0.00    +0.000 A 
ATOM      6  C   UNL     1       1.107   4.299  20.374  0.00  0.00    +0.000 A 
ATOM      7  C   UNL     1       2.477   4.563  20.320  0.00  0.00    +0.000 A 
ATOM      8  C   UNL     1       3.382   3.669  19.718  0.00  0.00    +0.000 A 
ENDBRANCH   1   8
BRANCH   1   9
ATOM      9  C   UNL     1       4.983   5.423  19.262  0.00  0.00    +0.000 C 
BRANCH   9  10
ATOM     10  C   UNL     1       6.470   5.475  18.920  0.00  0.00    +0.000 C 
BRANCH  10  11
ATOM     11  C   UNL     1       6.718   6.278  17.647  0.00  0.00    +0.000 C 
BRANCH  11  12
ATOM     12  N   UNL     1       6.408   5.525  16.449  0.00  0.00    +0.000 N 
ATOM     13  C   UNL     1       5.427   5.813  15.544  0.00  0.00    +0.000 A 
ATOM     14  C   UNL     1       5.484   4.790  14.627  0.00  0.00    +0.000 A 
ATOM     15  N   UNL     1       6.472   3.897  14.953  0.00  0.00    +0.000 NA
ATOM     16  C   UNL     1       7.009   4.364  16.057  0.00  0.00    +0.000 A 
ENDBRANCH  11  12
ENDBRANCH  10  11
ENDBRANCH   9  10
ENDBRANCH   1   9
TORSDOF 5
ENDMDL
MODEL 8
REMARK VINA RESULT:      -5.8      3.096      5.983
REMARK  Name = 
REMARK  5 active torsions:
REMARK  status: ('A' for Active; 'I' for Inactive)
REMARK    1  A    between atoms: C_7  and  O_8
REMARK    2  A    between atoms: O_8  and  C_9
REMARK    3  A    between atoms: C_9  and  C_10
REMARK    4  A    between atoms: C_10  and  C_11
REMARK    5  A    between atoms: C_11  and  N_12
REMARK                            x       y       z     vdW  Elec       q    Type
REMARK                         _______ _______ _______ _____ _____    ______ ____
ROOT
ATOM      1  O   UNL     1       4.774   4.237  18.391  0.00  0.00    +0.000 OA
ENDROOT
BRANCH   1   8
ATOM      2 CL   UNL     1       7.936   5.279  18.468  0.00  0.00    +0.000 Cl
ATOM      3  C   UNL     1       6.885   4.859  17.161  0.00  0.00    +0.000 A 
ATOM      4  C   UNL     1       7.468   4.981  15.887  0.00  0.00    +0.000 A 
ATOM      5  C   UNL     1       6.750   4.682  14.733  0.00  0.00    +0.000 A 
ATOM      6  C   UNL     1       5.432   4.255  14.841  0.00  0.00    +0.000 A 
ATOM      7  C   UNL     1       4.846   4.133  16.102  0.00  0.00    +0.000 A 
ATOM      8  C   UNL     1       5.554   4.430  17.281  0.00  0.00    +0.000 A 
ENDBRANCH   1   8
BRANCH   1   9
ATOM      9  C   UNL     1       4.542   5.308  19.296  0.00  0.00    +0.000 C 
BRANCH   9  10
ATOM     10  C   UNL     1       3.269   6.045  18.889  0.00  0.00    +0.000 C 
BRANCH  10  11
ATOM     11  C   UNL     1       2.242   6.040  20.018  0.00  0.00    +0.000 C 
BRANCH  11  12
ATOM     12  N   UNL     1       1.849   4.700  20.402  0.00  0.00    +0.000 N 
ATOM     13  C   UNL     1       2.161   4.069  21.572  0.00  0.00    +0.000 A 
ATOM     14  C   UNL     1       1.621   2.810  21.447  0.00  0.00    +0.000 A 
ATOM     15  N   UNL     1       0.990   2.668  20.238  0.00  0.00    +0.000 NA
ATOM     16  C   UNL     1       1.147   3.822  19.628  0.00  0.00    +0.000 A 
ENDBRANCH  11  12
ENDBRANCH  10  11
ENDBRANCH   9  10
ENDBRANCH   1   9
TORSDOF 5
ENDMDL
MODEL 9
REMARK VINA RESULT:      -5.8      1.516      2.782
REMARK  Name = 
REMARK  5 active torsions:
REMARK  status: ('A' for Active; 'I' for Inactive)
REMARK    1  A    between atoms: C_7  and  O_8
REMARK    2  A    between atoms: O_8  and  C_9
REMARK    3  A    between atoms: C_9  and  C_10
REMARK    4  A    between atoms: C_10  and  C_11
REMARK    5  A    between atoms: C_11  and  N_12
REMARK                            x       y       z     vdW  Elec       q    Type
REMARK                         _______ _______ _______ _____ _____    ______ ____
ROOT
ATOM      1  O   UNL     1       5.249   4.024  18.796  0.00  0.00    +0.000 OA
ENDROOT
BRANCH   1   8
ATOM      2 CL   UNL     1       2.989   6.269  17.823  0.00  0.00    +0.000 Cl
ATOM      3  C   UNL     1       2.852   4.605  18.274  0.00  0.00    +0.000 A 
ATOM      4  C   UNL     1       1.541   4.098  18.225  0.00  0.00    +0.000 A 
ATOM      5  C   UNL     1       1.265   2.776  18.562  0.00  0.00    +0.000 A 
ATOM      6  C   UNL     1       2.304   1.941  18.953  0.00  0.00    +0.000 A 
ATOM      7  C   UNL     1       3.608   2.437  19.004  0.00  0.00    +0.000 A 
ATOM      8  C   UNL     1       3.909   3.770  18.669  0.00  0.00    +0.000 A 
ENDBRANCH   1   8
BRANCH   1   9
ATOM      9  C   UNL     1       5.693   5.266  19.325  0.00  0.00    +0.000 C 
BRANCH   9  10
ATOM     10  C   UNL     1       7.107   5.550  18.823  0.00  0.00    +0.000 C 
BRANCH  10  11
ATOM     11  C   UNL     1       7.084   6.381  17.543  0.00  0.00    +0.000 C 
BRANCH  11  12
ATOM     12  N   UNL     1       6.630   5.618  16.398  0.00  0.00    +0.000 N 
ATOM     13  C   UNL     1       5.529   5.884  15.634  0.00  0.00    +0.000 A 
ATOM     14  C   UNL     1       5.482   4.859  14.718  0.00  0.00    +0.000 A 
ATOM     15  N   UNL     1       6.524   3.988  14.907  0.00  0.00    +0.000 NA
ATOM     16  C   UNL     1       7.196   4.469  15.929  0.00  0.00    +0.000 A 
ENDBRANCH  11  12
ENDBRANCH  10  11
ENDBRANCH   9  10
ENDBRANCH   1   9
TORSDOF 5
ENDMDL
