MODEL 1
REMARK VINA RESULT:      -8.2      0.000      0.000
REMARK  Name = 
REMARK  4 active torsions:
REMARK  status: ('A' for Active; 'I' for Inactive)
REMARK    1  A    between atoms: C_2  and  C_12
REMARK    2  A    between atoms: N_3  and  C_4
REMARK    3  A    between atoms: N_15  and  C_16
REMARK    4  A    between atoms: N_27  and  O_28
REMARK                            x       y       z     vdW  Elec       q    Type
REMARK                         _______ _______ _______ _____ _____    ______ ____
ROOT
ATOM      1  C   UNL     1       2.529   5.197  19.157  0.00  0.00    +0.000 C 
ATOM      2  C   UNL     1       3.565   5.758  18.235  0.00  0.00    +0.000 C 
ATOM      3  O   UNL     1       3.536   6.904  17.803  0.00  0.00    +0.000 OA
ATOM      4  N   UNL     1       4.514   4.772  17.995  0.00  0.00    +0.000 N 
ATOM      5  C   UNL     1       4.461   3.765  18.932  0.00  0.00    +0.000 C 
ATOM      6  O   UNL     1       5.135   2.762  19.040  0.00  0.00    +0.000 OA
ATOM      7  C   UNL     1       3.261   4.074  19.805  0.00  0.00    +0.000 C 
ATOM      8  N   UNL     1       2.870   3.478  20.884  0.00  0.00    +0.000 NA
ENDROOT
BRANCH   4   9
ATOM      9  C   UNL     1       5.374   4.767  16.854  0.00  0.00    +0.000 A 
ATOM     10  C   UNL     1       6.617   5.421  16.910  0.00  0.00    +0.000 A 
ATOM     11  C   UNL     1       7.431   5.540  15.779  0.00  0.00    +0.000 A 
ATOM     12  C   UNL     1       7.029   4.992  14.565  0.00  0.00    +0.000 A 
ATOM     13 CL   UNL     1       8.076   5.191  13.207  0.00  0.00    +0.000 Cl
ATOM     14  C   UNL     1       5.807   4.320  14.488  0.00  0.00    +0.000 A 
ATOM     15 CL   UNL     1       5.241   3.609  13.017  0.00  0.00    +0.000 Cl
ATOM     16  C   UNL     1       4.988   4.212  15.624  0.00  0.00    +0.000 A 
ENDBRANCH   4   9
BRANCH   1  18
ATOM     17  O   UNL     1       0.927   5.628  20.827  0.00  0.00    +0.000 OA
ATOM     18  C   UNL     1       1.765   6.116  20.070  0.00  0.00    +0.000 C 
ATOM     19  N   UNL     1       1.972   7.478  19.928  0.00  0.00    +0.000 N 
ATOM     20  H   UNL     1       2.530   7.794  19.131  0.00  0.00    +0.000 HD
BRANCH  19  21
ATOM     21  C   UNL     1       1.295   8.492  20.651  0.00  0.00    +0.000 A 
ATOM     22  C   UNL     1       1.309   8.576  22.049  0.00  0.00    +0.000 A 
ATOM     23  C   UNL     1       0.582   9.564  22.718  0.00  0.00    +0.000 A 
ATOM     24  C   UNL     1      -0.167  10.493  21.995  0.00  0.00    +0.000 A 
ATOM     25 CL   UNL     1      -1.056  11.674  22.887  0.00  0.00    +0.000 Cl
ATOM     26  C   UNL     1      -0.169  10.435  20.600  0.00  0.00    +0.000 A 
ATOM     27 CL   UNL     1      -1.081  11.545  19.636  0.00  0.00    +0.000 Cl
ATOM     28  C   UNL     1       0.570   9.446  19.931  0.00  0.00    +0.000 A 
ENDBRANCH  19  21
ENDBRANCH   1  18
BRANCH   8  29
ATOM     29  O   UNL     1       3.728   2.453  21.270  0.00  0.00    +0.000 OA
ATOM     30  H   UNL     1       4.440   2.506  20.603  0.00  0.00    +0.000 HD
ENDBRANCH   8  29
TORSDOF 4
ENDMDL
MODEL 2
REMARK VINA RESULT:      -7.8      3.918      5.526
REMARK  Name = 
REMARK  4 active torsions:
REMARK  status: ('A' for Active; 'I' for Inactive)
REMARK    1  A    between atoms: C_2  and  C_12
REMARK    2  A    between atoms: N_3  and  C_4
REMARK    3  A    between atoms: N_15  and  C_16
REMARK    4  A    between atoms: N_27  and  O_28
REMARK                            x       y       z     vdW  Elec       q    Type
REMARK                         _______ _______ _______ _____ _____    ______ ____
ROOT
ATOM      1  C   UNL     1       0.490   9.923  19.041  0.00  0.00    +0.000 C 
ATOM      2  C   UNL     1       1.651   9.295  18.338  0.00  0.00    +0.000 C 
ATOM      3  O   UNL     1       2.164   9.763  17.329  0.00  0.00    +0.000 OA
ATOM      4  N   UNL     1       2.011   8.146  19.032  0.00  0.00    +0.000 N 
ATOM      5  C   UNL     1       1.502   8.135  20.311  0.00  0.00    +0.000 C 
ATOM      6  O   UNL     1       1.618   7.307  21.190  0.00  0.00    +0.000 OA
ATOM      7  C   UNL     1       0.610   9.355  20.413  0.00  0.00    +0.000 C 
ATOM      8  N   UNL     1       0.002   9.829  21.451  0.00  0.00    +0.000 NA
ENDROOT
BRANCH   4   9
ATOM      9  C   UNL     1       2.744   7.069  18.446  0.00  0.00    +0.000 A 
ATOM     10  C   UNL     1       3.988   7.315  17.839  0.00  0.00    +0.000 A 
ATOM     11  C   UNL     1       4.677   6.311  17.152  0.00  0.00    +0.000 A 
ATOM     12  C   UNL     1       4.145   5.027  17.069  0.00  0.00    +0.000 A 
ATOM     13 CL   UNL     1       5.041   3.841  16.191  0.00  0.00    +0.000 Cl
ATOM     14  C   UNL     1       2.920   4.752  17.680  0.00  0.00    +0.000 A 
ATOM     15 CL   UNL     1       2.197   3.183  17.624  0.00  0.00    +0.000 Cl
ATOM     16  C   UNL     1       2.227   5.768  18.360  0.00  0.00    +0.000 A 
ENDBRANCH   4   9
BRANCH   1  18
ATOM     17  O   UNL     1      -0.702  11.820  18.318  0.00  0.00    +0.000 OA
ATOM     18  C   UNL     1       0.273  11.408  18.946  0.00  0.00    +0.000 C 
ATOM     19  N   UNL     1       1.248  12.234  19.480  0.00  0.00    +0.000 N 
ATOM     20  H   UNL     1       2.118  11.800  19.794  0.00  0.00    +0.000 HD
BRANCH  19  21
ATOM     21  C   UNL     1       1.245  13.650  19.425  0.00  0.00    +0.000 A 
ATOM     22  C   UNL     1       0.387  14.447  20.191  0.00  0.00    +0.000 A 
ATOM     23  C   UNL     1       0.386  15.838  20.061  0.00  0.00    +0.000 A 
ATOM     24  C   UNL     1       1.256  16.458  19.164  0.00  0.00    +0.000 A 
ATOM     25 CL   UNL     1       1.189  18.178  19.041  0.00  0.00    +0.000 Cl
ATOM     26  C   UNL     1       2.136  15.676  18.411  0.00  0.00    +0.000 A 
ATOM     27 CL   UNL     1       3.236  16.371  17.272  0.00  0.00    +0.000 Cl
ATOM     28  C   UNL     1       2.139  14.279  18.552  0.00  0.00    +0.000 A 
ENDBRANCH  19  21
ENDBRANCH   1  18
BRANCH   8  29
ATOM     29  O   UNL     1       0.275   9.105  22.608  0.00  0.00    +0.000 OA
ATOM     30  H   UNL     1       1.242   9.207  22.702  0.00  0.00    +0.000 HD
ENDBRANCH   8  29
TORSDOF 4
ENDMDL
MODEL 3
REMARK VINA RESULT:      -7.8      4.086     10.336
REMARK  Name = 
REMARK  4 active torsions:
REMARK  status: ('A' for Active; 'I' for Inactive)
REMARK    1  A    between atoms: C_2  and  C_12
REMARK    2  A    between atoms: N_3  and  C_4
REMARK    3  A    between atoms: N_15  and  C_16
REMARK    4  A    between atoms: N_27  and  O_28
REMARK                            x       y       z     vdW  Elec       q    Type
REMARK                         _______ _______ _______ _____ _____    ______ ____
ROOT
ATOM      1  C   UNL     1       0.204   9.581  21.042  0.00  0.00    +0.000 C 
ATOM      2  C   UNL     1      -0.103  10.433  22.233  0.00  0.00    +0.000 C 
ATOM      3  O   UNL     1      -0.039  10.029  23.387  0.00  0.00    +0.000 OA
ATOM      4  N   UNL     1      -0.444  11.703  21.784  0.00  0.00    +0.000 N 
ATOM      5  C   UNL     1      -0.031  11.921  20.488  0.00  0.00    +0.000 C 
ATOM      6  O   UNL     1      -0.148  12.903  19.786  0.00  0.00    +0.000 OA
ATOM      7  C   UNL     1       0.530  10.599  20.005  0.00  0.00    +0.000 C 
ATOM      8  N   UNL     1       1.137  10.335  18.893  0.00  0.00    +0.000 NA
ENDROOT
BRANCH   4   9
ATOM      9  C   UNL     1      -1.213  12.631  22.551  0.00  0.00    +0.000 A 
ATOM     10  C   UNL     1      -0.677  13.890  22.871  0.00  0.00    +0.000 A 
ATOM     11  C   UNL     1      -1.350  14.775  23.720  0.00  0.00    +0.000 A 
ATOM     12  C   UNL     1      -2.587  14.428  24.258  0.00  0.00    +0.000 A 
ATOM     13 CL   UNL     1      -3.352  15.562  25.310  0.00  0.00    +0.000 Cl
ATOM     14  C   UNL     1      -3.148  13.190  23.939  0.00  0.00    +0.000 A 
ATOM     15 CL   UNL     1      -4.681  12.689  24.564  0.00  0.00    +0.000 Cl
ATOM     16  C   UNL     1      -2.464  12.300  23.095  0.00  0.00    +0.000 A 
ENDBRANCH   4   9
BRANCH   1  18
ATOM     17  O   UNL     1       2.014   8.472  22.059  0.00  0.00    +0.000 OA
ATOM     18  C   UNL     1       1.160   8.428  21.175  0.00  0.00    +0.000 C 
ATOM     19  N   UNL     1       1.093   7.427  20.220  0.00  0.00    +0.000 N 
ATOM     20  H   UNL     1       0.491   7.583  19.409  0.00  0.00    +0.000 HD
BRANCH  19  21
ATOM     21  C   UNL     1       1.953   6.302  20.147  0.00  0.00    +0.000 A 
ATOM     22  C   UNL     1       3.139   6.290  19.404  0.00  0.00    +0.000 A 
ATOM     23  C   UNL     1       3.925   5.138  19.321  0.00  0.00    +0.000 A 
ATOM     24  C   UNL     1       3.540   3.977  19.991  0.00  0.00    +0.000 A 
ATOM     25 CL   UNL     1       4.548   2.586  19.830  0.00  0.00    +0.000 Cl
ATOM     26  C   UNL     1       2.371   3.983  20.757  0.00  0.00    +0.000 A 
ATOM     27 CL   UNL     1       1.824   2.581  21.607  0.00  0.00    +0.000 Cl
ATOM     28  C   UNL     1       1.589   5.146  20.845  0.00  0.00    +0.000 A 
ENDBRANCH  19  21
ENDBRANCH   1  18
BRANCH   8  29
ATOM     29  O   UNL     1       1.306  11.462  18.096  0.00  0.00    +0.000 OA
ATOM     30  H   UNL     1       0.400  11.824  18.039  0.00  0.00    +0.000 HD
ENDBRANCH   8  29
TORSDOF 4
ENDMDL
MODEL 4
REMARK VINA RESULT:      -7.8      3.952      9.782
REMARK  Name = 
REMARK  4 active torsions:
REMARK  status: ('A' for Active; 'I' for Inactive)
REMARK    1  A    between atoms: C_2  and  C_12
REMARK    2  A    between atoms: N_3  and  C_4
REMARK    3  A    between atoms: N_15  and  C_16
REMARK    4  A    between atoms: N_27  and  O_28
REMARK                            x       y       z     vdW  Elec       q    Type
REMARK                         _______ _______ _______ _____ _____    ______ ____
ROOT
ATOM      1  C   UNL     1       0.790   9.922  18.808  0.00  0.00    +0.000 C 
ATOM      2  C   UNL     1       0.022  10.155  20.071  0.00  0.00    +0.000 C 
ATOM      3  O   UNL     1      -0.419   9.251  20.770  0.00  0.00    +0.000 OA
ATOM      4  N   UNL     1      -0.071  11.526  20.278  0.00  0.00    +0.000 N 
ATOM      5  C   UNL     1       0.857  12.224  19.538  0.00  0.00    +0.000 C 
ATOM      6  O   UNL     1       1.069  13.417  19.476  0.00  0.00    +0.000 OA
ATOM      7  C   UNL     1       1.545  11.197  18.662  0.00  0.00    +0.000 C 
ATOM      8  N   UNL     1       2.562  11.353  17.877  0.00  0.00    +0.000 NA
ENDROOT
BRANCH   4   9
ATOM      9  C   UNL     1      -1.075  12.134  21.091  0.00  0.00    +0.000 A 
ATOM     10  C   UNL     1      -0.883  12.241  22.479  0.00  0.00    +0.000 A 
ATOM     11  C   UNL     1      -1.893  12.720  23.321  0.00  0.00    +0.000 A 
ATOM     12  C   UNL     1      -3.117  13.119  22.792  0.00  0.00    +0.000 A 
ATOM     13 CL   UNL     1      -4.321  13.683  23.891  0.00  0.00    +0.000 Cl
ATOM     14  C   UNL     1      -3.325  13.040  21.414  0.00  0.00    +0.000 A 
ATOM     15 CL   UNL     1      -4.816  13.520  20.681  0.00  0.00    +0.000 Cl
ATOM     16  C   UNL     1      -2.312  12.548  20.573  0.00  0.00    +0.000 A 
ENDBRANCH   4   9
BRANCH   1  18
ATOM     17  O   UNL     1       1.907   8.317  17.498  0.00  0.00    +0.000 OA
ATOM     18  C   UNL     1       1.576   8.652  18.635  0.00  0.00    +0.000 C 
ATOM     19  N   UNL     1       1.789   7.871  19.759  0.00  0.00    +0.000 N 
ATOM     20  H   UNL     1       1.296   8.129  20.617  0.00  0.00    +0.000 HD
BRANCH  19  21
ATOM     21  C   UNL     1       2.447   6.617  19.776  0.00  0.00    +0.000 A 
ATOM     22  C   UNL     1       3.621   6.356  19.058  0.00  0.00    +0.000 A 
ATOM     23  C   UNL     1       4.202   5.086  19.065  0.00  0.00    +0.000 A 
ATOM     24  C   UNL     1       3.621   4.054  19.800  0.00  0.00    +0.000 A 
ATOM     25 CL   UNL     1       4.382   2.505  19.749  0.00  0.00    +0.000 Cl
ATOM     26  C   UNL     1       2.464   4.306  20.541  0.00  0.00    +0.000 A 
ATOM     27 CL   UNL     1       1.680   3.075  21.468  0.00  0.00    +0.000 Cl
ATOM     28  C   UNL     1       1.887   5.587  20.538  0.00  0.00    +0.000 A 
ENDBRANCH  19  21
ENDBRANCH   1  18
BRANCH   8  29
ATOM     29  O   UNL     1       3.076  12.645  17.919  0.00  0.00    +0.000 OA
ATOM     30  H   UNL     1       2.278  13.190  18.063  0.00  0.00    +0.000 HD
ENDBRANCH   8  29
TORSDOF 4
ENDMDL
MODEL 5
REMARK VINA RESULT:      -7.7      3.922      5.617
REMARK  Name = 
REMARK  4 active torsions:
REMARK  status: ('A' for Active; 'I' for Inactive)
REMARK    1  A    between atoms: C_2  and  C_12
REMARK    2  A    between atoms: N_3  and  C_4
REMARK    3  A    between atoms: N_15  and  C_16
REMARK    4  A    between atoms: N_27  and  O_28
REMARK                            x       y       z     vdW  Elec       q    Type
REMARK                         _______ _______ _______ _____ _____    ______ ____
ROOT
ATOM      1  C   UNL     1       0.490  10.045  19.107  0.00  0.00    +0.000 C 
ATOM      2  C   UNL     1       1.603   9.407  18.337  0.00  0.00    +0.000 C 
ATOM      3  O   UNL     1       2.088   9.893  17.323  0.00  0.00    +0.000 OA
ATOM      4  N   UNL     1       1.956   8.227  18.979  0.00  0.00    +0.000 N 
ATOM      5  C   UNL     1       1.498   8.188  20.277  0.00  0.00    +0.000 C 
ATOM      6  O   UNL     1       1.625   7.330  21.125  0.00  0.00    +0.000 OA
ATOM      7  C   UNL     1       0.649   9.430  20.454  0.00  0.00    +0.000 C 
ATOM      8  N   UNL     1       0.097   9.888  21.531  0.00  0.00    +0.000 NA
ENDROOT
BRANCH   4   9
ATOM      9  C   UNL     1       2.632   7.148  18.331  0.00  0.00    +0.000 A 
ATOM     10  C   UNL     1       2.038   5.876  18.282  0.00  0.00    +0.000 A 
ATOM     11  C   UNL     1       2.721   4.771  17.764  0.00  0.00    +0.000 A 
ATOM     12  C   UNL     1       4.013   4.915  17.265  0.00  0.00    +0.000 A 
ATOM     13 CL   UNL     1       4.801   3.506  16.657  0.00  0.00    +0.000 Cl
ATOM     14  C   UNL     1       4.618   6.173  17.285  0.00  0.00    +0.000 A 
ATOM     15 CL   UNL     1       6.217   6.433  16.682  0.00  0.00    +0.000 Cl
ATOM     16  C   UNL     1       3.932   7.278  17.817  0.00  0.00    +0.000 A 
ENDBRANCH   4   9
BRANCH   1  18
ATOM     17  O   UNL     1      -0.670  11.998  18.489  0.00  0.00    +0.000 OA
ATOM     18  C   UNL     1       0.314  11.538  19.067  0.00  0.00    +0.000 C 
ATOM     19  N   UNL     1       1.332  12.318  19.591  0.00  0.00    +0.000 N 
ATOM     20  H   UNL     1       2.200  11.849  19.859  0.00  0.00    +0.000 HD
BRANCH  19  21
ATOM     21  C   UNL     1       1.369  13.735  19.581  0.00  0.00    +0.000 A 
ATOM     22  C   UNL     1       0.655  14.528  20.486  0.00  0.00    +0.000 A 
ATOM     23  C   UNL     1       0.683  15.922  20.401  0.00  0.00    +0.000 A 
ATOM     24  C   UNL     1       1.438  16.548  19.409  0.00  0.00    +0.000 A 
ATOM     25 CL   UNL     1       1.413  18.273  19.350  0.00  0.00    +0.000 Cl
ATOM     26  C   UNL     1       2.175  15.769  18.514  0.00  0.00    +0.000 A 
ATOM     27 CL   UNL     1       3.126  16.472  17.252  0.00  0.00    +0.000 Cl
ATOM     28  C   UNL     1       2.151  14.368  18.609  0.00  0.00    +0.000 A 
ENDBRANCH  19  21
ENDBRANCH   1  18
BRANCH   8  29
ATOM     29  O   UNL     1       0.395   9.119  22.652  0.00  0.00    +0.000 OA
ATOM     30  H   UNL     1       1.371   9.089  22.639  0.00  0.00    +0.000 HD
ENDBRANCH   8  29
TORSDOF 4
ENDMDL
MODEL 6
REMARK VINA RESULT:      -7.6      4.155     10.479
REMARK  Name = 
REMARK  4 active torsions:
REMARK  status: ('A' for Active; 'I' for Inactive)
REMARK    1  A    between atoms: C_2  and  C_12
REMARK    2  A    between atoms: N_3  and  C_4
REMARK    3  A    between atoms: N_15  and  C_16
REMARK    4  A    between atoms: N_27  and  O_28
REMARK                            x       y       z     vdW  Elec       q    Type
REMARK                         _______ _______ _______ _____ _____    ______ ____
ROOT
ATOM      1  C   UNL     1       0.091   9.634  21.182  0.00  0.00    +0.000 C 
ATOM      2  C   UNL     1      -0.174  10.479  22.388  0.00  0.00    +0.000 C 
ATOM      3  O   UNL     1      -0.048  10.074  23.537  0.00  0.00    +0.000 OA
ATOM      4  N   UNL     1      -0.560  11.742  21.958  0.00  0.00    +0.000 N 
ATOM      5  C   UNL     1      -0.214  11.969  20.645  0.00  0.00    +0.000 C 
ATOM      6  O   UNL     1      -0.383  12.950  19.951  0.00  0.00    +0.000 OA
ATOM      7  C   UNL     1       0.347  10.659  20.132  0.00  0.00    +0.000 C 
ATOM      8  N   UNL     1       0.905  10.407  18.992  0.00  0.00    +0.000 NA
ENDROOT
BRANCH   4   9
ATOM      9  C   UNL     1      -1.308  12.654  22.763  0.00  0.00    +0.000 A 
ATOM     10  C   UNL     1      -2.652  12.379  23.071  0.00  0.00    +0.000 A 
ATOM     11  C   UNL     1      -3.449  13.303  23.754  0.00  0.00    +0.000 A 
ATOM     12  C   UNL     1      -2.916  14.523  24.160  0.00  0.00    +0.000 A 
ATOM     13 CL   UNL     1      -3.962  15.623  24.983  0.00  0.00    +0.000 Cl
ATOM     14  C   UNL     1      -1.578  14.813  23.883  0.00  0.00    +0.000 A 
ATOM     15 CL   UNL     1      -0.844  16.304  24.358  0.00  0.00    +0.000 Cl
ATOM     16  C   UNL     1      -0.785  13.885  23.187  0.00  0.00    +0.000 A 
ENDBRANCH   4   9
BRANCH   1  18
ATOM     17  O   UNL     1       1.948   8.541  22.130  0.00  0.00    +0.000 OA
ATOM     18  C   UNL     1       1.073   8.498  21.266  0.00  0.00    +0.000 C 
ATOM     19  N   UNL     1       1.003   7.516  20.291  0.00  0.00    +0.000 N 
ATOM     20  H   UNL     1       0.379   7.677  19.498  0.00  0.00    +0.000 HD
BRANCH  19  21
ATOM     21  C   UNL     1       1.884   6.412  20.173  0.00  0.00    +0.000 A 
ATOM     22  C   UNL     1       3.043   6.435  19.388  0.00  0.00    +0.000 A 
ATOM     23  C   UNL     1       3.850   5.302  19.262  0.00  0.00    +0.000 A 
ATOM     24  C   UNL     1       3.514   4.125  19.930  0.00  0.00    +0.000 A 
ATOM     25 CL   UNL     1       4.546   2.758  19.715  0.00  0.00    +0.000 Cl
ATOM     26  C   UNL     1       2.374   4.096  20.737  0.00  0.00    +0.000 A 
ATOM     27 CL   UNL     1       1.888   2.671  21.588  0.00  0.00    +0.000 Cl
ATOM     28  C   UNL     1       1.570   5.240  20.868  0.00  0.00    +0.000 A 
ENDBRANCH  19  21
ENDBRANCH   1  18
BRANCH   8  29
ATOM     29  O   UNL     1       1.015  11.538  18.189  0.00  0.00    +0.000 OA
ATOM     30  H   UNL     1       1.844  11.375  17.700  0.00  0.00    +0.000 HD
ENDBRANCH   8  29
TORSDOF 4
ENDMDL
MODEL 7
REMARK VINA RESULT:      -7.6      4.436      6.450
REMARK  Name = 
REMARK  4 active torsions:
REMARK  status: ('A' for Active; 'I' for Inactive)
REMARK    1  A    between atoms: C_2  and  C_12
REMARK    2  A    between atoms: N_3  and  C_4
REMARK    3  A    between atoms: N_15  and  C_16
REMARK    4  A    between atoms: N_27  and  O_28
REMARK                            x       y       z     vdW  Elec       q    Type
REMARK                         _______ _______ _______ _____ _____    ______ ____
ROOT
ATOM      1  C   UNL     1       0.082  10.417  19.359  0.00  0.00    +0.000 C 
ATOM      2  C   UNL     1       1.177   9.597  18.752  0.00  0.00    +0.000 C 
ATOM      3  O   UNL     1       1.625   9.793  17.629  0.00  0.00    +0.000 OA
ATOM      4  N   UNL     1       1.561   8.633  19.675  0.00  0.00    +0.000 N 
ATOM      5  C   UNL     1       1.146   8.944  20.951  0.00  0.00    +0.000 C 
ATOM      6  O   UNL     1       1.308   8.345  21.993  0.00  0.00    +0.000 OA
ATOM      7  C   UNL     1       0.289  10.186  20.816  0.00  0.00    +0.000 C 
ATOM      8  N   UNL     1      -0.233  10.916  21.748  0.00  0.00    +0.000 NA
ENDROOT
BRANCH   4   9
ATOM      9  C   UNL     1       2.228   7.421  19.318  0.00  0.00    +0.000 A 
ATOM     10  C   UNL     1       3.046   7.381  18.176  0.00  0.00    +0.000 A 
ATOM     11  C   UNL     1       3.617   6.185  17.729  0.00  0.00    +0.000 A 
ATOM     12  C   UNL     1       3.397   4.999  18.424  0.00  0.00    +0.000 A 
ATOM     13 CL   UNL     1       4.119   3.559  17.805  0.00  0.00    +0.000 Cl
ATOM     14  C   UNL     1       2.603   5.017  19.573  0.00  0.00    +0.000 A 
ATOM     15 CL   UNL     1       2.286   3.587  20.491  0.00  0.00    +0.000 Cl
ATOM     16  C   UNL     1       2.023   6.218  20.012  0.00  0.00    +0.000 A 
ENDBRANCH   4   9
BRANCH   1  18
ATOM     17  O   UNL     1      -0.890  12.078  18.003  0.00  0.00    +0.000 OA
ATOM     18  C   UNL     1      -0.110  11.844  18.925  0.00  0.00    +0.000 C 
ATOM     19  N   UNL     1       0.688  12.808  19.520  0.00  0.00    +0.000 N 
ATOM     20  H   UNL     1       1.448  12.489  20.124  0.00  0.00    +0.000 HD
BRANCH  19  21
ATOM     21  C   UNL     1       0.692  14.187  19.192  0.00  0.00    +0.000 A 
ATOM     22  C   UNL     1      -0.428  15.013  19.337  0.00  0.00    +0.000 A 
ATOM     23  C   UNL     1      -0.387  16.355  18.950  0.00  0.00    +0.000 A 
ATOM     24  C   UNL     1       0.783  16.896  18.418  0.00  0.00    +0.000 A 
ATOM     25 CL   UNL     1       0.756  18.555  17.943  0.00  0.00    +0.000 Cl
ATOM     26  C   UNL     1       1.915  16.088  18.291  0.00  0.00    +0.000 A 
ATOM     27 CL   UNL     1       3.399  16.683  17.630  0.00  0.00    +0.000 Cl
ATOM     28  C   UNL     1       1.873  14.742  18.690  0.00  0.00    +0.000 A 
ENDBRANCH  19  21
ENDBRANCH   1  18
BRANCH   8  29
ATOM     29  O   UNL     1       0.108  10.477  23.024  0.00  0.00    +0.000 OA
ATOM     30  H   UNL     1       1.013  10.131  22.897  0.00  0.00    +0.000 HD
ENDBRANCH   8  29
TORSDOF 4
ENDMDL
MODEL 8
REMARK VINA RESULT:      -7.6      4.282      6.327
REMARK  Name = 
REMARK  4 active torsions:
REMARK  status: ('A' for Active; 'I' for Inactive)
REMARK    1  A    between atoms: C_2  and  C_12
REMARK    2  A    between atoms: N_3  and  C_4
REMARK    3  A    between atoms: N_15  and  C_16
REMARK    4  A    between atoms: N_27  and  O_28
REMARK                            x       y       z     vdW  Elec       q    Type
REMARK                         _______ _______ _______ _____ _____    ______ ____
ROOT
ATOM      1  C   UNL     1       0.069  10.439  19.325  0.00  0.00    +0.000 C 
ATOM      2  C   UNL     1       1.165   9.639  18.695  0.00  0.00    +0.000 C 
ATOM      3  O   UNL     1       1.603   9.860  17.573  0.00  0.00    +0.000 OA
ATOM      4  N   UNL     1       1.565   8.662  19.598  0.00  0.00    +0.000 N 
ATOM      5  C   UNL     1       1.156   8.946  20.882  0.00  0.00    +0.000 C 
ATOM      6  O   UNL     1       1.332   8.329  21.911  0.00  0.00    +0.000 OA
ATOM      7  C   UNL     1       0.289  10.183  20.776  0.00  0.00    +0.000 C 
ATOM      8  N   UNL     1      -0.232  10.891  21.725  0.00  0.00    +0.000 NA
ENDROOT
BRANCH   4   9
ATOM      9  C   UNL     1       2.239   7.462  19.213  0.00  0.00    +0.000 A 
ATOM     10  C   UNL     1       2.137   6.313  20.015  0.00  0.00    +0.000 A 
ATOM     11  C   UNL     1       2.878   5.160  19.735  0.00  0.00    +0.000 A 
ATOM     12  C   UNL     1       3.729   5.122  18.635  0.00  0.00    +0.000 A 
ATOM     13 CL   UNL     1       4.625   3.673  18.360  0.00  0.00    +0.000 Cl
ATOM     14  C   UNL     1       3.833   6.246  17.812  0.00  0.00    +0.000 A 
ATOM     15 CL   UNL     1       4.866   6.275  16.425  0.00  0.00    +0.000 Cl
ATOM     16  C   UNL     1       3.096   7.405  18.103  0.00  0.00    +0.000 A 
ENDBRANCH   4   9
BRANCH   1  18
ATOM     17  O   UNL     1      -0.957  12.120  18.035  0.00  0.00    +0.000 OA
ATOM     18  C   UNL     1      -0.139  11.872  18.920  0.00  0.00    +0.000 C 
ATOM     19  N   UNL     1       0.686  12.826  19.492  0.00  0.00    +0.000 N 
ATOM     20  H   UNL     1       1.471  12.498  20.059  0.00  0.00    +0.000 HD
BRANCH  19  21
ATOM     21  C   UNL     1       0.680  14.209  19.184  0.00  0.00    +0.000 A 
ATOM     22  C   UNL     1      -0.439  15.031  19.364  0.00  0.00    +0.000 A 
ATOM     23  C   UNL     1      -0.411  16.378  18.993  0.00  0.00    +0.000 A 
ATOM     24  C   UNL     1       0.746  16.929  18.444  0.00  0.00    +0.000 A 
ATOM     25 CL   UNL     1       0.705  18.595  17.992  0.00  0.00    +0.000 Cl
ATOM     26  C   UNL     1       1.878  16.126  18.282  0.00  0.00    +0.000 A 
ATOM     27 CL   UNL     1       3.346  16.736  17.599  0.00  0.00    +0.000 Cl
ATOM     28  C   UNL     1       1.848  14.775  18.664  0.00  0.00    +0.000 A 
ENDBRANCH  19  21
ENDBRANCH   1  18
BRANCH   8  29
ATOM     29  O   UNL     1       0.122  10.431  22.990  0.00  0.00    +0.000 OA
ATOM     30  H   UNL     1      -0.438  10.972  23.580  0.00  0.00    +0.000 HD
ENDBRANCH   8  29
TORSDOF 4
ENDMDL
MODEL 9
REMARK VINA RESULT:      -7.6      4.058      9.922
REMARK  Name = 
REMARK  4 active torsions:
REMARK  status: ('A' for Active; 'I' for Inactive)
REMARK    1  A    between atoms: C_2  and  C_12
REMARK    2  A    between atoms: N_3  and  C_4
REMARK    3  A    between atoms: N_15  and  C_16
REMARK    4  A    between atoms: N_27  and  O_28
REMARK                            x       y       z     vdW  Elec       q    Type
REMARK                         _______ _______ _______ _____ _____    ______ ____
ROOT
ATOM      1  C   UNL     1       0.801  10.091  18.759  0.00  0.00    +0.000 C 
ATOM      2  C   UNL     1       0.021  10.347  20.010  0.00  0.00    +0.000 C 
ATOM      3  O   UNL     1      -0.446   9.456  20.709  0.00  0.00    +0.000 OA
ATOM      4  N   UNL     1      -0.049  11.721  20.206  0.00  0.00    +0.000 N 
ATOM      5  C   UNL     1       0.903  12.396  19.474  0.00  0.00    +0.000 C 
ATOM      6  O   UNL     1       1.138  13.584  19.407  0.00  0.00    +0.000 OA
ATOM      7  C   UNL     1       1.583  11.351  18.614  0.00  0.00    +0.000 C 
ATOM      8  N   UNL     1       2.613  11.482  17.842  0.00  0.00    +0.000 NA
ENDROOT
BRANCH   4   9
ATOM      9  C   UNL     1      -1.052  12.353  21.002  0.00  0.00    +0.000 A 
ATOM     10  C   UNL     1      -2.380  12.404  20.545  0.00  0.00    +0.000 A 
ATOM     11  C   UNL     1      -3.363  13.118  21.238  0.00  0.00    +0.000 A 
ATOM     12  C   UNL     1      -3.045  13.787  22.417  0.00  0.00    +0.000 A 
ATOM     13 CL   UNL     1      -4.304  14.662  23.210  0.00  0.00    +0.000 Cl
ATOM     14  C   UNL     1      -1.736  13.736  22.901  0.00  0.00    +0.000 A 
ATOM     15 CL   UNL     1      -1.264  14.537  24.358  0.00  0.00    +0.000 Cl
ATOM     16  C   UNL     1      -0.750  13.026  22.196  0.00  0.00    +0.000 A 
ENDBRANCH   4   9
BRANCH   1  18
ATOM     17  O   UNL     1       1.890   8.447  17.474  0.00  0.00    +0.000 OA
ATOM     18  C   UNL     1       1.565   8.805  18.605  0.00  0.00    +0.000 C 
ATOM     19  N   UNL     1       1.765   8.038  19.741  0.00  0.00    +0.000 N 
ATOM     20  H   UNL     1       1.278   8.318  20.595  0.00  0.00    +0.000 HD
BRANCH  19  21
ATOM     21  C   UNL     1       2.402   6.773  19.776  0.00  0.00    +0.000 A 
ATOM     22  C   UNL     1       3.600   6.497  19.106  0.00  0.00    +0.000 A 
ATOM     23  C   UNL     1       4.160   5.217  19.129  0.00  0.00    +0.000 A 
ATOM     24  C   UNL     1       3.533   4.190  19.833  0.00  0.00    +0.000 A 
ATOM     25 CL   UNL     1       4.270   2.630  19.802  0.00  0.00    +0.000 Cl
ATOM     26  C   UNL     1       2.350   4.458  20.526  0.00  0.00    +0.000 A 
ATOM     27 CL   UNL     1       1.508   3.234  21.412  0.00  0.00    +0.000 Cl
ATOM     28  C   UNL     1       1.794   5.748  20.508  0.00  0.00    +0.000 A 
ENDBRANCH  19  21
ENDBRANCH   1  18
BRANCH   8  29
ATOM     29  O   UNL     1       3.150  12.764  17.882  0.00  0.00    +0.000 OA
ATOM     30  H   UNL     1       2.360  13.332  17.795  0.00  0.00    +0.000 HD
ENDBRANCH   8  29
TORSDOF 4
ENDMDL
