MODEL 1
REMARK VINA RESULT:      -7.6      0.000      0.000
REMARK  Name = 
REMARK  8 active torsions:
REMARK  status: ('A' for Active; 'I' for Inactive)
REMARK    1  A    between atoms: C_1  and  O_2
REMARK    2  A    between atoms: O_2  and  C_3
REMARK    3  A    between atoms: C_6  and  C_7
REMARK    4  A    between atoms: C_7  and  C_9
REMARK    5  A    between atoms: C_10  and  C_11
REMARK    6  A    between atoms: C_15  and  N_16
REMARK    7  A    between atoms: C_21  and  O_22
REMARK    8  A    between atoms: O_22  and  C_23
REMARK                            x       y       z     vdW  Elec       q    Type
REMARK                         _______ _______ _______ _____ _____    ______ ____
ROOT
ATOM      1  C   UNL     1       6.660   5.105  18.406  0.00  0.00    +0.000 C 
ATOM      2  O   UNL     1       7.571   5.200  19.221  0.00  0.00    +0.000 OA
ENDROOT
BRANCH   1   6
ATOM      3  C   UNL     1       2.655   4.487  19.860  0.00  0.00    +0.000 A 
ATOM      4  C   UNL     1       3.584   3.435  19.786  0.00  0.00    +0.000 A 
ATOM      5  C   UNL     1       4.884   3.650  19.326  0.00  0.00    +0.000 A 
ATOM      6  C   UNL     1       5.259   4.911  18.867  0.00  0.00    +0.000 A 
ATOM      7  C   UNL     1       4.319   5.948  18.881  0.00  0.00    +0.000 A 
ATOM      8  C   UNL     1       3.015   5.748  19.363  0.00  0.00    +0.000 A 
BRANCH   3  10
ATOM      9  C   UNL     1       1.226   3.063  21.102  0.00  0.00    +0.000 C 
ATOM     10  O   UNL     1       1.410   4.294  20.398  0.00  0.00    +0.000 OA
ENDBRANCH   3  10
BRANCH   8  11
ATOM     11  O   UNL     1       2.279   6.899  19.283  0.00  0.00    +0.000 OA
ATOM     12  C   UNL     1       2.516   7.826  18.238  0.00  0.00    +0.000 C 
ENDBRANCH   8  11
ENDBRANCH   1   6
BRANCH   1  13
ATOM     13  C   UNL     1       6.907   5.147  16.939  0.00  0.00    +0.000 C 
ATOM     14  C   UNL     1       6.290   4.291  16.112  0.00  0.00    +0.000 C 
BRANCH  14  15
ATOM     15  C   UNL     1       6.545   4.264  14.666  0.00  0.00    +0.000 A 
ATOM     16  C   UNL     1       7.519   5.109  14.119  0.00  0.00    +0.000 A 
ATOM     17  C   UNL     1       7.759   5.124  12.741  0.00  0.00    +0.000 A 
ATOM     18  C   UNL     1       7.026   4.291  11.887  0.00  0.00    +0.000 A 
ATOM     19  C   UNL     1       6.045   3.461  12.427  0.00  0.00    +0.000 A 
ATOM     20  C   UNL     1       5.794   3.451  13.807  0.00  0.00    +0.000 A 
BRANCH  19  21
ATOM     21  N   UNL     1       5.260   2.585  11.550  0.00  0.00    +0.000 N 
ATOM     22  O   UNL     1       5.740   1.476  11.264  0.00  0.00    +0.000 OA
ATOM     23  O   UNL     1       4.164   3.001  11.146  0.00  0.00    +0.000 OA
ENDBRANCH  19  21
ENDBRANCH  14  15
ENDBRANCH   1  13
TORSDOF 6
ENDMDL
MODEL 2
REMARK VINA RESULT:      -7.5      5.619      7.660
REMARK  Name = 
REMARK  8 active torsions:
REMARK  status: ('A' for Active; 'I' for Inactive)
REMARK    1  A    between atoms: C_1  and  O_2
REMARK    2  A    between atoms: O_2  and  C_3
REMARK    3  A    between atoms: C_6  and  C_7
REMARK    4  A    between atoms: C_7  and  C_9
REMARK    5  A    between atoms: C_10  and  C_11
REMARK    6  A    between atoms: C_15  and  N_16
REMARK    7  A    between atoms: C_21  and  O_22
REMARK    8  A    between atoms: O_22  and  C_23
REMARK                            x       y       z     vdW  Elec       q    Type
REMARK                         _______ _______ _______ _____ _____    ______ ____
ROOT
ATOM      1  C   UNL     1       7.255   6.855  17.233  0.00  0.00    +0.000 C 
ATOM      2  O   UNL     1       7.712   6.480  16.159  0.00  0.00    +0.000 OA
ENDROOT
BRANCH   1   6
ATOM      3  C   UNL     1       3.535   5.172  18.599  0.00  0.00    +0.000 A 
ATOM      4  C   UNL     1       3.573   6.333  17.807  0.00  0.00    +0.000 A 
ATOM      5  C   UNL     1       4.785   6.862  17.359  0.00  0.00    +0.000 A 
ATOM      6  C   UNL     1       5.986   6.276  17.751  0.00  0.00    +0.000 A 
ATOM      7  C   UNL     1       5.956   5.156  18.590  0.00  0.00    +0.000 A 
ATOM      8  C   UNL     1       4.742   4.602  19.029  0.00  0.00    +0.000 A 
BRANCH   3  10
ATOM      9  C   UNL     1       1.527   4.140  17.882  0.00  0.00    +0.000 C 
ATOM     10  O   UNL     1       2.343   4.603  18.962  0.00  0.00    +0.000 OA
ENDBRANCH   3  10
BRANCH   8  11
ATOM     11  O   UNL     1       4.959   3.516  19.832  0.00  0.00    +0.000 OA
ATOM     12  C   UNL     1       4.353   2.272  19.528  0.00  0.00    +0.000 C 
ENDBRANCH   8  11
ENDBRANCH   1   6
BRANCH   1  13
ATOM     13  C   UNL     1       7.915   7.914  18.044  0.00  0.00    +0.000 C 
ATOM     14  C   UNL     1       8.045   9.162  17.573  0.00  0.00    +0.000 C 
BRANCH  14  15
ATOM     15  C   UNL     1       8.736  10.221  18.320  0.00  0.00    +0.000 A 
ATOM     16  C   UNL     1       9.200   9.965  19.616  0.00  0.00    +0.000 A 
ATOM     17  C   UNL     1       9.833  10.968  20.359  0.00  0.00    +0.000 A 
ATOM     18  C   UNL     1      10.013  12.244  19.813  0.00  0.00    +0.000 A 
ATOM     19  C   UNL     1       9.538  12.506  18.529  0.00  0.00    +0.000 A 
ATOM     20  C   UNL     1       8.893  11.507  17.785  0.00  0.00    +0.000 A 
BRANCH  19  21
ATOM     21  N   UNL     1       9.709  13.839  17.940  0.00  0.00    +0.000 N 
ATOM     22  O   UNL     1       8.835  14.689  18.173  0.00  0.00    +0.000 OA
ATOM     23  O   UNL     1      10.716  14.040  17.245  0.00  0.00    +0.000 OA
ENDBRANCH  19  21
ENDBRANCH  14  15
ENDBRANCH   1  13
TORSDOF 6
ENDMDL
MODEL 3
REMARK VINA RESULT:      -7.3      3.809      8.315
REMARK  Name = 
REMARK  8 active torsions:
REMARK  status: ('A' for Active; 'I' for Inactive)
REMARK    1  A    between atoms: C_1  and  O_2
REMARK    2  A    between atoms: O_2  and  C_3
REMARK    3  A    between atoms: C_6  and  C_7
REMARK    4  A    between atoms: C_7  and  C_9
REMARK    5  A    between atoms: C_10  and  C_11
REMARK    6  A    between atoms: C_15  and  N_16
REMARK    7  A    between atoms: C_21  and  O_22
REMARK    8  A    between atoms: O_22  and  C_23
REMARK                            x       y       z     vdW  Elec       q    Type
REMARK                         _______ _______ _______ _____ _____    ______ ____
ROOT
ATOM      1  C   UNL     1       3.508   4.651  19.382  0.00  0.00    +0.000 C 
ATOM      2  O   UNL     1       3.427   3.596  20.003  0.00  0.00    +0.000 OA
ENDROOT
BRANCH   1   6
ATOM      3  C   UNL     1       6.426   5.205  16.265  0.00  0.00    +0.000 A 
ATOM      4  C   UNL     1       5.272   4.426  16.067  0.00  0.00    +0.000 A 
ATOM      5  C   UNL     1       4.326   4.265  17.080  0.00  0.00    +0.000 A 
ATOM      6  C   UNL     1       4.550   4.826  18.336  0.00  0.00    +0.000 A 
ATOM      7  C   UNL     1       5.727   5.551  18.557  0.00  0.00    +0.000 A 
ATOM      8  C   UNL     1       6.675   5.738  17.538  0.00  0.00    +0.000 A 
BRANCH   3  10
ATOM      9  C   UNL     1       7.013   4.769  14.012  0.00  0.00    +0.000 C 
ATOM     10  O   UNL     1       7.306   5.438  15.242  0.00  0.00    +0.000 OA
ENDBRANCH   3  10
BRANCH   8  11
ATOM     11  O   UNL     1       7.736   6.478  17.983  0.00  0.00    +0.000 OA
ATOM     12  C   UNL     1       7.785   7.873  17.738  0.00  0.00    +0.000 C 
ENDBRANCH   8  11
ENDBRANCH   1   6
BRANCH   1  13
ATOM     13  C   UNL     1       2.603   5.799  19.659  0.00  0.00    +0.000 C 
ATOM     14  C   UNL     1       2.710   6.942  18.967  0.00  0.00    +0.000 C 
BRANCH  14  15
ATOM     15  C   UNL     1       1.872   8.116  19.244  0.00  0.00    +0.000 A 
ATOM     16  C   UNL     1       1.638   9.055  18.232  0.00  0.00    +0.000 A 
ATOM     17  C   UNL     1       0.869  10.197  18.481  0.00  0.00    +0.000 A 
ATOM     18  C   UNL     1       0.321  10.417  19.750  0.00  0.00    +0.000 A 
ATOM     19  C   UNL     1       0.566   9.492  20.765  0.00  0.00    +0.000 A 
ATOM     20  C   UNL     1       1.345   8.351  20.521  0.00  0.00    +0.000 A 
BRANCH  19  21
ATOM     21  N   UNL     1       0.007   9.705  22.104  0.00  0.00    +0.000 N 
ATOM     22  O   UNL     1       0.239  10.791  22.659  0.00  0.00    +0.000 OA
ATOM     23  O   UNL     1      -0.663   8.790  22.605  0.00  0.00    +0.000 OA
ENDBRANCH  19  21
ENDBRANCH  14  15
ENDBRANCH   1  13
TORSDOF 6
ENDMDL
MODEL 4
REMARK VINA RESULT:      -7.2      5.420      7.263
REMARK  Name = 
REMARK  8 active torsions:
REMARK  status: ('A' for Active; 'I' for Inactive)
REMARK    1  A    between atoms: C_1  and  O_2
REMARK    2  A    between atoms: O_2  and  C_3
REMARK    3  A    between atoms: C_6  and  C_7
REMARK    4  A    between atoms: C_7  and  C_9
REMARK    5  A    between atoms: C_10  and  C_11
REMARK    6  A    between atoms: C_15  and  N_16
REMARK    7  A    between atoms: C_21  and  O_22
REMARK    8  A    between atoms: O_22  and  C_23
REMARK                            x       y       z     vdW  Elec       q    Type
REMARK                         _______ _______ _______ _____ _____    ______ ____
ROOT
ATOM      1  C   UNL     1       7.207   6.625  17.243  0.00  0.00    +0.000 C 
ATOM      2  O   UNL     1       7.662   6.222  16.178  0.00  0.00    +0.000 OA
ENDROOT
BRANCH   1   6
ATOM      3  C   UNL     1       3.627   4.939  18.941  0.00  0.00    +0.000 A 
ATOM      4  C   UNL     1       4.864   4.277  19.019  0.00  0.00    +0.000 A 
ATOM      5  C   UNL     1       6.021   4.840  18.477  0.00  0.00    +0.000 A 
ATOM      6  C   UNL     1       5.948   6.048  17.786  0.00  0.00    +0.000 A 
ATOM      7  C   UNL     1       4.707   6.682  17.652  0.00  0.00    +0.000 A 
ATOM      8  C   UNL     1       3.541   6.135  18.213  0.00  0.00    +0.000 A 
BRANCH   3  10
ATOM      9  C   UNL     1       2.309   4.844  20.906  0.00  0.00    +0.000 C 
ATOM     10  O   UNL     1       2.512   4.431  19.553  0.00  0.00    +0.000 OA
ENDBRANCH   3  10
BRANCH   8  11
ATOM     11  O   UNL     1       2.455   6.928  17.958  0.00  0.00    +0.000 OA
ATOM     12  C   UNL     1       2.146   8.011  18.817  0.00  0.00    +0.000 C 
ENDBRANCH   8  11
ENDBRANCH   1   6
BRANCH   1  13
ATOM     13  C   UNL     1       7.860   7.715  18.017  0.00  0.00    +0.000 C 
ATOM     14  C   UNL     1       7.895   8.969  17.546  0.00  0.00    +0.000 C 
BRANCH  14  15
ATOM     15  C   UNL     1       8.575  10.062  18.254  0.00  0.00    +0.000 A 
ATOM     16  C   UNL     1       9.213   9.805  19.474  0.00  0.00    +0.000 A 
ATOM     17  C   UNL     1       9.840  10.836  20.182  0.00  0.00    +0.000 A 
ATOM     18  C   UNL     1       9.840  12.141  19.678  0.00  0.00    +0.000 A 
ATOM     19  C   UNL     1       9.193  12.403  18.471  0.00  0.00    +0.000 A 
ATOM     20  C   UNL     1       8.553  11.374  17.764  0.00  0.00    +0.000 A 
BRANCH  19  21
ATOM     21  N   UNL     1       9.174  13.765  17.927  0.00  0.00    +0.000 N 
ATOM     22  O   UNL     1       8.083  14.355  17.888  0.00  0.00    +0.000 OA
ATOM     23  O   UNL     1      10.248  14.249  17.539  0.00  0.00    +0.000 OA
ENDBRANCH  19  21
ENDBRANCH  14  15
ENDBRANCH   1  13
TORSDOF 6
ENDMDL
MODEL 5
REMARK VINA RESULT:      -7.2      5.537      7.441
REMARK  Name = 
REMARK  8 active torsions:
REMARK  status: ('A' for Active; 'I' for Inactive)
REMARK    1  A    between atoms: C_1  and  O_2
REMARK    2  A    between atoms: O_2  and  C_3
REMARK    3  A    between atoms: C_6  and  C_7
REMARK    4  A    between atoms: C_7  and  C_9
REMARK    5  A    between atoms: C_10  and  C_11
REMARK    6  A    between atoms: C_15  and  N_16
REMARK    7  A    between atoms: C_21  and  O_22
REMARK    8  A    between atoms: O_22  and  C_23
REMARK                            x       y       z     vdW  Elec       q    Type
REMARK                         _______ _______ _______ _____ _____    ______ ____
ROOT
ATOM      1  C   UNL     1       7.266   6.888  17.264  0.00  0.00    +0.000 C 
ATOM      2  O   UNL     1       7.695   6.487  16.187  0.00  0.00    +0.000 OA
ENDROOT
BRANCH   1   6
ATOM      3  C   UNL     1       3.492   5.541  18.839  0.00  0.00    +0.000 A 
ATOM      4  C   UNL     1       4.691   4.857  19.108  0.00  0.00    +0.000 A 
ATOM      5  C   UNL     1       5.910   5.311  18.603  0.00  0.00    +0.000 A 
ATOM      6  C   UNL     1       5.944   6.422  17.763  0.00  0.00    +0.000 A 
ATOM      7  C   UNL     1       4.745   7.070  17.442  0.00  0.00    +0.000 A 
ATOM      8  C   UNL     1       3.515   6.635  17.962  0.00  0.00    +0.000 A 
BRANCH   3  10
ATOM      9  C   UNL     1       2.279   5.168  20.840  0.00  0.00    +0.000 C 
ATOM     10  O   UNL     1       2.310   5.148  19.410  0.00  0.00    +0.000 OA
ENDBRANCH   3  10
BRANCH   8  11
ATOM     11  O   UNL     1       2.488   7.421  17.516  0.00  0.00    +0.000 OA
ATOM     12  C   UNL     1       2.051   8.528  18.284  0.00  0.00    +0.000 C 
ENDBRANCH   8  11
ENDBRANCH   1   6
BRANCH   1  13
ATOM     13  C   UNL     1       8.016   7.866  18.097  0.00  0.00    +0.000 C 
ATOM     14  C   UNL     1       8.176   9.134  17.694  0.00  0.00    +0.000 C 
BRANCH  14  15
ATOM     15  C   UNL     1       8.954  10.116  18.461  0.00  0.00    +0.000 A 
ATOM     16  C   UNL     1       8.972  10.045  19.860  0.00  0.00    +0.000 A 
ATOM     17  C   UNL     1       9.679  10.987  20.614  0.00  0.00    +0.000 A 
ATOM     18  C   UNL     1      10.383  12.016  19.977  0.00  0.00    +0.000 A 
ATOM     19  C   UNL     1      10.354  12.099  18.586  0.00  0.00    +0.000 A 
ATOM     20  C   UNL     1       9.637  11.162  17.827  0.00  0.00    +0.000 A 
BRANCH  19  21
ATOM     21  N   UNL     1      11.079  13.173  17.898  0.00  0.00    +0.000 N 
ATOM     22  O   UNL     1      11.241  13.067  16.672  0.00  0.00    +0.000 OA
ATOM     23  O   UNL     1      11.486  14.126  18.580  0.00  0.00    +0.000 OA
ENDBRANCH  19  21
ENDBRANCH  14  15
ENDBRANCH   1  13
TORSDOF 6
ENDMDL
MODEL 6
REMARK VINA RESULT:      -7.2      1.008      2.170
REMARK  Name = 
REMARK  8 active torsions:
REMARK  status: ('A' for Active; 'I' for Inactive)
REMARK    1  A    between atoms: C_1  and  O_2
REMARK    2  A    between atoms: O_2  and  C_3
REMARK    3  A    between atoms: C_6  and  C_7
REMARK    4  A    between atoms: C_7  and  C_9
REMARK    5  A    between atoms: C_10  and  C_11
REMARK    6  A    between atoms: C_15  and  N_16
REMARK    7  A    between atoms: C_21  and  O_22
REMARK    8  A    between atoms: O_22  and  C_23
REMARK                            x       y       z     vdW  Elec       q    Type
REMARK                         _______ _______ _______ _____ _____    ______ ____
ROOT
ATOM      1  C   UNL     1       6.562   5.162  18.351  0.00  0.00    +0.000 C 
ATOM      2  O   UNL     1       7.342   5.620  19.180  0.00  0.00    +0.000 OA
ENDROOT
BRANCH   1   6
ATOM      3  C   UNL     1       2.477   4.302  19.404  0.00  0.00    +0.000 A 
ATOM      4  C   UNL     1       3.044   5.569  19.622  0.00  0.00    +0.000 A 
ATOM      5  C   UNL     1       4.366   5.840  19.263  0.00  0.00    +0.000 A 
ATOM      6  C   UNL     1       5.166   4.827  18.741  0.00  0.00    +0.000 A 
ATOM      7  C   UNL     1       4.624   3.546  18.580  0.00  0.00    +0.000 A 
ATOM      8  C   UNL     1       3.290   3.268  18.916  0.00  0.00    +0.000 A 
BRANCH   3  10
ATOM      9  C   UNL     1       0.894   3.223  20.797  0.00  0.00    +0.000 C 
ATOM     10  O   UNL     1       1.155   4.064  19.670  0.00  0.00    +0.000 OA
ENDBRANCH   3  10
BRANCH   8  11
ATOM     11  O   UNL     1       2.984   1.957  18.670  0.00  0.00    +0.000 OA
ATOM     12  C   UNL     1       4.009   1.034  18.348  0.00  0.00    +0.000 C 
ENDBRANCH   8  11
ENDBRANCH   1   6
BRANCH   1  13
ATOM     13  C   UNL     1       6.973   4.893  16.946  0.00  0.00    +0.000 C 
ATOM     14  C   UNL     1       6.094   5.001  15.940  0.00  0.00    +0.000 C 
BRANCH  14  15
ATOM     15  C   UNL     1       6.446   4.694  14.547  0.00  0.00    +0.000 A 
ATOM     16  C   UNL     1       7.544   5.330  13.954  0.00  0.00    +0.000 A 
ATOM     17  C   UNL     1       7.879   5.078  12.619  0.00  0.00    +0.000 A 
ATOM     18  C   UNL     1       7.120   4.182  11.857  0.00  0.00    +0.000 A 
ATOM     19  C   UNL     1       6.017   3.560  12.440  0.00  0.00    +0.000 A 
ATOM     20  C   UNL     1       5.671   3.819  13.774  0.00  0.00    +0.000 A 
BRANCH  19  21
ATOM     21  N   UNL     1       5.203   2.623  11.658  0.00  0.00    +0.000 N 
ATOM     22  O   UNL     1       4.072   2.995  11.308  0.00  0.00    +0.000 OA
ATOM     23  O   UNL     1       5.692   1.515  11.391  0.00  0.00    +0.000 OA
ENDBRANCH  19  21
ENDBRANCH  14  15
ENDBRANCH   1  13
TORSDOF 6
ENDMDL
MODEL 7
REMARK VINA RESULT:      -7.2      5.190      7.449
REMARK  Name = 
REMARK  8 active torsions:
REMARK  status: ('A' for Active; 'I' for Inactive)
REMARK    1  A    between atoms: C_1  and  O_2
REMARK    2  A    between atoms: O_2  and  C_3
REMARK    3  A    between atoms: C_6  and  C_7
REMARK    4  A    between atoms: C_7  and  C_9
REMARK    5  A    between atoms: C_10  and  C_11
REMARK    6  A    between atoms: C_15  and  N_16
REMARK    7  A    between atoms: C_21  and  O_22
REMARK    8  A    between atoms: O_22  and  C_23
REMARK                            x       y       z     vdW  Elec       q    Type
REMARK                         _______ _______ _______ _____ _____    ______ ____
ROOT
ATOM      1  C   UNL     1       6.929   6.290  17.337  0.00  0.00    +0.000 C 
ATOM      2  O   UNL     1       7.721   5.497  16.839  0.00  0.00    +0.000 OA
ENDROOT
BRANCH   1   6
ATOM      3  C   UNL     1       3.037   4.962  18.614  0.00  0.00    +0.000 A 
ATOM      4  C   UNL     1       3.240   6.244  18.072  0.00  0.00    +0.000 A 
ATOM      5  C   UNL     1       4.503   6.658  17.649  0.00  0.00    +0.000 A 
ATOM      6  C   UNL     1       5.604   5.820  17.822  0.00  0.00    +0.000 A 
ATOM      7  C   UNL     1       5.418   4.567  18.417  0.00  0.00    +0.000 A 
ATOM      8  C   UNL     1       4.147   4.131  18.827  0.00  0.00    +0.000 A 
BRANCH   3  10
ATOM      9  C   UNL     1       1.422   4.663  20.320  0.00  0.00    +0.000 C 
ATOM     10  O   UNL     1       1.782   4.524  18.943  0.00  0.00    +0.000 OA
ENDBRANCH   3  10
BRANCH   8  11
ATOM     11  O   UNL     1       4.210   2.879  19.375  0.00  0.00    +0.000 OA
ATOM     12  C   UNL     1       3.703   1.764  18.664  0.00  0.00    +0.000 C 
ENDBRANCH   8  11
ENDBRANCH   1   6
BRANCH   1  13
ATOM     13  C   UNL     1       7.235   7.741  17.452  0.00  0.00    +0.000 C 
ATOM     14  C   UNL     1       8.276   8.170  18.179  0.00  0.00    +0.000 C 
BRANCH  14  15
ATOM     15  C   UNL     1       8.581   9.595  18.360  0.00  0.00    +0.000 A 
ATOM     16  C   UNL     1       8.029  10.538  17.485  0.00  0.00    +0.000 A 
ATOM     17  C   UNL     1       8.330  11.898  17.618  0.00  0.00    +0.000 A 
ATOM     18  C   UNL     1       9.188  12.336  18.634  0.00  0.00    +0.000 A 
ATOM     19  C   UNL     1       9.752  11.397  19.497  0.00  0.00    +0.000 A 
ATOM     20  C   UNL     1       9.462  10.032  19.359  0.00  0.00    +0.000 A 
BRANCH  19  21
ATOM     21  N   UNL     1      10.660  11.832  20.563  0.00  0.00    +0.000 N 
ATOM     22  O   UNL     1      11.878  11.666  20.387  0.00  0.00    +0.000 OA
ATOM     23  O   UNL     1      10.161  12.341  21.578  0.00  0.00    +0.000 OA
ENDBRANCH  19  21
ENDBRANCH  14  15
ENDBRANCH   1  13
TORSDOF 6
ENDMDL
MODEL 8
REMARK VINA RESULT:      -7.2      3.873      8.405
REMARK  Name = 
REMARK  8 active torsions:
REMARK  status: ('A' for Active; 'I' for Inactive)
REMARK    1  A    between atoms: C_1  and  O_2
REMARK    2  A    between atoms: O_2  and  C_3
REMARK    3  A    between atoms: C_6  and  C_7
REMARK    4  A    between atoms: C_7  and  C_9
REMARK    5  A    between atoms: C_10  and  C_11
REMARK    6  A    between atoms: C_15  and  N_16
REMARK    7  A    between atoms: C_21  and  O_22
REMARK    8  A    between atoms: O_22  and  C_23
REMARK                            x       y       z     vdW  Elec       q    Type
REMARK                         _______ _______ _______ _____ _____    ______ ____
ROOT
ATOM      1  C   UNL     1       2.789   4.552  19.827  0.00  0.00    +0.000 C 
ATOM      2  O   UNL     1       2.364   3.542  20.378  0.00  0.00    +0.000 OA
ENDROOT
BRANCH   1   6
ATOM      3  C   UNL     1       5.896   4.356  16.852  0.00  0.00    +0.000 A 
ATOM      4  C   UNL     1       4.558   4.050  16.545  0.00  0.00    +0.000 A 
ATOM      5  C   UNL     1       3.558   4.131  17.514  0.00  0.00    +0.000 A 
ATOM      6  C   UNL     1       3.888   4.454  18.829  0.00  0.00    +0.000 A 
ATOM      7  C   UNL     1       5.227   4.699  19.154  0.00  0.00    +0.000 A 
ATOM      8  C   UNL     1       6.239   4.643  18.181  0.00  0.00    +0.000 A 
BRANCH   3  10
ATOM      9  C   UNL     1       6.394   4.140  14.547  0.00  0.00    +0.000 C 
ATOM     10  O   UNL     1       6.860   4.366  15.880  0.00  0.00    +0.000 OA
ENDBRANCH   3  10
BRANCH   8  11
ATOM     11  O   UNL     1       7.462   4.921  18.728  0.00  0.00    +0.000 OA
ATOM     12  C   UNL     1       7.872   6.265  18.911  0.00  0.00    +0.000 C 
ENDBRANCH   8  11
ENDBRANCH   1   6
BRANCH   1  13
ATOM     13  C   UNL     1       2.260   5.906  20.146  0.00  0.00    +0.000 C 
ATOM     14  C   UNL     1       2.178   6.852  19.200  0.00  0.00    +0.000 C 
BRANCH  14  15
ATOM     15  C   UNL     1       1.711   8.216  19.485  0.00  0.00    +0.000 A 
ATOM     16  C   UNL     1       1.699   9.172  18.462  0.00  0.00    +0.000 A 
ATOM     17  C   UNL     1       1.288  10.485  18.716  0.00  0.00    +0.000 A 
ATOM     18  C   UNL     1       0.881  10.861  20.001  0.00  0.00    +0.000 A 
ATOM     19  C   UNL     1       0.908   9.916  21.026  0.00  0.00    +0.000 A 
ATOM     20  C   UNL     1       1.329   8.602  20.777  0.00  0.00    +0.000 A 
BRANCH  19  21
ATOM     21  N   UNL     1       0.492  10.290  22.382  0.00  0.00    +0.000 N 
ATOM     22  O   UNL     1       0.773   9.511  23.307  0.00  0.00    +0.000 OA
ATOM     23  O   UNL     1      -0.114  11.362  22.527  0.00  0.00    +0.000 OA
ENDBRANCH  19  21
ENDBRANCH  14  15
ENDBRANCH   1  13
TORSDOF 6
ENDMDL
MODEL 9
REMARK VINA RESULT:      -7.1      1.166      1.236
REMARK  Name = 
REMARK  8 active torsions:
REMARK  status: ('A' for Active; 'I' for Inactive)
REMARK    1  A    between atoms: C_1  and  O_2
REMARK    2  A    between atoms: O_2  and  C_3
REMARK    3  A    between atoms: C_6  and  C_7
REMARK    4  A    between atoms: C_7  and  C_9
REMARK    5  A    between atoms: C_10  and  C_11
REMARK    6  A    between atoms: C_15  and  N_16
REMARK    7  A    between atoms: C_21  and  O_22
REMARK    8  A    between atoms: O_22  and  C_23
REMARK                            x       y       z     vdW  Elec       q    Type
REMARK                         _______ _______ _______ _____ _____    ______ ____
ROOT
ATOM      1  C   UNL     1       5.253   6.033  17.666  0.00  0.00    +0.000 C 
ATOM      2  O   UNL     1       6.070   6.684  18.308  0.00  0.00    +0.000 OA
ENDROOT
BRANCH   1   6
ATOM      3  C   UNL     1       1.838   4.296  19.630  0.00  0.00    +0.000 A 
ATOM      4  C   UNL     1       2.505   3.633  18.584  0.00  0.00    +0.000 A 
ATOM      5  C   UNL     1       3.620   4.200  17.964  0.00  0.00    +0.000 A 
ATOM      6  C   UNL     1       4.048   5.474  18.334  0.00  0.00    +0.000 A 
ATOM      7  C   UNL     1       3.350   6.164  19.332  0.00  0.00    +0.000 A 
ATOM      8  C   UNL     1       2.241   5.593  19.978  0.00  0.00    +0.000 A 
BRANCH   3  10
ATOM      9  C   UNL     1       1.179   2.844  21.381  0.00  0.00    +0.000 C 
ATOM     10  O   UNL     1       0.803   3.699  20.298  0.00  0.00    +0.000 OA
ENDBRANCH   3  10
BRANCH   8  11
ATOM     11  O   UNL     1       1.726   6.446  20.916  0.00  0.00    +0.000 OA
ATOM     12  C   UNL     1       1.483   7.803  20.589  0.00  0.00    +0.000 C 
ENDBRANCH   8  11
ENDBRANCH   1   6
BRANCH   1  13
ATOM     13  C   UNL     1       5.437   5.748  16.217  0.00  0.00    +0.000 C 
ATOM     14  C   UNL     1       6.382   4.895  15.797  0.00  0.00    +0.000 C 
BRANCH  14  15
ATOM     15  C   UNL     1       6.630   4.627  14.375  0.00  0.00    +0.000 A 
ATOM     16  C   UNL     1       7.627   5.341  13.699  0.00  0.00    +0.000 A 
ATOM     17  C   UNL     1       7.860   5.126  12.336  0.00  0.00    +0.000 A 
ATOM     18  C   UNL     1       7.099   4.188  11.628  0.00  0.00    +0.000 A 
ATOM     19  C   UNL     1       6.095   3.487  12.295  0.00  0.00    +0.000 A 
ATOM     20  C   UNL     1       5.850   3.708  13.658  0.00  0.00    +0.000 A 
BRANCH  19  21
ATOM     21  N   UNL     1       5.280   2.505  11.572  0.00  0.00    +0.000 N 
ATOM     22  O   UNL     1       5.787   1.397  11.335  0.00  0.00    +0.000 OA
ATOM     23  O   UNL     1       4.132   2.837  11.240  0.00  0.00    +0.000 OA
ENDBRANCH  19  21
ENDBRANCH  14  15
ENDBRANCH   1  13
TORSDOF 6
ENDMDL
