MODEL 1
REMARK VINA RESULT:      -6.8      0.000      0.000
REMARK  Name = 
REMARK  8 active torsions:
REMARK  status: ('A' for Active; 'I' for Inactive)
REMARK    1  A    between atoms: C_1  and  O_2
REMARK    2  A    between atoms: O_2  and  C_3
REMARK    3  A    between atoms: C_3  and  C_4
REMARK    4  A    between atoms: C_4  and  N_5
REMARK    5  A    between atoms: N_7  and  C_8
REMARK    6  A    between atoms: N_14  and  C_15
REMARK    7  A    between atoms: C_15  and  C_16
REMARK    8  A    between atoms: C_16  and  C_17
REMARK                            x       y       z     vdW  Elec       q    Type
REMARK                         _______ _______ _______ _____ _____    ______ ____
ROOT
ATOM      1  N   UNL     1       3.510   6.713  18.383  0.00  0.00    +0.000 N 
ATOM      2  C   UNL     1       3.712   5.449  17.909  0.00  0.00    +0.000 C 
ATOM      3  N   UNL     1       3.716   4.342  18.534  0.00  0.00    +0.000 NA
ATOM      4  N   UNL     1       3.850   5.406  16.544  0.00  0.00    +0.000 N 
ATOM      5  H   UNL     1       4.027   6.928  19.231  0.00  0.00    +0.000 HD
ATOM      6  H   UNL     1       3.293   4.702  16.086  0.00  0.00    +0.000 HD
ENDROOT
BRANCH   3   7
ATOM      7  C   UNL     1       3.548   3.951  19.933  0.00  0.00    +0.000 C 
ATOM      8  C   UNL     1       2.479   4.616  20.785  0.00  0.00    +0.000 C 
ATOM      9  C   UNL     1       1.032   4.189  20.508  0.00  0.00    +0.000 C 
ATOM     10  C   UNL     1       0.840   2.696  20.236  0.00  0.00    +0.000 C 
ATOM     11  C   UNL     1       1.929   2.115  19.347  0.00  0.00    +0.000 C 
ATOM     12  C   UNL     1       3.306   2.425  19.925  0.00  0.00    +0.000 C 
ENDBRANCH   3   7
BRANCH   1  13
ATOM     13  C   UNL     1       3.270   7.875  17.529  0.00  0.00    +0.000 C 
BRANCH  13  14
ATOM     14  C   UNL     1       1.974   8.608  17.768  0.00  0.00    +0.000 C 
BRANCH  14  16
ATOM     15  C   UNL     1       0.777   9.729  19.422  0.00  0.00    +0.000 C 
ATOM     16  O   UNL     1       1.731   8.711  19.168  0.00  0.00    +0.000 OA
ENDBRANCH  14  16
ENDBRANCH  13  14
ENDBRANCH   1  13
BRANCH   4  17
ATOM     17  C   UNL     1       4.922   6.033  15.795  0.00  0.00    +0.000 C 
BRANCH  17  18
ATOM     18  C   UNL     1       6.273   5.325  15.811  0.00  0.00    +0.000 C 
ATOM     19  C   UNL     1       6.323   3.869  15.390  0.00  0.00    +0.000 C 
ATOM     20  C   UNL     1       6.991   4.901  14.533  0.00  0.00    +0.000 C 
BRANCH  18  21
ATOM     21  C   UNL     1       7.148   5.841  16.960  0.00  0.00    +0.000 A 
ATOM     22  C   UNL     1       7.498   5.024  18.043  0.00  0.00    +0.000 A 
ATOM     23  C   UNL     1       8.106   5.559  19.187  0.00  0.00    +0.000 A 
ATOM     24  C   UNL     1       8.364   6.925  19.270  0.00  0.00    +0.000 A 
ATOM     25  C   UNL     1       8.057   7.743  18.186  0.00  0.00    +0.000 A 
ATOM     26  C   UNL     1       7.453   7.215  17.070  0.00  0.00    +0.000 A 
ENDBRANCH  18  21
ENDBRANCH  17  18
ENDBRANCH   4  17
TORSDOF 7
ENDMDL
MODEL 2
REMARK VINA RESULT:      -6.6      1.210      3.114
REMARK  Name = 
REMARK  8 active torsions:
REMARK  status: ('A' for Active; 'I' for Inactive)
REMARK    1  A    between atoms: C_1  and  O_2
REMARK    2  A    between atoms: O_2  and  C_3
REMARK    3  A    between atoms: C_3  and  C_4
REMARK    4  A    between atoms: C_4  and  N_5
REMARK    5  A    between atoms: N_7  and  C_8
REMARK    6  A    between atoms: N_14  and  C_15
REMARK    7  A    between atoms: C_15  and  C_16
REMARK    8  A    between atoms: C_16  and  C_17
REMARK                            x       y       z     vdW  Elec       q    Type
REMARK                         _______ _______ _______ _____ _____    ______ ____
ROOT
ATOM      1  N   UNL     1       3.256   5.931  18.725  0.00  0.00    +0.000 N 
ATOM      2  C   UNL     1       3.657   4.866  17.970  0.00  0.00    +0.000 C 
ATOM      3  N   UNL     1       3.705   3.633  18.273  0.00  0.00    +0.000 NA
ATOM      4  N   UNL     1       3.974   5.214  16.681  0.00  0.00    +0.000 N 
ATOM      5  H   UNL     1       3.632   5.938  19.668  0.00  0.00    +0.000 HD
ATOM      6  H   UNL     1       3.564   4.626  15.973  0.00  0.00    +0.000 HD
ENDROOT
BRANCH   3   7
ATOM      7  C   UNL     1       3.402   2.857  19.476  0.00  0.00    +0.000 C 
ATOM      8  C   UNL     1       2.896   3.559  20.725  0.00  0.00    +0.000 C 
ATOM      9  C   UNL     1       1.440   4.039  20.688  0.00  0.00    +0.000 C 
ATOM     10  C   UNL     1       0.459   3.076  20.016  0.00  0.00    +0.000 C 
ATOM     11  C   UNL     1       1.026   2.444  18.754  0.00  0.00    +0.000 C 
ATOM     12  C   UNL     1       2.372   1.788  19.048  0.00  0.00    +0.000 C 
ENDBRANCH   3   7
BRANCH   1  13
ATOM     13  C   UNL     1       2.999   7.264  18.182  0.00  0.00    +0.000 C 
BRANCH  13  14
ATOM     14  C   UNL     1       2.037   8.118  18.967  0.00  0.00    +0.000 C 
BRANCH  14  16
ATOM     15  C   UNL     1       1.298   8.552  21.132  0.00  0.00    +0.000 C 
ATOM     16  O   UNL     1       1.877   7.582  20.277  0.00  0.00    +0.000 OA
ENDBRANCH  14  16
ENDBRANCH  13  14
ENDBRANCH   1  13
BRANCH   4  17
ATOM     17  C   UNL     1       5.057   6.100  16.300  0.00  0.00    +0.000 C 
BRANCH  17  18
ATOM     18  C   UNL     1       6.453   5.488  16.239  0.00  0.00    +0.000 C 
ATOM     19  C   UNL     1       7.556   6.137  17.055  0.00  0.00    +0.000 C 
ATOM     20  C   UNL     1       7.083   4.763  17.425  0.00  0.00    +0.000 C 
BRANCH  18  21
ATOM     21  C   UNL     1       6.740   4.917  14.845  0.00  0.00    +0.000 A 
ATOM     22  C   UNL     1       7.666   5.514  13.980  0.00  0.00    +0.000 A 
ATOM     23  C   UNL     1       7.761   5.123  12.637  0.00  0.00    +0.000 A 
ATOM     24  C   UNL     1       6.921   4.132  12.136  0.00  0.00    +0.000 A 
ATOM     25  C   UNL     1       6.022   3.502  12.993  0.00  0.00    +0.000 A 
ATOM     26  C   UNL     1       5.927   3.896  14.306  0.00  0.00    +0.000 A 
ENDBRANCH  18  21
ENDBRANCH  17  18
ENDBRANCH   4  17
TORSDOF 7
ENDMDL
MODEL 3
REMARK VINA RESULT:      -6.6      1.108      3.055
REMARK  Name = 
REMARK  8 active torsions:
REMARK  status: ('A' for Active; 'I' for Inactive)
REMARK    1  A    between atoms: C_1  and  O_2
REMARK    2  A    between atoms: O_2  and  C_3
REMARK    3  A    between atoms: C_3  and  C_4
REMARK    4  A    between atoms: C_4  and  N_5
REMARK    5  A    between atoms: N_7  and  C_8
REMARK    6  A    between atoms: N_14  and  C_15
REMARK    7  A    between atoms: C_15  and  C_16
REMARK    8  A    between atoms: C_16  and  C_17
REMARK                            x       y       z     vdW  Elec       q    Type
REMARK                         _______ _______ _______ _____ _____    ______ ____
ROOT
ATOM      1  N   UNL     1       2.215   7.154  18.252  0.00  0.00    +0.000 N 
ATOM      2  C   UNL     1       2.868   5.967  18.078  0.00  0.00    +0.000 C 
ATOM      3  N   UNL     1       2.489   4.787  18.362  0.00  0.00    +0.000 NA
ATOM      4  N   UNL     1       4.070   6.108  17.431  0.00  0.00    +0.000 N 
ATOM      5  H   UNL     1       1.783   7.262  19.165  0.00  0.00    +0.000 HD
ATOM      6  H   UNL     1       4.217   5.462  16.673  0.00  0.00    +0.000 HD
ENDROOT
BRANCH   3   7
ATOM      7  C   UNL     1       1.293   4.210  18.978  0.00  0.00    +0.000 C 
ATOM      8  C   UNL     1       1.139   2.701  19.069  0.00  0.00    +0.000 C 
ATOM      9  C   UNL     1       2.002   1.996  20.123  0.00  0.00    +0.000 C 
ATOM     10  C   UNL     1       2.131   2.738  21.454  0.00  0.00    +0.000 C 
ATOM     11  C   UNL     1       2.320   4.237  21.276  0.00  0.00    +0.000 C 
ATOM     12  C   UNL     1       1.212   4.810  20.398  0.00  0.00    +0.000 C 
ENDBRANCH   3   7
BRANCH   1  13
ATOM     13  C   UNL     1       2.642   8.414  17.649  0.00  0.00    +0.000 C 
BRANCH  13  14
ATOM     14  C   UNL     1       1.823   9.626  18.013  0.00  0.00    +0.000 C 
BRANCH  14  16
ATOM     15  C   UNL     1       0.045  10.286  19.365  0.00  0.00    +0.000 C 
ATOM     16  O   UNL     1       1.141   9.394  19.241  0.00  0.00    +0.000 OA
ENDBRANCH  14  16
ENDBRANCH  13  14
ENDBRANCH   1  13
BRANCH   4  17
ATOM     17  C   UNL     1       5.209   6.846  17.942  0.00  0.00    +0.000 C 
BRANCH  17  18
ATOM     18  C   UNL     1       6.582   6.213  17.739  0.00  0.00    +0.000 C 
ATOM     19  C   UNL     1       7.807   7.031  18.100  0.00  0.00    +0.000 C 
ATOM     20  C   UNL     1       7.479   5.809  18.905  0.00  0.00    +0.000 C 
BRANCH  18  21
ATOM     21  C   UNL     1       6.584   5.295  16.511  0.00  0.00    +0.000 A 
ATOM     22  C   UNL     1       7.152   5.693  15.294  0.00  0.00    +0.000 A 
ATOM     23  C   UNL     1       6.957   4.946  14.123  0.00  0.00    +0.000 A 
ATOM     24  C   UNL     1       6.179   3.792  14.151  0.00  0.00    +0.000 A 
ATOM     25  C   UNL     1       5.640   3.362  15.361  0.00  0.00    +0.000 A 
ATOM     26  C   UNL     1       5.827   4.103  16.503  0.00  0.00    +0.000 A 
ENDBRANCH  18  21
ENDBRANCH  17  18
ENDBRANCH   4  17
TORSDOF 7
ENDMDL
MODEL 4
REMARK VINA RESULT:      -6.6      2.201      7.022
REMARK  Name = 
REMARK  8 active torsions:
REMARK  status: ('A' for Active; 'I' for Inactive)
REMARK    1  A    between atoms: C_1  and  O_2
REMARK    2  A    between atoms: O_2  and  C_3
REMARK    3  A    between atoms: C_3  and  C_4
REMARK    4  A    between atoms: C_4  and  N_5
REMARK    5  A    between atoms: N_7  and  C_8
REMARK    6  A    between atoms: N_14  and  C_15
REMARK    7  A    between atoms: C_15  and  C_16
REMARK    8  A    between atoms: C_16  and  C_17
REMARK                            x       y       z     vdW  Elec       q    Type
REMARK                         _______ _______ _______ _____ _____    ______ ____
ROOT
ATOM      1  N   UNL     1       3.289   5.348  20.097  0.00  0.00    +0.000 N 
ATOM      2  C   UNL     1       3.369   6.254  19.078  0.00  0.00    +0.000 C 
ATOM      3  N   UNL     1       4.274   6.401  18.197  0.00  0.00    +0.000 NA
ATOM      4  N   UNL     1       2.256   7.050  18.982  0.00  0.00    +0.000 N 
ATOM      5  H   UNL     1       4.149   5.240  20.627  0.00  0.00    +0.000 HD
ATOM      6  H   UNL     1       1.879   7.136  18.052  0.00  0.00    +0.000 HD
ENDROOT
BRANCH   3   7
ATOM      7  C   UNL     1       5.548   5.742  17.911  0.00  0.00    +0.000 C 
ATOM      8  C   UNL     1       5.587   4.246  17.649  0.00  0.00    +0.000 C 
ATOM      9  C   UNL     1       5.061   3.784  16.284  0.00  0.00    +0.000 C 
ATOM     10  C   UNL     1       5.445   4.681  15.107  0.00  0.00    +0.000 C 
ATOM     11  C   UNL     1       5.345   6.162  15.438  0.00  0.00    +0.000 C 
ATOM     12  C   UNL     1       6.149   6.481  16.695  0.00  0.00    +0.000 C 
ENDBRANCH   3   7
BRANCH   1  13
ATOM     13  C   UNL     1       2.079   5.110  20.881  0.00  0.00    +0.000 C 
BRANCH  13  14
ATOM     14  C   UNL     1       1.526   3.709  20.824  0.00  0.00    +0.000 C 
BRANCH  14  16
ATOM     15  C   UNL     1       1.097   2.470  18.899  0.00  0.00    +0.000 C 
ATOM     16  O   UNL     1       0.679   3.572  19.686  0.00  0.00    +0.000 OA
ENDBRANCH  14  16
ENDBRANCH  13  14
ENDBRANCH   1  13
BRANCH   4  17
ATOM     17  C   UNL     1       1.812   7.986  19.996  0.00  0.00    +0.000 C 
BRANCH  17  18
ATOM     18  C   UNL     1       1.095   9.240  19.504  0.00  0.00    +0.000 C 
ATOM     19  C   UNL     1       1.797  10.110  18.479  0.00  0.00    +0.000 C 
ATOM     20  C   UNL     1       0.555   9.371  18.083  0.00  0.00    +0.000 C 
BRANCH  18  21
ATOM     21  C   UNL     1       0.258   9.867  20.625  0.00  0.00    +0.000 A 
ATOM     22  C   UNL     1      -0.025  11.239  20.655  0.00  0.00    +0.000 A 
ATOM     23  C   UNL     1      -0.596  11.837  21.787  0.00  0.00    +0.000 A 
ATOM     24  C   UNL     1      -0.885  11.071  22.913  0.00  0.00    +0.000 A 
ATOM     25  C   UNL     1      -0.645   9.700  22.885  0.00  0.00    +0.000 A 
ATOM     26  C   UNL     1      -0.077   9.120  21.776  0.00  0.00    +0.000 A 
ENDBRANCH  18  21
ENDBRANCH  17  18
ENDBRANCH   4  17
TORSDOF 7
ENDMDL
MODEL 5
REMARK VINA RESULT:      -6.5      1.615      5.641
REMARK  Name = 
REMARK  8 active torsions:
REMARK  status: ('A' for Active; 'I' for Inactive)
REMARK    1  A    between atoms: C_1  and  O_2
REMARK    2  A    between atoms: O_2  and  C_3
REMARK    3  A    between atoms: C_3  and  C_4
REMARK    4  A    between atoms: C_4  and  N_5
REMARK    5  A    between atoms: N_7  and  C_8
REMARK    6  A    between atoms: N_14  and  C_15
REMARK    7  A    between atoms: C_15  and  C_16
REMARK    8  A    between atoms: C_16  and  C_17
REMARK                            x       y       z     vdW  Elec       q    Type
REMARK                         _______ _______ _______ _____ _____    ______ ____
ROOT
ATOM      1  N   UNL     1       2.424   7.595  19.048  0.00  0.00    +0.000 N 
ATOM      2  C   UNL     1       3.255   6.526  19.229  0.00  0.00    +0.000 C 
ATOM      3  N   UNL     1       4.232   6.133  18.518  0.00  0.00    +0.000 NA
ATOM      4  N   UNL     1       3.012   5.854  20.401  0.00  0.00    +0.000 N 
ATOM      5  H   UNL     1       2.076   7.695  18.098  0.00  0.00    +0.000 HD
ATOM      6  H   UNL     1       3.834   5.655  20.949  0.00  0.00    +0.000 HD
ENDROOT
BRANCH   3   7
ATOM      7  C   UNL     1       4.846   6.589  17.270  0.00  0.00    +0.000 C 
ATOM      8  C   UNL     1       6.205   7.268  17.297  0.00  0.00    +0.000 C 
ATOM      9  C   UNL     1       7.413   6.354  17.538  0.00  0.00    +0.000 C 
ATOM     10  C   UNL     1       7.353   5.002  16.826  0.00  0.00    +0.000 C 
ATOM     11  C   UNL     1       5.970   4.371  16.876  0.00  0.00    +0.000 C 
ATOM     12  C   UNL     1       4.922   5.348  16.353  0.00  0.00    +0.000 C 
ENDBRANCH   3   7
BRANCH   1  13
ATOM     13  C   UNL     1       1.506   8.095  20.069  0.00  0.00    +0.000 C 
BRANCH  13  14
ATOM     14  C   UNL     1       1.097   9.540  19.932  0.00  0.00    +0.000 C 
BRANCH  14  16
ATOM     15  C   UNL     1      -0.284  10.986  18.738  0.00  0.00    +0.000 C 
ATOM     16  O   UNL     1       0.347   9.716  18.734  0.00  0.00    +0.000 OA
ENDBRANCH  14  16
ENDBRANCH  13  14
ENDBRANCH   1  13
BRANCH   4  17
ATOM     17  C   UNL     1       1.782   5.158  20.721  0.00  0.00    +0.000 C 
BRANCH  17  18
ATOM     18  C   UNL     1       1.853   3.636  20.787  0.00  0.00    +0.000 C 
ATOM     19  C   UNL     1       2.411   2.998  22.045  0.00  0.00    +0.000 C 
ATOM     20  C   UNL     1       0.962   2.811  21.711  0.00  0.00    +0.000 C 
BRANCH  18  21
ATOM     21  C   UNL     1       2.156   3.043  19.405  0.00  0.00    +0.000 A 
ATOM     22  C   UNL     1       3.152   2.075  19.221  0.00  0.00    +0.000 A 
ATOM     23  C   UNL     1       3.572   1.702  17.936  0.00  0.00    +0.000 A 
ATOM     24  C   UNL     1       3.007   2.302  16.814  0.00  0.00    +0.000 A 
ATOM     25  C   UNL     1       1.989   3.237  16.980  0.00  0.00    +0.000 A 
ATOM     26  C   UNL     1       1.588   3.605  18.241  0.00  0.00    +0.000 A 
ENDBRANCH  18  21
ENDBRANCH  17  18
ENDBRANCH   4  17
TORSDOF 7
ENDMDL
MODEL 6
REMARK VINA RESULT:      -6.5      1.094      2.999
REMARK  Name = 
REMARK  8 active torsions:
REMARK  status: ('A' for Active; 'I' for Inactive)
REMARK    1  A    between atoms: C_1  and  O_2
REMARK    2  A    between atoms: O_2  and  C_3
REMARK    3  A    between atoms: C_3  and  C_4
REMARK    4  A    between atoms: C_4  and  N_5
REMARK    5  A    between atoms: N_7  and  C_8
REMARK    6  A    between atoms: N_14  and  C_15
REMARK    7  A    between atoms: C_15  and  C_16
REMARK    8  A    between atoms: C_16  and  C_17
REMARK                            x       y       z     vdW  Elec       q    Type
REMARK                         _______ _______ _______ _____ _____    ______ ____
ROOT
ATOM      1  N   UNL     1       3.318   6.527  18.670  0.00  0.00    +0.000 N 
ATOM      2  C   UNL     1       3.678   5.336  18.108  0.00  0.00    +0.000 C 
ATOM      3  N   UNL     1       3.691   4.172  18.620  0.00  0.00    +0.000 NA
ATOM      4  N   UNL     1       3.991   5.446  16.776  0.00  0.00    +0.000 N 
ATOM      5  H   UNL     1       3.705   6.685  19.596  0.00  0.00    +0.000 HD
ATOM      6  H   UNL     1       3.555   4.758  16.184  0.00  0.00    +0.000 HD
ENDROOT
BRANCH   3   7
ATOM      7  C   UNL     1       3.378   3.626  19.940  0.00  0.00    +0.000 C 
ATOM      8  C   UNL     1       2.429   4.369  20.865  0.00  0.00    +0.000 C 
ATOM      9  C   UNL     1       0.940   4.301  20.501  0.00  0.00    +0.000 C 
ATOM     10  C   UNL     1       0.459   2.938  20.001  0.00  0.00    +0.000 C 
ATOM     11  C   UNL     1       1.447   2.276  19.054  0.00  0.00    +0.000 C 
ATOM     12  C   UNL     1       2.829   2.203  19.695  0.00  0.00    +0.000 C 
ENDBRANCH   3   7
BRANCH   1  13
ATOM     13  C   UNL     1       3.097   7.754  17.906  0.00  0.00    +0.000 C 
BRANCH  13  14
ATOM     14  C   UNL     1       1.790   8.460  18.164  0.00  0.00    +0.000 C 
BRANCH  14  16
ATOM     15  C   UNL     1       0.850   9.736  19.870  0.00  0.00    +0.000 C 
ATOM     16  O   UNL     1       1.558   8.547  19.566  0.00  0.00    +0.000 OA
ENDBRANCH  14  16
ENDBRANCH  13  14
ENDBRANCH   1  13
BRANCH   4  17
ATOM     17  C   UNL     1       5.097   6.218  16.242  0.00  0.00    +0.000 C 
BRANCH  17  18
ATOM     18  C   UNL     1       6.396   5.462  15.981  0.00  0.00    +0.000 C 
ATOM     19  C   UNL     1       7.642   5.901  16.728  0.00  0.00    +0.000 C 
ATOM     20  C   UNL     1       7.044   4.559  17.027  0.00  0.00    +0.000 C 
BRANCH  18  21
ATOM     21  C   UNL     1       6.477   5.002  14.521  0.00  0.00    +0.000 A 
ATOM     22  C   UNL     1       5.631   4.006  14.015  0.00  0.00    +0.000 A 
ATOM     23  C   UNL     1       5.855   3.438  12.753  0.00  0.00    +0.000 A 
ATOM     24  C   UNL     1       6.938   3.850  11.981  0.00  0.00    +0.000 A 
ATOM     25  C   UNL     1       7.765   4.866  12.454  0.00  0.00    +0.000 A 
ATOM     26  C   UNL     1       7.546   5.413  13.696  0.00  0.00    +0.000 A 
ENDBRANCH  18  21
ENDBRANCH  17  18
ENDBRANCH   4  17
TORSDOF 7
ENDMDL
MODEL 7
REMARK VINA RESULT:      -6.5      1.274      3.096
REMARK  Name = 
REMARK  8 active torsions:
REMARK  status: ('A' for Active; 'I' for Inactive)
REMARK    1  A    between atoms: C_1  and  O_2
REMARK    2  A    between atoms: O_2  and  C_3
REMARK    3  A    between atoms: C_3  and  C_4
REMARK    4  A    between atoms: C_4  and  N_5
REMARK    5  A    between atoms: N_7  and  C_8
REMARK    6  A    between atoms: N_14  and  C_15
REMARK    7  A    between atoms: C_15  and  C_16
REMARK    8  A    between atoms: C_16  and  C_17
REMARK                            x       y       z     vdW  Elec       q    Type
REMARK                         _______ _______ _______ _____ _____    ______ ____
ROOT
ATOM      1  N   UNL     1       3.097   5.451  18.972  0.00  0.00    +0.000 N 
ATOM      2  C   UNL     1       3.523   4.528  18.060  0.00  0.00    +0.000 C 
ATOM      3  N   UNL     1       3.604   3.264  18.168  0.00  0.00    +0.000 NA
ATOM      4  N   UNL     1       3.825   5.081  16.841  0.00  0.00    +0.000 N 
ATOM      5  H   UNL     1       3.477   5.321  19.905  0.00  0.00    +0.000 HD
ATOM      6  H   UNL     1       3.427   4.600  16.051  0.00  0.00    +0.000 HD
ENDROOT
BRANCH   3   7
ATOM      7  C   UNL     1       3.326   2.302  19.235  0.00  0.00    +0.000 C 
ATOM      8  C   UNL     1       3.381   2.744  20.688  0.00  0.00    +0.000 C 
ATOM      9  C   UNL     1       2.208   3.602  21.178  0.00  0.00    +0.000 C 
ATOM     10  C   UNL     1       0.835   3.177  20.658  0.00  0.00    +0.000 C 
ATOM     11  C   UNL     1       0.856   2.786  19.189  0.00  0.00    +0.000 C 
ATOM     12  C   UNL     1       1.924   1.726  18.938  0.00  0.00    +0.000 C 
ENDBRANCH   3   7
BRANCH   1  13
ATOM     13  C   UNL     1       2.804   6.845  18.643  0.00  0.00    +0.000 C 
BRANCH  13  14
ATOM     14  C   UNL     1       2.179   7.661  19.746  0.00  0.00    +0.000 C 
BRANCH  14  16
ATOM     15  C   UNL     1       2.044   9.135  17.947  0.00  0.00    +0.000 C 
ATOM     16  O   UNL     1       1.465   8.759  19.186  0.00  0.00    +0.000 OA
ENDBRANCH  14  16
ENDBRANCH  13  14
ENDBRANCH   1  13
BRANCH   4  17
ATOM     17  C   UNL     1       4.884   6.044  16.603  0.00  0.00    +0.000 C 
BRANCH  17  18
ATOM     18  C   UNL     1       6.268   5.479  16.303  0.00  0.00    +0.000 C 
ATOM     19  C   UNL     1       7.457   6.071  17.035  0.00  0.00    +0.000 C 
ATOM     20  C   UNL     1       7.056   4.655  17.319  0.00  0.00    +0.000 C 
BRANCH  18  21
ATOM     21  C   UNL     1       6.381   5.058  14.833  0.00  0.00    +0.000 A 
ATOM     22  C   UNL     1       5.534   4.091  14.276  0.00  0.00    +0.000 A 
ATOM     23  C   UNL     1       5.782   3.555  13.005  0.00  0.00    +0.000 A 
ATOM     24  C   UNL     1       6.891   3.972  12.273  0.00  0.00    +0.000 A 
ATOM     25  C   UNL     1       7.720   4.961  12.797  0.00  0.00    +0.000 A 
ATOM     26  C   UNL     1       7.477   5.476  14.047  0.00  0.00    +0.000 A 
ENDBRANCH  18  21
ENDBRANCH  17  18
ENDBRANCH   4  17
TORSDOF 7
ENDMDL
MODEL 8
REMARK VINA RESULT:      -6.4      0.664      1.181
REMARK  Name = 
REMARK  8 active torsions:
REMARK  status: ('A' for Active; 'I' for Inactive)
REMARK    1  A    between atoms: C_1  and  O_2
REMARK    2  A    between atoms: O_2  and  C_3
REMARK    3  A    between atoms: C_3  and  C_4
REMARK    4  A    between atoms: C_4  and  N_5
REMARK    5  A    between atoms: N_7  and  C_8
REMARK    6  A    between atoms: N_14  and  C_15
REMARK    7  A    between atoms: C_15  and  C_16
REMARK    8  A    between atoms: C_16  and  C_17
REMARK                            x       y       z     vdW  Elec       q    Type
REMARK                         _______ _______ _______ _____ _____    ______ ____
ROOT
ATOM      1  N   UNL     1       3.546   6.356  18.376  0.00  0.00    +0.000 N 
ATOM      2  C   UNL     1       3.707   5.150  17.756  0.00  0.00    +0.000 C 
ATOM      3  N   UNL     1       3.688   3.979  18.250  0.00  0.00    +0.000 NA
ATOM      4  N   UNL     1       3.827   5.262  16.394  0.00  0.00    +0.000 N 
ATOM      5  H   UNL     1       4.079   6.458  19.235  0.00  0.00    +0.000 HD
ATOM      6  H   UNL     1       3.245   4.630  15.867  0.00  0.00    +0.000 HD
ENDROOT
BRANCH   3   7
ATOM      7  C   UNL     1       3.526   3.433  19.598  0.00  0.00    +0.000 C 
ATOM      8  C   UNL     1       2.767   4.223  20.651  0.00  0.00    +0.000 C 
ATOM      9  C   UNL     1       1.241   4.259  20.499  0.00  0.00    +0.000 C 
ATOM     10  C   UNL     1       0.604   2.939  20.063  0.00  0.00    +0.000 C 
ATOM     11  C   UNL     1       1.403   2.228  18.982  0.00  0.00    +0.000 C 
ATOM     12  C   UNL     1       2.853   2.054  19.423  0.00  0.00    +0.000 C 
ENDBRANCH   3   7
BRANCH   1  13
ATOM     13  C   UNL     1       3.328   7.614  17.665  0.00  0.00    +0.000 C 
BRANCH  13  14
ATOM     14  C   UNL     1       2.039   8.331  17.980  0.00  0.00    +0.000 C 
BRANCH  14  16
ATOM     15  C   UNL     1       1.575  10.576  18.389  0.00  0.00    +0.000 C 
ATOM     16  O   UNL     1       2.078   9.649  17.442  0.00  0.00    +0.000 OA
ENDBRANCH  14  16
ENDBRANCH  13  14
ENDBRANCH   1  13
BRANCH   4  17
ATOM     17  C   UNL     1       4.907   5.942  15.706  0.00  0.00    +0.000 C 
BRANCH  17  18
ATOM     18  C   UNL     1       6.318   5.425  15.967  0.00  0.00    +0.000 C 
ATOM     19  C   UNL     1       6.598   3.954  15.727  0.00  0.00    +0.000 C 
ATOM     20  C   UNL     1       7.248   4.975  14.843  0.00  0.00    +0.000 C 
BRANCH  18  21
ATOM     21  C   UNL     1       6.962   6.165  17.145  0.00  0.00    +0.000 A 
ATOM     22  C   UNL     1       7.328   7.515  17.057  0.00  0.00    +0.000 A 
ATOM     23  C   UNL     1       8.111   8.120  18.050  0.00  0.00    +0.000 A 
ATOM     24  C   UNL     1       8.549   7.380  19.145  0.00  0.00    +0.000 A 
ATOM     25  C   UNL     1       8.161   6.049  19.266  0.00  0.00    +0.000 A 
ATOM     26  C   UNL     1       7.402   5.457  18.285  0.00  0.00    +0.000 A 
ENDBRANCH  18  21
ENDBRANCH  17  18
ENDBRANCH   4  17
TORSDOF 7
ENDMDL
MODEL 9
REMARK VINA RESULT:      -6.4      1.508      5.617
REMARK  Name = 
REMARK  8 active torsions:
REMARK  status: ('A' for Active; 'I' for Inactive)
REMARK    1  A    between atoms: C_1  and  O_2
REMARK    2  A    between atoms: O_2  and  C_3
REMARK    3  A    between atoms: C_3  and  C_4
REMARK    4  A    between atoms: C_4  and  N_5
REMARK    5  A    between atoms: N_7  and  C_8
REMARK    6  A    between atoms: N_14  and  C_15
REMARK    7  A    between atoms: C_15  and  C_16
REMARK    8  A    between atoms: C_16  and  C_17
REMARK                            x       y       z     vdW  Elec       q    Type
REMARK                         _______ _______ _______ _____ _____    ______ ____
ROOT
ATOM      1  N   UNL     1       3.227   6.879  18.338  0.00  0.00    +0.000 N 
ATOM      2  C   UNL     1       3.922   5.967  19.080  0.00  0.00    +0.000 C 
ATOM      3  N   UNL     1       5.004   5.359  18.808  0.00  0.00    +0.000 NA
ATOM      4  N   UNL     1       3.376   5.764  20.323  0.00  0.00    +0.000 N 
ATOM      5  H   UNL     1       3.109   6.620  17.363  0.00  0.00    +0.000 HD
ATOM      6  H   UNL     1       4.038   5.794  21.082  0.00  0.00    +0.000 HD
ENDROOT
BRANCH   3   7
ATOM      7  C   UNL     1       5.912   5.340  17.661  0.00  0.00    +0.000 C 
ATOM      8  C   UNL     1       6.067   6.578  16.793  0.00  0.00    +0.000 C 
ATOM      9  C   UNL     1       6.880   7.730  17.398  0.00  0.00    +0.000 C 
ATOM     10  C   UNL     1       8.121   7.302  18.182  0.00  0.00    +0.000 C 
ATOM     11  C   UNL     1       7.875   6.079  19.053  0.00  0.00    +0.000 C 
ATOM     12  C   UNL     1       7.297   4.941  18.218  0.00  0.00    +0.000 C 
ENDBRANCH   3   7
BRANCH   1  13
ATOM     13  C   UNL     1       2.139   7.700  18.866  0.00  0.00    +0.000 C 
BRANCH  13  14
ATOM     14  C   UNL     1       1.759   8.898  18.034  0.00  0.00    +0.000 C 
BRANCH  14  16
ATOM     15  C   UNL     1      -0.134  10.201  18.419  0.00  0.00    +0.000 C 
ATOM     16  O   UNL     1       1.177   9.897  18.867  0.00  0.00    +0.000 OA
ENDBRANCH  14  16
ENDBRANCH  13  14
ENDBRANCH   1  13
BRANCH   4  17
ATOM     17  C   UNL     1       2.060   5.209  20.575  0.00  0.00    +0.000 C 
BRANCH  17  18
ATOM     18  C   UNL     1       1.955   3.688  20.622  0.00  0.00    +0.000 C 
ATOM     19  C   UNL     1       2.279   2.988  21.928  0.00  0.00    +0.000 C 
ATOM     20  C   UNL     1       0.871   2.965  21.415  0.00  0.00    +0.000 C 
BRANCH  18  21
ATOM     21  C   UNL     1       2.360   3.071  19.278  0.00  0.00    +0.000 A 
ATOM     22  C   UNL     1       3.403   2.140  19.179  0.00  0.00    +0.000 A 
ATOM     23  C   UNL     1       3.910   1.750  17.932  0.00  0.00    +0.000 A 
ATOM     24  C   UNL     1       3.388   2.295  16.761  0.00  0.00    +0.000 A 
ATOM     25  C   UNL     1       2.326   3.191  16.842  0.00  0.00    +0.000 A 
ATOM     26  C   UNL     1       1.838   3.577  18.068  0.00  0.00    +0.000 A 
ENDBRANCH  18  21
ENDBRANCH  17  18
ENDBRANCH   4  17
TORSDOF 7
ENDMDL
