MODEL 1
REMARK VINA RESULT:      -8.4      0.000      0.000
REMARK  Name = 
REMARK  10 active torsions:
REMARK  status: ('A' for Active; 'I' for Inactive)
REMARK    1  A    between atoms: C_1  and  O_2
REMARK    2  A    between atoms: O_2  and  C_3
REMARK    3  A    between atoms: C_3  and  C_5
REMARK    4  A    between atoms: C_5  and  C_6
REMARK    5  A    between atoms: C_6  and  C_7
REMARK    6  A    between atoms: C_7  and  N_8
REMARK    7  A    between atoms: C_10  and  C_11
REMARK    8  A    between atoms: C_15  and  C_16
REMARK    9  A    between atoms: C_22  and  O_23
REMARK   10  A    between atoms: O_23  and  C_24
REMARK                            x       y       z     vdW  Elec       q    Type
REMARK                         _______ _______ _______ _____ _____    ______ ____
ROOT
ATOM      1  C   UNL     1       6.248   5.049  16.741  0.00  0.00    +0.000 A 
ATOM      2  C   UNL     1       7.303   5.428  17.574  0.00  0.00    +0.000 A 
ATOM      3  C   UNL     1       7.094   5.529  18.942  0.00  0.00    +0.000 A 
ATOM      4  C   UNL     1       5.845   5.207  19.483  0.00  0.00    +0.000 A 
ATOM      5  C   UNL     1       4.749   4.817  18.679  0.00  0.00    +0.000 A 
ATOM      6  C   UNL     1       4.973   4.806  17.288  0.00  0.00    +0.000 A 
ENDROOT
BRANCH   5   7
ATOM      7  C   UNL     1       3.459   4.375  19.311  0.00  0.00    +0.000 A 
ATOM      8  C   UNL     1       3.093   3.010  19.258  0.00  0.00    +0.000 A 
ATOM      9  C   UNL     1       1.851   2.561  19.701  0.00  0.00    +0.000 A 
ATOM     10  F   UNL     1       1.531   1.268  19.569  0.00  0.00    +0.000 F 
ATOM     11  C   UNL     1       0.935   3.435  20.252  0.00  0.00    +0.000 A 
ATOM     12  C   UNL     1       1.271   4.779  20.369  0.00  0.00    +0.000 A 
ATOM     13  C   UNL     1       2.515   5.258  19.912  0.00  0.00    +0.000 A 
BRANCH  13  14
ATOM     14  O   UNL     1       2.808   6.601  19.946  0.00  0.00    +0.000 OA
ATOM     15  C   UNL     1       2.273   7.403  18.895  0.00  0.00    +0.000 C 
ENDBRANCH  13  14
ENDBRANCH   5   7
BRANCH   1  18
ATOM     16  N   UNL     1       6.594   4.115  13.354  0.00  0.00    +0.000 N 
ATOM     17  N   UNL     1       5.973   3.883  14.551  0.00  0.00    +0.000 NA
ATOM     18  C   UNL     1       6.478   4.807  15.309  0.00  0.00    +0.000 A 
ATOM     19  O   UNL     1       7.383   5.628  14.720  0.00  0.00    +0.000 OA
ATOM     20  C   UNL     1       7.466   5.170  13.439  0.00  0.00    +0.000 A 
ATOM     21  O   UNL     1       8.186   5.640  12.578  0.00  0.00    +0.000 OA
BRANCH  16  22
ATOM     22  C   UNL     1       6.325   3.338  12.167  0.00  0.00    +0.000 C 
BRANCH  22  23
ATOM     23  C   UNL     1       4.839   3.130  11.894  0.00  0.00    +0.000 C 
BRANCH  23  24
ATOM     24  C   UNL     1       4.293   3.997  10.759  0.00  0.00    +0.000 C 
BRANCH  24  25
ATOM     25  C   UNL     1       3.090   3.346  10.115  0.00  0.00    +0.000 C 
ATOM     26  O   UNL     1       2.390   2.487  10.633  0.00  0.00    +0.000 OA
BRANCH  25  28
ATOM     27  C   UNL     1       2.176   5.081   8.843  0.00  0.00    +0.000 C 
ATOM     28  O   UNL     1       2.902   3.850   8.862  0.00  0.00    +0.000 OA
ENDBRANCH  25  28
ENDBRANCH  24  25
ENDBRANCH  23  24
ENDBRANCH  22  23
ENDBRANCH  16  22
ENDBRANCH   1  18
TORSDOF 8
ENDMDL
MODEL 2
REMARK VINA RESULT:      -8.4      1.464      2.033
REMARK  Name = 
REMARK  10 active torsions:
REMARK  status: ('A' for Active; 'I' for Inactive)
REMARK    1  A    between atoms: C_1  and  O_2
REMARK    2  A    between atoms: O_2  and  C_3
REMARK    3  A    between atoms: C_3  and  C_5
REMARK    4  A    between atoms: C_5  and  C_6
REMARK    5  A    between atoms: C_6  and  C_7
REMARK    6  A    between atoms: C_7  and  N_8
REMARK    7  A    between atoms: C_10  and  C_11
REMARK    8  A    between atoms: C_15  and  C_16
REMARK    9  A    between atoms: C_22  and  O_23
REMARK   10  A    between atoms: O_23  and  C_24
REMARK                            x       y       z     vdW  Elec       q    Type
REMARK                         _______ _______ _______ _____ _____    ______ ____
ROOT
ATOM      1  C   UNL     1       6.341   4.905  16.510  0.00  0.00    +0.000 A 
ATOM      2  C   UNL     1       7.414   5.024  17.396  0.00  0.00    +0.000 A 
ATOM      3  C   UNL     1       7.171   5.092  18.760  0.00  0.00    +0.000 A 
ATOM      4  C   UNL     1       5.862   4.993  19.242  0.00  0.00    +0.000 A 
ATOM      5  C   UNL     1       4.746   4.868  18.384  0.00  0.00    +0.000 A 
ATOM      6  C   UNL     1       5.022   4.887  17.001  0.00  0.00    +0.000 A 
ENDROOT
BRANCH   5   7
ATOM      7  C   UNL     1       3.369   4.655  18.948  0.00  0.00    +0.000 A 
ATOM      8  C   UNL     1       2.819   5.625  19.818  0.00  0.00    +0.000 A 
ATOM      9  C   UNL     1       1.610   5.422  20.480  0.00  0.00    +0.000 A 
ATOM     10  F   UNL     1       1.167   6.345  21.342  0.00  0.00    +0.000 F 
ATOM     11  C   UNL     1       0.875   4.270  20.280  0.00  0.00    +0.000 A 
ATOM     12  C   UNL     1       1.355   3.310  19.395  0.00  0.00    +0.000 A 
ATOM     13  C   UNL     1       2.583   3.487  18.728  0.00  0.00    +0.000 A 
BRANCH  13  14
ATOM     14  O   UNL     1       3.096   2.497  17.924  0.00  0.00    +0.000 OA
ATOM     15  C   UNL     1       3.615   1.342  18.579  0.00  0.00    +0.000 C 
ENDBRANCH  13  14
ENDBRANCH   5   7
BRANCH   1  18
ATOM     16  N   UNL     1       6.738   4.040  13.109  0.00  0.00    +0.000 N 
ATOM     17  N   UNL     1       6.147   3.744  14.308  0.00  0.00    +0.000 NA
ATOM     18  C   UNL     1       6.579   4.698  15.073  0.00  0.00    +0.000 A 
ATOM     19  O   UNL     1       7.407   5.599  14.488  0.00  0.00    +0.000 OA
ATOM     20  C   UNL     1       7.519   5.163  13.201  0.00  0.00    +0.000 A 
ATOM     21  O   UNL     1       8.190   5.702  12.341  0.00  0.00    +0.000 OA
BRANCH  16  22
ATOM     22  C   UNL     1       6.525   3.257  11.916  0.00  0.00    +0.000 C 
BRANCH  22  23
ATOM     23  C   UNL     1       5.070   2.854  11.697  0.00  0.00    +0.000 C 
BRANCH  23  24
ATOM     24  C   UNL     1       4.175   4.004  11.233  0.00  0.00    +0.000 C 
BRANCH  24  25
ATOM     25  C   UNL     1       3.199   3.535  10.178  0.00  0.00    +0.000 C 
ATOM     26  O   UNL     1       2.462   2.565  10.280  0.00  0.00    +0.000 OA
BRANCH  25  28
ATOM     27  C   UNL     1       2.062   5.082   8.843  0.00  0.00    +0.000 C 
ATOM     28  O   UNL     1       3.265   4.350   9.086  0.00  0.00    +0.000 OA
ENDBRANCH  25  28
ENDBRANCH  24  25
ENDBRANCH  23  24
ENDBRANCH  22  23
ENDBRANCH  16  22
ENDBRANCH   1  18
TORSDOF 8
ENDMDL
MODEL 3
REMARK VINA RESULT:      -7.9      4.877      8.530
REMARK  Name = 
REMARK  10 active torsions:
REMARK  status: ('A' for Active; 'I' for Inactive)
REMARK    1  A    between atoms: C_1  and  O_2
REMARK    2  A    between atoms: O_2  and  C_3
REMARK    3  A    between atoms: C_3  and  C_5
REMARK    4  A    between atoms: C_5  and  C_6
REMARK    5  A    between atoms: C_6  and  C_7
REMARK    6  A    between atoms: C_7  and  N_8
REMARK    7  A    between atoms: C_10  and  C_11
REMARK    8  A    between atoms: C_15  and  C_16
REMARK    9  A    between atoms: C_22  and  O_23
REMARK   10  A    between atoms: O_23  and  C_24
REMARK                            x       y       z     vdW  Elec       q    Type
REMARK                         _______ _______ _______ _____ _____    ______ ____
ROOT
ATOM      1  C   UNL     1       2.187   6.435  19.885  0.00  0.00    +0.000 A 
ATOM      2  C   UNL     1       1.845   5.340  20.683  0.00  0.00    +0.000 A 
ATOM      3  C   UNL     1       2.437   4.108  20.446  0.00  0.00    +0.000 A 
ATOM      4  C   UNL     1       3.405   3.980  19.446  0.00  0.00    +0.000 A 
ATOM      5  C   UNL     1       3.785   5.059  18.616  0.00  0.00    +0.000 A 
ATOM      6  C   UNL     1       3.103   6.274  18.828  0.00  0.00    +0.000 A 
ENDROOT
BRANCH   5   7
ATOM      7  C   UNL     1       4.906   4.904  17.627  0.00  0.00    +0.000 A 
ATOM      8  C   UNL     1       4.602   4.671  16.265  0.00  0.00    +0.000 A 
ATOM      9  C   UNL     1       5.591   4.383  15.327  0.00  0.00    +0.000 A 
ATOM     10  F   UNL     1       5.242   4.108  14.064  0.00  0.00    +0.000 F 
ATOM     11  C   UNL     1       6.924   4.351  15.686  0.00  0.00    +0.000 A 
ATOM     12  C   UNL     1       7.273   4.621  17.005  0.00  0.00    +0.000 A 
ATOM     13  C   UNL     1       6.288   4.899  17.974  0.00  0.00    +0.000 A 
BRANCH  13  14
ATOM     14  O   UNL     1       6.630   5.076  19.294  0.00  0.00    +0.000 OA
ATOM     15  C   UNL     1       7.869   5.731  19.555  0.00  0.00    +0.000 C 
ENDBRANCH  13  14
ENDBRANCH   5   7
BRANCH   1  18
ATOM     16  N   UNL     1       1.045   9.755  20.252  0.00  0.00    +0.000 N 
ATOM     17  N   UNL     1       1.440   8.765  19.393  0.00  0.00    +0.000 NA
ATOM     18  C   UNL     1       1.674   7.776  20.200  0.00  0.00    +0.000 A 
ATOM     19  O   UNL     1       1.473   8.026  21.518  0.00  0.00    +0.000 OA
ATOM     20  C   UNL     1       1.068   9.327  21.554  0.00  0.00    +0.000 A 
ATOM     21  O   UNL     1       0.791   9.940  22.567  0.00  0.00    +0.000 OA
BRANCH  16  22
ATOM     22  C   UNL     1       0.643  11.067  19.803  0.00  0.00    +0.000 C 
BRANCH  22  23
ATOM     23  C   UNL     1      -0.869  11.257  19.737  0.00  0.00    +0.000 C 
BRANCH  23  24
ATOM     24  C   UNL     1      -1.349  11.937  18.454  0.00  0.00    +0.000 C 
BRANCH  24  25
ATOM     25  C   UNL     1      -1.925  10.924  17.491  0.00  0.00    +0.000 C 
ATOM     26  O   UNL     1      -1.440   9.828  17.245  0.00  0.00    +0.000 OA
BRANCH  25  28
ATOM     27  C   UNL     1      -4.252  11.083  17.652  0.00  0.00    +0.000 C 
ATOM     28  O   UNL     1      -3.066  11.413  16.926  0.00  0.00    +0.000 OA
ENDBRANCH  25  28
ENDBRANCH  24  25
ENDBRANCH  23  24
ENDBRANCH  22  23
ENDBRANCH  16  22
ENDBRANCH   1  18
TORSDOF 8
ENDMDL
MODEL 4
REMARK VINA RESULT:      -7.7      5.928      9.289
REMARK  Name = 
REMARK  10 active torsions:
REMARK  status: ('A' for Active; 'I' for Inactive)
REMARK    1  A    between atoms: C_1  and  O_2
REMARK    2  A    between atoms: O_2  and  C_3
REMARK    3  A    between atoms: C_3  and  C_5
REMARK    4  A    between atoms: C_5  and  C_6
REMARK    5  A    between atoms: C_6  and  C_7
REMARK    6  A    between atoms: C_7  and  N_8
REMARK    7  A    between atoms: C_10  and  C_11
REMARK    8  A    between atoms: C_15  and  C_16
REMARK    9  A    between atoms: C_22  and  O_23
REMARK   10  A    between atoms: O_23  and  C_24
REMARK                            x       y       z     vdW  Elec       q    Type
REMARK                         _______ _______ _______ _____ _____    ______ ____
ROOT
ATOM      1  C   UNL     1       1.050  10.301  18.403  0.00  0.00    +0.000 A 
ATOM      2  C   UNL     1       1.714  11.481  18.746  0.00  0.00    +0.000 A 
ATOM      3  C   UNL     1       1.013  12.678  18.781  0.00  0.00    +0.000 A 
ATOM      4  C   UNL     1      -0.361  12.689  18.521  0.00  0.00    +0.000 A 
ATOM      5  C   UNL     1      -1.076  11.520  18.172  0.00  0.00    +0.000 A 
ATOM      6  C   UNL     1      -0.316  10.337  18.064  0.00  0.00    +0.000 A 
ENDROOT
BRANCH   5   7
ATOM      7  C   UNL     1      -2.569  11.559  18.008  0.00  0.00    +0.000 A 
ATOM      8  C   UNL     1      -3.380  11.899  19.116  0.00  0.00    +0.000 A 
ATOM      9  C   UNL     1      -4.770  11.819  19.066  0.00  0.00    +0.000 A 
ATOM     10  F   UNL     1      -5.486  12.091  20.164  0.00  0.00    +0.000 F 
ATOM     11  C   UNL     1      -5.419  11.440  17.908  0.00  0.00    +0.000 A 
ATOM     12  C   UNL     1      -4.663  11.144  16.779  0.00  0.00    +0.000 A 
ATOM     13  C   UNL     1      -3.256  11.201  16.811  0.00  0.00    +0.000 A 
BRANCH  13  14
ATOM     14  O   UNL     1      -2.510  10.820  15.721  0.00  0.00    +0.000 OA
ATOM     15  C   UNL     1      -3.218  10.235  14.630  0.00  0.00    +0.000 C 
ENDBRANCH  13  14
ENDBRANCH   5   7
BRANCH   1  18
ATOM     16  N   UNL     1       2.572   7.171  18.995  0.00  0.00    +0.000 N 
ATOM     17  N   UNL     1       1.686   8.119  19.433  0.00  0.00    +0.000 NA
ATOM     18  C   UNL     1       1.739   9.005  18.488  0.00  0.00    +0.000 A 
ATOM     19  O   UNL     1       2.585   8.730  17.464  0.00  0.00    +0.000 OA
ATOM     20  C   UNL     1       3.138   7.531  17.799  0.00  0.00    +0.000 A 
ATOM     21  O   UNL     1       3.965   6.936  17.134  0.00  0.00    +0.000 OA
BRANCH  16  22
ATOM     22  C   UNL     1       2.835   5.950  19.719  0.00  0.00    +0.000 C 
BRANCH  22  23
ATOM     23  C   UNL     1       1.714   5.548  20.672  0.00  0.00    +0.000 C 
BRANCH  23  24
ATOM     24  C   UNL     1       1.085   4.192  20.348  0.00  0.00    +0.000 C 
BRANCH  24  25
ATOM     25  C   UNL     1       1.804   3.078  21.074  0.00  0.00    +0.000 C 
ATOM     26  O   UNL     1       1.559   2.706  22.214  0.00  0.00    +0.000 OA
BRANCH  25  28
ATOM     27  C   UNL     1       2.288   2.088  19.013  0.00  0.00    +0.000 C 
ATOM     28  O   UNL     1       2.774   2.550  20.275  0.00  0.00    +0.000 OA
ENDBRANCH  25  28
ENDBRANCH  24  25
ENDBRANCH  23  24
ENDBRANCH  22  23
ENDBRANCH  16  22
ENDBRANCH   1  18
TORSDOF 8
ENDMDL
MODEL 5
REMARK VINA RESULT:      -7.5      4.363      8.397
REMARK  Name = 
REMARK  10 active torsions:
REMARK  status: ('A' for Active; 'I' for Inactive)
REMARK    1  A    between atoms: C_1  and  O_2
REMARK    2  A    between atoms: O_2  and  C_3
REMARK    3  A    between atoms: C_3  and  C_5
REMARK    4  A    between atoms: C_5  and  C_6
REMARK    5  A    between atoms: C_6  and  C_7
REMARK    6  A    between atoms: C_7  and  N_8
REMARK    7  A    between atoms: C_10  and  C_11
REMARK    8  A    between atoms: C_15  and  C_16
REMARK    9  A    between atoms: C_22  and  O_23
REMARK   10  A    between atoms: O_23  and  C_24
REMARK                            x       y       z     vdW  Elec       q    Type
REMARK                         _______ _______ _______ _____ _____    ______ ____
ROOT
ATOM      1  C   UNL     1       2.590   5.818  19.065  0.00  0.00    +0.000 A 
ATOM      2  C   UNL     1       2.415   4.612  19.749  0.00  0.00    +0.000 A 
ATOM      3  C   UNL     1       3.075   3.473  19.310  0.00  0.00    +0.000 A 
ATOM      4  C   UNL     1       3.945   3.549  18.218  0.00  0.00    +0.000 A 
ATOM      5  C   UNL     1       4.155   4.747  17.497  0.00  0.00    +0.000 A 
ATOM      6  C   UNL     1       3.405   5.863  17.919  0.00  0.00    +0.000 A 
ENDROOT
BRANCH   5   7
ATOM      7  C   UNL     1       5.180   4.808  16.400  0.00  0.00    +0.000 A 
ATOM      8  C   UNL     1       4.863   4.283  15.125  0.00  0.00    +0.000 A 
ATOM      9  C   UNL     1       5.813   4.185  14.110  0.00  0.00    +0.000 A 
ATOM     10  F   UNL     1       5.476   3.622  12.944  0.00  0.00    +0.000 F 
ATOM     11  C   UNL     1       7.104   4.637  14.299  0.00  0.00    +0.000 A 
ATOM     12  C   UNL     1       7.447   5.205  15.521  0.00  0.00    +0.000 A 
ATOM     13  C   UNL     1       6.507   5.299  16.567  0.00  0.00    +0.000 A 
BRANCH  13  14
ATOM     14  O   UNL     1       6.875   5.778  17.802  0.00  0.00    +0.000 OA
ATOM     15  C   UNL     1       7.589   7.011  17.828  0.00  0.00    +0.000 C 
ENDBRANCH  13  14
ENDBRANCH   5   7
BRANCH   1  18
ATOM     16  N   UNL     1       1.319   8.984  19.973  0.00  0.00    +0.000 N 
ATOM     17  N   UNL     1       1.830   8.193  18.979  0.00  0.00    +0.000 NA
ATOM     18  C   UNL     1       2.008   7.063  19.589  0.00  0.00    +0.000 A 
ATOM     19  O   UNL     1       1.663   7.035  20.900  0.00  0.00    +0.000 OA
ATOM     20  C   UNL     1       1.219   8.298  21.156  0.00  0.00    +0.000 A 
ATOM     21  O   UNL     1       0.819   8.689  22.236  0.00  0.00    +0.000 OA
BRANCH  16  22
ATOM     22  C   UNL     1       0.928  10.357  19.759  0.00  0.00    +0.000 C 
BRANCH  22  23
ATOM     23  C   UNL     1      -0.582  10.563  19.692  0.00  0.00    +0.000 C 
BRANCH  23  24
ATOM     24  C   UNL     1      -1.168  10.373  18.292  0.00  0.00    +0.000 C 
BRANCH  24  25
ATOM     25  C   UNL     1      -1.695  11.682  17.747  0.00  0.00    +0.000 C 
ATOM     26  O   UNL     1      -1.142  12.767  17.861  0.00  0.00    +0.000 OA
BRANCH  25  28
ATOM     27  C   UNL     1      -2.757  10.836  15.844  0.00  0.00    +0.000 C 
ATOM     28  O   UNL     1      -2.885  11.478  17.115  0.00  0.00    +0.000 OA
ENDBRANCH  25  28
ENDBRANCH  24  25
ENDBRANCH  23  24
ENDBRANCH  22  23
ENDBRANCH  16  22
ENDBRANCH   1  18
TORSDOF 8
ENDMDL
MODEL 6
REMARK VINA RESULT:      -7.5      4.926      8.989
REMARK  Name = 
REMARK  10 active torsions:
REMARK  status: ('A' for Active; 'I' for Inactive)
REMARK    1  A    between atoms: C_1  and  O_2
REMARK    2  A    between atoms: O_2  and  C_3
REMARK    3  A    between atoms: C_3  and  C_5
REMARK    4  A    between atoms: C_5  and  C_6
REMARK    5  A    between atoms: C_6  and  C_7
REMARK    6  A    between atoms: C_7  and  N_8
REMARK    7  A    between atoms: C_10  and  C_11
REMARK    8  A    between atoms: C_15  and  C_16
REMARK    9  A    between atoms: C_22  and  O_23
REMARK   10  A    between atoms: O_23  and  C_24
REMARK                            x       y       z     vdW  Elec       q    Type
REMARK                         _______ _______ _______ _____ _____    ______ ____
ROOT
ATOM      1  C   UNL     1       2.117   6.385  19.979  0.00  0.00    +0.000 A 
ATOM      2  C   UNL     1       1.676   5.233  20.635  0.00  0.00    +0.000 A 
ATOM      3  C   UNL     1       2.206   4.000  20.283  0.00  0.00    +0.000 A 
ATOM      4  C   UNL     1       3.209   3.923  19.312  0.00  0.00    +0.000 A 
ATOM      5  C   UNL     1       3.687   5.062  18.624  0.00  0.00    +0.000 A 
ATOM      6  C   UNL     1       3.068   6.286  18.947  0.00  0.00    +0.000 A 
ENDROOT
BRANCH   5   7
ATOM      7  C   UNL     1       4.841   4.947  17.667  0.00  0.00    +0.000 A 
ATOM      8  C   UNL     1       4.583   4.721  16.294  0.00  0.00    +0.000 A 
ATOM      9  C   UNL     1       5.606   4.469  15.383  0.00  0.00    +0.000 A 
ATOM     10  F   UNL     1       5.302   4.198  14.108  0.00  0.00    +0.000 F 
ATOM     11  C   UNL     1       6.928   4.469  15.781  0.00  0.00    +0.000 A 
ATOM     12  C   UNL     1       7.231   4.735  17.112  0.00  0.00    +0.000 A 
ATOM     13  C   UNL     1       6.212   4.976  18.054  0.00  0.00    +0.000 A 
BRANCH  13  14
ATOM     14  O   UNL     1       6.510   5.148  19.386  0.00  0.00    +0.000 OA
ATOM     15  C   UNL     1       7.805   5.658  19.694  0.00  0.00    +0.000 C 
ENDBRANCH  13  14
ENDBRANCH   5   7
BRANCH   1  18
ATOM     16  N   UNL     1       1.134   9.705  20.669  0.00  0.00    +0.000 N 
ATOM     17  N   UNL     1       1.479   8.784  19.717  0.00  0.00    +0.000 NA
ATOM     18  C   UNL     1       1.668   7.713  20.424  0.00  0.00    +0.000 A 
ATOM     19  O   UNL     1       1.482   7.845  21.761  0.00  0.00    +0.000 OA
ATOM     20  C   UNL     1       1.140   9.154  21.924  0.00  0.00    +0.000 A 
ATOM     21  O   UNL     1       0.894   9.680  22.993  0.00  0.00    +0.000 OA
BRANCH  16  22
ATOM     22  C   UNL     1       0.794  11.072  20.351  0.00  0.00    +0.000 C 
BRANCH  22  23
ATOM     23  C   UNL     1       0.638  11.333  18.856  0.00  0.00    +0.000 C 
BRANCH  23  24
ATOM     24  C   UNL     1       0.290  12.783  18.516  0.00  0.00    +0.000 C 
BRANCH  24  25
ATOM     25  C   UNL     1       1.536  13.638  18.465  0.00  0.00    +0.000 C 
ATOM     26  O   UNL     1       2.627  13.272  18.053  0.00  0.00    +0.000 OA
BRANCH  25  28
ATOM     27  C   UNL     1      -0.106  15.260  18.841  0.00  0.00    +0.000 C 
ATOM     28  O   UNL     1       1.268  14.882  18.956  0.00  0.00    +0.000 OA
ENDBRANCH  25  28
ENDBRANCH  24  25
ENDBRANCH  23  24
ENDBRANCH  22  23
ENDBRANCH  16  22
ENDBRANCH   1  18
TORSDOF 8
ENDMDL
MODEL 7
REMARK VINA RESULT:      -7.4      5.952     10.673
REMARK  Name = 
REMARK  10 active torsions:
REMARK  status: ('A' for Active; 'I' for Inactive)
REMARK    1  A    between atoms: C_1  and  O_2
REMARK    2  A    between atoms: O_2  and  C_3
REMARK    3  A    between atoms: C_3  and  C_5
REMARK    4  A    between atoms: C_5  and  C_6
REMARK    5  A    between atoms: C_6  and  C_7
REMARK    6  A    between atoms: C_7  and  N_8
REMARK    7  A    between atoms: C_10  and  C_11
REMARK    8  A    between atoms: C_15  and  C_16
REMARK    9  A    between atoms: C_22  and  O_23
REMARK   10  A    between atoms: O_23  and  C_24
REMARK                            x       y       z     vdW  Elec       q    Type
REMARK                         _______ _______ _______ _____ _____    ______ ____
ROOT
ATOM      1  C   UNL     1       1.585   8.718  19.770  0.00  0.00    +0.000 A 
ATOM      2  C   UNL     1       1.820   9.327  18.535  0.00  0.00    +0.000 A 
ATOM      3  C   UNL     1       2.365   8.583  17.498  0.00  0.00    +0.000 A 
ATOM      4  C   UNL     1       2.630   7.223  17.679  0.00  0.00    +0.000 A 
ATOM      5  C   UNL     1       2.406   6.564  18.909  0.00  0.00    +0.000 A 
ATOM      6  C   UNL     1       1.931   7.368  19.965  0.00  0.00    +0.000 A 
ENDROOT
BRANCH   5   7
ATOM      7  C   UNL     1       2.602   5.078  19.026  0.00  0.00    +0.000 A 
ATOM      8  C   UNL     1       1.523   4.211  18.736  0.00  0.00    +0.000 A 
ATOM      9  C   UNL     1       1.599   2.838  18.957  0.00  0.00    +0.000 A 
ATOM     10  F   UNL     1       0.526   2.072  18.726  0.00  0.00    +0.000 F 
ATOM     11  C   UNL     1       2.757   2.259  19.436  0.00  0.00    +0.000 A 
ATOM     12  C   UNL     1       3.860   3.067  19.690  0.00  0.00    +0.000 A 
ATOM     13  C   UNL     1       3.800   4.460  19.489  0.00  0.00    +0.000 A 
BRANCH  13  14
ATOM     14  O   UNL     1       4.862   5.266  19.826  0.00  0.00    +0.000 OA
ATOM     15  C   UNL     1       5.958   5.299  18.916  0.00  0.00    +0.000 C 
ENDBRANCH  13  14
ENDBRANCH   5   7
BRANCH   1  18
ATOM     16  N   UNL     1      -0.081  10.795  22.089  0.00  0.00    +0.000 N 
ATOM     17  N   UNL     1       0.352  10.628  20.800  0.00  0.00    +0.000 NA
ATOM     18  C   UNL     1       0.888   9.447  20.840  0.00  0.00    +0.000 A 
ATOM     19  O   UNL     1       0.852   8.819  22.041  0.00  0.00    +0.000 OA
ATOM     20  C   UNL     1       0.224   9.707  22.864  0.00  0.00    +0.000 A 
ATOM     21  O   UNL     1      -0.001   9.520  24.045  0.00  0.00    +0.000 OA
BRANCH  16  22
ATOM     22  C   UNL     1      -0.783  11.976  22.532  0.00  0.00    +0.000 C 
BRANCH  22  23
ATOM     23  C   UNL     1      -2.297  11.887  22.370  0.00  0.00    +0.000 C 
BRANCH  23  24
ATOM     24  C   UNL     1      -3.074  12.193  23.652  0.00  0.00    +0.000 C 
BRANCH  24  25
ATOM     25  C   UNL     1      -4.319  12.995  23.348  0.00  0.00    +0.000 C 
ATOM     26  O   UNL     1      -4.337  14.092  22.807  0.00  0.00    +0.000 OA
BRANCH  25  28
ATOM     27  C   UNL     1      -6.650  12.849  23.265  0.00  0.00    +0.000 C 
ATOM     28  O   UNL     1      -5.424  12.321  23.775  0.00  0.00    +0.000 OA
ENDBRANCH  25  28
ENDBRANCH  24  25
ENDBRANCH  23  24
ENDBRANCH  22  23
ENDBRANCH  16  22
ENDBRANCH   1  18
TORSDOF 8
ENDMDL
MODEL 8
REMARK VINA RESULT:      -7.4      4.922      9.057
REMARK  Name = 
REMARK  10 active torsions:
REMARK  status: ('A' for Active; 'I' for Inactive)
REMARK    1  A    between atoms: C_1  and  O_2
REMARK    2  A    between atoms: O_2  and  C_3
REMARK    3  A    between atoms: C_3  and  C_5
REMARK    4  A    between atoms: C_5  and  C_6
REMARK    5  A    between atoms: C_6  and  C_7
REMARK    6  A    between atoms: C_7  and  N_8
REMARK    7  A    between atoms: C_10  and  C_11
REMARK    8  A    between atoms: C_15  and  C_16
REMARK    9  A    between atoms: C_22  and  O_23
REMARK   10  A    between atoms: O_23  and  C_24
REMARK                            x       y       z     vdW  Elec       q    Type
REMARK                         _______ _______ _______ _____ _____    ______ ____
ROOT
ATOM      1  C   UNL     1       2.134   6.501  19.929  0.00  0.00    +0.000 A 
ATOM      2  C   UNL     1       1.761   5.403  20.708  0.00  0.00    +0.000 A 
ATOM      3  C   UNL     1       2.338   4.165  20.466  0.00  0.00    +0.000 A 
ATOM      4  C   UNL     1       3.321   4.033  19.480  0.00  0.00    +0.000 A 
ATOM      5  C   UNL     1       3.732   5.116  18.670  0.00  0.00    +0.000 A 
ATOM      6  C   UNL     1       3.065   6.340  18.886  0.00  0.00    +0.000 A 
ENDROOT
BRANCH   5   7
ATOM      7  C   UNL     1       4.867   4.955  17.698  0.00  0.00    +0.000 A 
ATOM      8  C   UNL     1       4.583   4.713  16.334  0.00  0.00    +0.000 A 
ATOM      9  C   UNL     1       5.585   4.419  15.412  0.00  0.00    +0.000 A 
ATOM     10  F   UNL     1       5.254   4.134  14.147  0.00  0.00    +0.000 F 
ATOM     11  C   UNL     1       6.912   4.392  15.790  0.00  0.00    +0.000 A 
ATOM     12  C   UNL     1       7.242   4.672  17.112  0.00  0.00    +0.000 A 
ATOM     13  C   UNL     1       6.244   4.955  18.064  0.00  0.00    +0.000 A 
BRANCH  13  14
ATOM     14  O   UNL     1       6.567   5.143  19.388  0.00  0.00    +0.000 OA
ATOM     15  C   UNL     1       7.863   5.668  19.666  0.00  0.00    +0.000 C 
ENDBRANCH  13  14
ENDBRANCH   5   7
BRANCH   1  18
ATOM     16  N   UNL     1       1.047   9.838  20.321  0.00  0.00    +0.000 N 
ATOM     17  N   UNL     1       1.455   8.856  19.458  0.00  0.00    +0.000 NA
ATOM     18  C   UNL     1       1.637   7.847  20.252  0.00  0.00    +0.000 A 
ATOM     19  O   UNL     1       1.389   8.074  21.566  0.00  0.00    +0.000 OA
ATOM     20  C   UNL     1       1.010   9.382  21.614  0.00  0.00    +0.000 A 
ATOM     21  O   UNL     1       0.706   9.981  22.629  0.00  0.00    +0.000 OA
BRANCH  16  22
ATOM     22  C   UNL     1       0.691  11.167  19.885  0.00  0.00    +0.000 C 
BRANCH  22  23
ATOM     23  C   UNL     1       1.585  11.709  18.774  0.00  0.00    +0.000 C 
BRANCH  23  24
ATOM     24  C   UNL     1       1.282  13.158  18.391  0.00  0.00    +0.000 C 
BRANCH  24  25
ATOM     25  C   UNL     1       1.944  14.119  19.354  0.00  0.00    +0.000 C 
ATOM     26  O   UNL     1       1.358  14.940  20.045  0.00  0.00    +0.000 OA
BRANCH  25  28
ATOM     27  C   UNL     1       3.942  14.587  18.234  0.00  0.00    +0.000 C 
ATOM     28  O   UNL     1       3.296  13.941  19.334  0.00  0.00    +0.000 OA
ENDBRANCH  25  28
ENDBRANCH  24  25
ENDBRANCH  23  24
ENDBRANCH  22  23
ENDBRANCH  16  22
ENDBRANCH   1  18
TORSDOF 8
ENDMDL
MODEL 9
REMARK VINA RESULT:      -7.4      5.786      9.711
REMARK  Name = 
REMARK  10 active torsions:
REMARK  status: ('A' for Active; 'I' for Inactive)
REMARK    1  A    between atoms: C_1  and  O_2
REMARK    2  A    between atoms: O_2  and  C_3
REMARK    3  A    between atoms: C_3  and  C_5
REMARK    4  A    between atoms: C_5  and  C_6
REMARK    5  A    between atoms: C_6  and  C_7
REMARK    6  A    between atoms: C_7  and  N_8
REMARK    7  A    between atoms: C_10  and  C_11
REMARK    8  A    between atoms: C_15  and  C_16
REMARK    9  A    between atoms: C_22  and  O_23
REMARK   10  A    between atoms: O_23  and  C_24
REMARK                            x       y       z     vdW  Elec       q    Type
REMARK                         _______ _______ _______ _____ _____    ______ ____
ROOT
ATOM      1  C   UNL     1       1.540   8.547  19.898  0.00  0.00    +0.000 A 
ATOM      2  C   UNL     1       1.781   9.259  18.721  0.00  0.00    +0.000 A 
ATOM      3  C   UNL     1       2.372   8.618  17.641  0.00  0.00    +0.000 A 
ATOM      4  C   UNL     1       2.677   7.256  17.720  0.00  0.00    +0.000 A 
ATOM      5  C   UNL     1       2.449   6.494  18.889  0.00  0.00    +0.000 A 
ATOM      6  C   UNL     1       1.926   7.196  19.994  0.00  0.00    +0.000 A 
ENDROOT
BRANCH   5   7
ATOM      7  C   UNL     1       2.691   5.011  18.893  0.00  0.00    +0.000 A 
ATOM      8  C   UNL     1       1.610   4.131  18.648  0.00  0.00    +0.000 A 
ATOM      9  C   UNL     1       1.740   2.750  18.774  0.00  0.00    +0.000 A 
ATOM     10  F   UNL     1       0.668   1.968  18.593  0.00  0.00    +0.000 F 
ATOM     11  C   UNL     1       2.951   2.177  19.107  0.00  0.00    +0.000 A 
ATOM     12  C   UNL     1       4.053   3.001  19.309  0.00  0.00    +0.000 A 
ATOM     13  C   UNL     1       3.941   4.402  19.204  0.00  0.00    +0.000 A 
BRANCH  13  14
ATOM     14  O   UNL     1       5.010   5.217  19.493  0.00  0.00    +0.000 OA
ATOM     15  C   UNL     1       6.051   5.281  18.522  0.00  0.00    +0.000 C 
ENDBRANCH  13  14
ENDBRANCH   5   7
BRANCH   1  18
ATOM     16  N   UNL     1      -0.400  10.291  22.277  0.00  0.00    +0.000 N 
ATOM     17  N   UNL     1      -0.147  10.054  20.953  0.00  0.00    +0.000 NA
ATOM     18  C   UNL     1       0.797   9.167  21.006  0.00  0.00    +0.000 A 
ATOM     19  O   UNL     1       1.194   8.797  22.249  0.00  0.00    +0.000 OA
ATOM     20  C   UNL     1       0.415   9.541  23.084  0.00  0.00    +0.000 A 
ATOM     21  O   UNL     1       0.469   9.507  24.299  0.00  0.00    +0.000 OA
BRANCH  16  22
ATOM     22  C   UNL     1      -1.419  11.209  22.728  0.00  0.00    +0.000 C 
BRANCH  22  23
ATOM     23  C   UNL     1      -1.074  12.676  22.488  0.00  0.00    +0.000 C 
BRANCH  23  24
ATOM     24  C   UNL     1      -2.107  13.422  21.643  0.00  0.00    +0.000 C 
BRANCH  24  25
ATOM     25  C   UNL     1      -1.837  13.229  20.168  0.00  0.00    +0.000 C 
ATOM     26  O   UNL     1      -2.214  12.276  19.500  0.00  0.00    +0.000 OA
BRANCH  25  28
ATOM     27  C   UNL     1       0.121  13.872  19.064  0.00  0.00    +0.000 C 
ATOM     28  O   UNL     1      -1.101  14.272  19.689  0.00  0.00    +0.000 OA
ENDBRANCH  25  28
ENDBRANCH  24  25
ENDBRANCH  23  24
ENDBRANCH  22  23
ENDBRANCH  16  22
ENDBRANCH   1  18
TORSDOF 8
ENDMDL
