MODEL 1
REMARK VINA RESULT:      -7.5      0.000      0.000
REMARK  Name = 
REMARK  7 active torsions:
REMARK  status: ('A' for Active; 'I' for Inactive)
REMARK    1  A    between atoms: C_1  and  C_2
REMARK    2  A    between atoms: C_2  and  CA_3
REMARK    3  A    between atoms: CA_3  and  C_4
REMARK    4  A    between atoms: CA_3  and  N_6
REMARK    5  A    between atoms: C_4  and  O_5
REMARK    6  A    between atoms: N_6  and  C_7
REMARK    7  A    between atoms: C_19  and  C_20
REMARK                            x       y       z     vdW  Elec       q    Type
REMARK                         _______ _______ _______ _____ _____    ______ ____
ROOT
ATOM      1  C   UNL     1       2.204   6.018  20.503  0.00  0.00    +0.000 A 
ATOM      2  N   UNL     1       1.260   6.880  21.043  0.00  0.00    +0.000 NA
ATOM      3  C   UNL     1       0.995   8.008  20.462  0.00  0.00    +0.000 A 
ATOM      4  N   UNL     1       0.051   8.894  20.916  0.00  0.00    +0.000 N 
ATOM      5  C   UNL     1      -0.798   9.727  20.053  0.00  0.00    +0.000 C 
ATOM      6  C   UNL     1      -0.732  11.178  20.541  0.00  0.00    +0.000 C 
ATOM      7  O   UNL     1      -1.134  11.275  21.917  0.00  0.00    +0.000 OA
ATOM      8  C   UNL     1      -0.298  10.454  22.755  0.00  0.00    +0.000 C 
ATOM      9  C   UNL     1      -0.337   8.973  22.328  0.00  0.00    +0.000 C 
ATOM     10  N   UNL     1       1.686   8.406  19.363  0.00  0.00    +0.000 N 
ATOM     11  C   UNL     1       2.730   7.709  18.853  0.00  0.00    +0.000 A 
ATOM     12  O   UNL     1       3.420   8.200  17.964  0.00  0.00    +0.000 OA
ATOM     13  C   UNL     1       2.937   6.361  19.418  0.00  0.00    +0.000 A 
ATOM     14  H   UNL     1       1.575   9.337  19.000  0.00  0.00    +0.000 HD
ENDROOT
BRANCH  13  15
ATOM     15  C   UNL     1       3.819   5.520  18.688  0.00  0.00    +0.000 A 
ATOM     16  N   UNL     1       5.134   5.439  18.811  0.00  0.00    +0.000 NA
ATOM     17  C   UNL     1       5.694   4.966  17.631  0.00  0.00    +0.000 A 
ATOM     18  C   UNL     1       7.073   4.912  17.332  0.00  0.00    +0.000 A 
ATOM     19  C   UNL     1       7.499   4.497  16.064  0.00  0.00    +0.000 A 
ATOM     20  C   UNL     1       6.574   4.117  15.099  0.00  0.00    +0.000 A 
ATOM     21  C   UNL     1       5.204   4.127  15.380  0.00  0.00    +0.000 A 
ATOM     22  C   UNL     1       4.788   4.560  16.652  0.00  0.00    +0.000 A 
ATOM     23  S   UNL     1       3.195   4.717  17.277  0.00  0.00    +0.000 S 
ENDBRANCH  13  15
BRANCH   1  24
ATOM     24  N   UNL     1       2.269   4.753  21.091  0.00  0.00    +0.000 N 
ATOM     25  H   UNL     1       3.086   4.290  20.682  0.00  0.00    +0.000 HD
BRANCH  24  26
ATOM     26  CA  UNL     1       1.153   3.778  21.022  0.00  0.00    +0.000 C 
BRANCH  26  28
ATOM     27  C   UNL     1       1.116   2.162  19.021  0.00  0.00    +0.000 C 
ATOM     28  C   UNL     1       0.736   3.541  19.554  0.00  0.00    +0.000 C 
ENDBRANCH  26  28
BRANCH  26  29
ATOM     29  C   UNL     1       1.623   2.470  21.708  0.00  0.00    +0.000 C 
BRANCH  29  30
ATOM     30  O   UNL     1       3.038   2.458  21.923  0.00  0.00    +0.000 OA
ATOM     31  H   UNL     1       3.206   1.986  22.755  0.00  0.00    +0.000 HD
ENDBRANCH  29  30
ENDBRANCH  26  29
ENDBRANCH  24  26
ENDBRANCH   1  24
TORSDOF 6
ENDMDL
MODEL 2
REMARK VINA RESULT:      -7.0      3.317      9.239
REMARK  Name = 
REMARK  7 active torsions:
REMARK  status: ('A' for Active; 'I' for Inactive)
REMARK    1  A    between atoms: C_1  and  C_2
REMARK    2  A    between atoms: C_2  and  CA_3
REMARK    3  A    between atoms: CA_3  and  C_4
REMARK    4  A    between atoms: CA_3  and  N_6
REMARK    5  A    between atoms: C_4  and  O_5
REMARK    6  A    between atoms: N_6  and  C_7
REMARK    7  A    between atoms: C_19  and  C_20
REMARK                            x       y       z     vdW  Elec       q    Type
REMARK                         _______ _______ _______ _____ _____    ______ ____
ROOT
ATOM      1  C   UNL     1       0.558  10.211  19.739  0.00  0.00    +0.000 A 
ATOM      2  N   UNL     1       1.182   9.162  19.080  0.00  0.00    +0.000 NA
ATOM      3  C   UNL     1       1.736   8.202  19.753  0.00  0.00    +0.000 A 
ATOM      4  N   UNL     1       2.339   7.116  19.173  0.00  0.00    +0.000 N 
ATOM      5  C   UNL     1       2.318   5.753  19.725  0.00  0.00    +0.000 C 
ATOM      6  C   UNL     1       3.749   5.205  19.750  0.00  0.00    +0.000 C 
ATOM      7  O   UNL     1       4.330   5.225  18.436  0.00  0.00    +0.000 OA
ATOM      8  C   UNL     1       4.343   6.563  17.902  0.00  0.00    +0.000 C 
ATOM      9  C   UNL     1       2.927   7.166  17.830  0.00  0.00    +0.000 C 
ATOM     10  N   UNL     1       1.789   8.242  21.110  0.00  0.00    +0.000 N 
ATOM     11  C   UNL     1       1.348   9.297  21.836  0.00  0.00    +0.000 A 
ATOM     12  O   UNL     1       1.574   9.349  23.042  0.00  0.00    +0.000 OA
ATOM     13  C   UNL     1       0.587  10.317  21.088  0.00  0.00    +0.000 A 
ATOM     14  H   UNL     1       2.338   7.571  21.619  0.00  0.00    +0.000 HD
ENDROOT
BRANCH  13  15
ATOM     15  C   UNL     1      -0.128  11.252  21.882  0.00  0.00    +0.000 A 
ATOM     16  N   UNL     1      -1.177  11.012  22.653  0.00  0.00    +0.000 NA
ATOM     17  C   UNL     1      -1.918  12.174  22.824  0.00  0.00    +0.000 A 
ATOM     18  C   UNL     1      -3.187  12.265  23.437  0.00  0.00    +0.000 A 
ATOM     19  C   UNL     1      -3.867  13.490  23.460  0.00  0.00    +0.000 A 
ATOM     20  C   UNL     1      -3.293  14.626  22.902  0.00  0.00    +0.000 A 
ATOM     21  C   UNL     1      -2.022  14.571  22.321  0.00  0.00    +0.000 A 
ATOM     22  C   UNL     1      -1.356  13.333  22.289  0.00  0.00    +0.000 A 
ATOM     23  S   UNL     1       0.178  12.944  21.620  0.00  0.00    +0.000 S 
ENDBRANCH  13  15
BRANCH   1  24
ATOM     24  N   UNL     1      -0.173  11.081  18.926  0.00  0.00    +0.000 N 
ATOM     25  H   UNL     1      -0.036  12.018  19.317  0.00  0.00    +0.000 HD
BRANCH  24  26
ATOM     26  CA  UNL     1      -1.630  10.928  18.698  0.00  0.00    +0.000 C 
BRANCH  26  28
ATOM     27  C   UNL     1      -3.741  12.096  19.591  0.00  0.00    +0.000 C 
ATOM     28  C   UNL     1      -2.360  12.263  18.962  0.00  0.00    +0.000 C 
ENDBRANCH  26  28
BRANCH  26  29
ATOM     29  C   UNL     1      -1.833  10.438  17.241  0.00  0.00    +0.000 C 
BRANCH  29  30
ATOM     30  O   UNL     1      -2.182  11.512  16.360  0.00  0.00    +0.000 OA
ATOM     31  H   UNL     1      -2.085  11.189  15.449  0.00  0.00    +0.000 HD
ENDBRANCH  29  30
ENDBRANCH  26  29
ENDBRANCH  24  26
ENDBRANCH   1  24
TORSDOF 6
ENDMDL
MODEL 3
REMARK VINA RESULT:      -6.7      1.177      1.317
REMARK  Name = 
REMARK  7 active torsions:
REMARK  status: ('A' for Active; 'I' for Inactive)
REMARK    1  A    between atoms: C_1  and  C_2
REMARK    2  A    between atoms: C_2  and  CA_3
REMARK    3  A    between atoms: CA_3  and  C_4
REMARK    4  A    between atoms: CA_3  and  N_6
REMARK    5  A    between atoms: C_4  and  O_5
REMARK    6  A    between atoms: N_6  and  C_7
REMARK    7  A    between atoms: C_19  and  C_20
REMARK                            x       y       z     vdW  Elec       q    Type
REMARK                         _______ _______ _______ _____ _____    ______ ____
ROOT
ATOM      1  C   UNL     1       2.434   6.449  20.134  0.00  0.00    +0.000 A 
ATOM      2  N   UNL     1       1.475   7.313  20.645  0.00  0.00    +0.000 NA
ATOM      3  C   UNL     1       1.113   8.361  19.974  0.00  0.00    +0.000 A 
ATOM      4  N   UNL     1       0.148   9.239  20.396  0.00  0.00    +0.000 N 
ATOM      5  C   UNL     1      -0.795   9.936  19.511  0.00  0.00    +0.000 C 
ATOM      6  C   UNL     1      -0.783  11.430  19.849  0.00  0.00    +0.000 C 
ATOM      7  O   UNL     1      -1.111  11.647  21.231  0.00  0.00    +0.000 OA
ATOM      8  C   UNL     1      -0.183  10.958  22.091  0.00  0.00    +0.000 C 
ATOM      9  C   UNL     1      -0.162   9.442  21.816  0.00  0.00    +0.000 C 
ATOM     10  N   UNL     1       1.716   8.679  18.799  0.00  0.00    +0.000 N 
ATOM     11  C   UNL     1       2.767   7.988  18.296  0.00  0.00    +0.000 A 
ATOM     12  O   UNL     1       3.376   8.421  17.321  0.00  0.00    +0.000 OA
ATOM     13  C   UNL     1       3.082   6.717  18.977  0.00  0.00    +0.000 A 
ATOM     14  H   UNL     1       1.531   9.563  18.354  0.00  0.00    +0.000 HD
ENDROOT
BRANCH  13  15
ATOM     15  C   UNL     1       3.968   5.853  18.279  0.00  0.00    +0.000 A 
ATOM     16  N   UNL     1       5.284   5.953  18.193  0.00  0.00    +0.000 NA
ATOM     17  C   UNL     1       5.737   5.315  17.046  0.00  0.00    +0.000 A 
ATOM     18  C   UNL     1       7.052   5.362  16.536  0.00  0.00    +0.000 A 
ATOM     19  C   UNL     1       7.352   4.746  15.314  0.00  0.00    +0.000 A 
ATOM     20  C   UNL     1       6.367   4.068  14.605  0.00  0.00    +0.000 A 
ATOM     21  C   UNL     1       5.064   3.976  15.105  0.00  0.00    +0.000 A 
ATOM     22  C   UNL     1       4.772   4.612  16.325  0.00  0.00    +0.000 A 
ATOM     23  S   UNL     1       3.277   4.707  17.167  0.00  0.00    +0.000 S 
ENDBRANCH  13  15
BRANCH   1  24
ATOM     24  N   UNL     1       2.605   5.256  20.839  0.00  0.00    +0.000 N 
ATOM     25  H   UNL     1       3.599   5.206  21.079  0.00  0.00    +0.000 HD
BRANCH  24  26
ATOM     26  CA  UNL     1       2.241   3.933  20.275  0.00  0.00    +0.000 C 
BRANCH  26  28
ATOM     27  C   UNL     1       4.333   2.450  20.070  0.00  0.00    +0.000 C 
ATOM     28  C   UNL     1       3.110   2.822  20.904  0.00  0.00    +0.000 C 
ENDBRANCH  26  28
BRANCH  26  29
ATOM     29  C   UNL     1       0.731   3.704  20.539  0.00  0.00    +0.000 C 
BRANCH  29  30
ATOM     30  O   UNL     1       0.156   2.794  19.594  0.00  0.00    +0.000 OA
ATOM     31  H   UNL     1       0.822   2.114  19.396  0.00  0.00    +0.000 HD
ENDBRANCH  29  30
ENDBRANCH  26  29
ENDBRANCH  24  26
ENDBRANCH   1  24
TORSDOF 6
ENDMDL
MODEL 4
REMARK VINA RESULT:      -6.5      1.267      1.527
REMARK  Name = 
REMARK  7 active torsions:
REMARK  status: ('A' for Active; 'I' for Inactive)
REMARK    1  A    between atoms: C_1  and  C_2
REMARK    2  A    between atoms: C_2  and  CA_3
REMARK    3  A    between atoms: CA_3  and  C_4
REMARK    4  A    between atoms: CA_3  and  N_6
REMARK    5  A    between atoms: C_4  and  O_5
REMARK    6  A    between atoms: N_6  and  C_7
REMARK    7  A    between atoms: C_19  and  C_20
REMARK                            x       y       z     vdW  Elec       q    Type
REMARK                         _______ _______ _______ _____ _____    ______ ____
ROOT
ATOM      1  C   UNL     1       2.271   6.973  19.898  0.00  0.00    +0.000 A 
ATOM      2  N   UNL     1       1.333   7.620  20.689  0.00  0.00    +0.000 NA
ATOM      3  C   UNL     1       0.772   8.714  20.277  0.00  0.00    +0.000 A 
ATOM      4  N   UNL     1      -0.189   9.390  20.985  0.00  0.00    +0.000 N 
ATOM      5  C   UNL     1      -1.323  10.106  20.384  0.00  0.00    +0.000 C 
ATOM      6  C   UNL     1      -1.394  11.515  20.982  0.00  0.00    +0.000 C 
ATOM      7  O   UNL     1      -1.513  11.461  22.413  0.00  0.00    +0.000 OA
ATOM      8  C   UNL     1      -0.398  10.755  22.993  0.00  0.00    +0.000 C 
ATOM      9  C   UNL     1      -0.284   9.318  22.447  0.00  0.00    +0.000 C 
ATOM     10  N   UNL     1       1.146   9.291  19.106  0.00  0.00    +0.000 N 
ATOM     11  C   UNL     1       2.161   8.822  18.341  0.00  0.00    +0.000 A 
ATOM     12  O   UNL     1       2.562   9.479  17.384  0.00  0.00    +0.000 OA
ATOM     13  C   UNL     1       2.697   7.503  18.728  0.00  0.00    +0.000 A 
ATOM     14  H   UNL     1       0.811  10.208  18.859  0.00  0.00    +0.000 HD
ENDROOT
BRANCH  13  15
ATOM     15  C   UNL     1       3.534   6.877  17.766  0.00  0.00    +0.000 A 
ATOM     16  N   UNL     1       3.359   5.694  17.200  0.00  0.00    +0.000 NA
ATOM     17  C   UNL     1       4.578   5.187  16.768  0.00  0.00    +0.000 A 
ATOM     18  C   UNL     1       4.806   3.884  16.276  0.00  0.00    +0.000 A 
ATOM     19  C   UNL     1       6.108   3.472  15.961  0.00  0.00    +0.000 A 
ATOM     20  C   UNL     1       7.179   4.345  16.109  0.00  0.00    +0.000 A 
ATOM     21  C   UNL     1       6.977   5.653  16.560  0.00  0.00    +0.000 A 
ATOM     22  C   UNL     1       5.668   6.050  16.888  0.00  0.00    +0.000 A 
ATOM     23  S   UNL     1       5.112   7.558  17.495  0.00  0.00    +0.000 S 
ENDBRANCH  13  15
BRANCH   1  24
ATOM     24  N   UNL     1       2.663   5.708  20.344  0.00  0.00    +0.000 N 
ATOM     25  H   UNL     1       3.305   5.342  19.634  0.00  0.00    +0.000 HD
BRANCH  24  26
ATOM     26  CA  UNL     1       1.692   4.625  20.633  0.00  0.00    +0.000 C 
BRANCH  26  28
ATOM     27  C   UNL     1       1.967   2.793  18.849  0.00  0.00    +0.000 C 
ATOM     28  C   UNL     1       1.168   4.005  19.319  0.00  0.00    +0.000 C 
ENDBRANCH  26  28
BRANCH  26  29
ATOM     29  C   UNL     1       2.404   3.575  21.524  0.00  0.00    +0.000 C 
BRANCH  29  30
ATOM     30  O   UNL     1       1.469   2.737  22.212  0.00  0.00    +0.000 OA
ATOM     31  H   UNL     1       0.985   3.292  22.845  0.00  0.00    +0.000 HD
ENDBRANCH  29  30
ENDBRANCH  26  29
ENDBRANCH  24  26
ENDBRANCH   1  24
TORSDOF 6
ENDMDL
MODEL 5
REMARK VINA RESULT:      -6.5      3.523      9.504
REMARK  Name = 
REMARK  7 active torsions:
REMARK  status: ('A' for Active; 'I' for Inactive)
REMARK    1  A    between atoms: C_1  and  C_2
REMARK    2  A    between atoms: C_2  and  CA_3
REMARK    3  A    between atoms: CA_3  and  C_4
REMARK    4  A    between atoms: CA_3  and  N_6
REMARK    5  A    between atoms: C_4  and  O_5
REMARK    6  A    between atoms: N_6  and  C_7
REMARK    7  A    between atoms: C_19  and  C_20
REMARK                            x       y       z     vdW  Elec       q    Type
REMARK                         _______ _______ _______ _____ _____    ______ ____
ROOT
ATOM      1  C   UNL     1      -0.139  10.397  20.229  0.00  0.00    +0.000 A 
ATOM      2  N   UNL     1       0.526   9.444  19.470  0.00  0.00    +0.000 NA
ATOM      3  C   UNL     1       1.266   8.549  20.044  0.00  0.00    +0.000 A 
ATOM      4  N   UNL     1       1.924   7.555  19.364  0.00  0.00    +0.000 N 
ATOM      5  C   UNL     1       2.133   6.191  19.871  0.00  0.00    +0.000 C 
ATOM      6  C   UNL     1       3.612   5.824  19.714  0.00  0.00    +0.000 C 
ATOM      7  O   UNL     1       4.028   5.939  18.344  0.00  0.00    +0.000 OA
ATOM      8  C   UNL     1       3.817   7.278  17.856  0.00  0.00    +0.000 C 
ATOM      9  C   UNL     1       2.340   7.703  17.965  0.00  0.00    +0.000 C 
ATOM     10  N   UNL     1       1.472   8.570  21.386  0.00  0.00    +0.000 N 
ATOM     11  C   UNL     1       0.996   9.550  22.192  0.00  0.00    +0.000 A 
ATOM     12  O   UNL     1       1.353   9.607  23.365  0.00  0.00    +0.000 OA
ATOM     13  C   UNL     1       0.035  10.481  21.569  0.00  0.00    +0.000 A 
ATOM     14  H   UNL     1       2.155   7.963  21.807  0.00  0.00    +0.000 HD
ENDROOT
BRANCH  13  15
ATOM     15  C   UNL     1      -0.690  11.305  22.469  0.00  0.00    +0.000 A 
ATOM     16  N   UNL     1      -1.758  10.973  23.178  0.00  0.00    +0.000 NA
ATOM     17  C   UNL     1      -2.493  12.109  23.492  0.00  0.00    +0.000 A 
ATOM     18  C   UNL     1      -3.774  12.129  24.085  0.00  0.00    +0.000 A 
ATOM     19  C   UNL     1      -4.444  13.346  24.263  0.00  0.00    +0.000 A 
ATOM     20  C   UNL     1      -3.849  14.542  23.879  0.00  0.00    +0.000 A 
ATOM     21  C   UNL     1      -2.566  14.554  23.322  0.00  0.00    +0.000 A 
ATOM     22  C   UNL     1      -1.910  13.324  23.134  0.00  0.00    +0.000 A 
ATOM     23  S   UNL     1      -0.364  13.014  22.450  0.00  0.00    +0.000 S 
ENDBRANCH  13  15
BRANCH   1  24
ATOM     24  N   UNL     1      -1.060  11.183  19.534  0.00  0.00    +0.000 N 
ATOM     25  H   UNL     1      -1.946  10.669  19.553  0.00  0.00    +0.000 HD
BRANCH  24  26
ATOM     26  CA  UNL     1      -0.850  11.610  18.129  0.00  0.00    +0.000 C 
BRANCH  26  28
ATOM     27  C   UNL     1      -2.612   9.868  17.441  0.00  0.00    +0.000 C 
ATOM     28  C   UNL     1      -2.099  11.295  17.278  0.00  0.00    +0.000 C 
ENDBRANCH  26  28
BRANCH  26  29
ATOM     29  C   UNL     1      -0.524  13.125  18.138  0.00  0.00    +0.000 C 
BRANCH  29  30
ATOM     30  O   UNL     1      -1.253  13.823  19.153  0.00  0.00    +0.000 OA
ATOM     31  H   UNL     1      -2.174  13.517  19.118  0.00  0.00    +0.000 HD
ENDBRANCH  29  30
ENDBRANCH  26  29
ENDBRANCH  24  26
ENDBRANCH   1  24
TORSDOF 6
ENDMDL
MODEL 6
REMARK VINA RESULT:      -6.5      2.004      7.152
REMARK  Name = 
REMARK  7 active torsions:
REMARK  status: ('A' for Active; 'I' for Inactive)
REMARK    1  A    between atoms: C_1  and  C_2
REMARK    2  A    between atoms: C_2  and  CA_3
REMARK    3  A    between atoms: CA_3  and  C_4
REMARK    4  A    between atoms: CA_3  and  N_6
REMARK    5  A    between atoms: C_4  and  O_5
REMARK    6  A    between atoms: N_6  and  C_7
REMARK    7  A    between atoms: C_19  and  C_20
REMARK                            x       y       z     vdW  Elec       q    Type
REMARK                         _______ _______ _______ _____ _____    ______ ____
ROOT
ATOM      1  C   UNL     1       2.555   6.356  19.598  0.00  0.00    +0.000 A 
ATOM      2  N   UNL     1       3.653   5.705  19.053  0.00  0.00    +0.000 NA
ATOM      3  C   UNL     1       4.364   6.277  18.132  0.00  0.00    +0.000 A 
ATOM      4  N   UNL     1       5.481   5.713  17.573  0.00  0.00    +0.000 N 
ATOM      5  C   UNL     1       6.673   6.461  17.147  0.00  0.00    +0.000 C 
ATOM      6  C   UNL     1       7.039   6.042  15.719  0.00  0.00    +0.000 C 
ATOM      7  O   UNL     1       7.259   4.624  15.641  0.00  0.00    +0.000 OA
ATOM      8  C   UNL     1       6.087   3.899  16.062  0.00  0.00    +0.000 C 
ATOM      9  C   UNL     1       5.678   4.261  17.503  0.00  0.00    +0.000 C 
ATOM     10  N   UNL     1       4.006   7.485  17.625  0.00  0.00    +0.000 N 
ATOM     11  C   UNL     1       2.867   8.127  17.979  0.00  0.00    +0.000 A 
ATOM     12  O   UNL     1       2.513   9.131  17.366  0.00  0.00    +0.000 OA
ATOM     13  C   UNL     1       2.138   7.554  19.127  0.00  0.00    +0.000 A 
ATOM     14  H   UNL     1       4.476   7.859  16.818  0.00  0.00    +0.000 HD
ENDROOT
BRANCH  13  15
ATOM     15  C   UNL     1       1.130   8.383  19.688  0.00  0.00    +0.000 A 
ATOM     16  N   UNL     1       0.285   9.167  19.039  0.00  0.00    +0.000 NA
ATOM     17  C   UNL     1      -0.149  10.191  19.872  0.00  0.00    +0.000 A 
ATOM     18  C   UNL     1      -0.917  11.309  19.479  0.00  0.00    +0.000 A 
ATOM     19  C   UNL     1      -1.208  12.319  20.406  0.00  0.00    +0.000 A 
ATOM     20  C   UNL     1      -0.765  12.220  21.719  0.00  0.00    +0.000 A 
ATOM     21  C   UNL     1      -0.033  11.107  22.143  0.00  0.00    +0.000 A 
ATOM     22  C   UNL     1       0.266  10.107  21.200  0.00  0.00    +0.000 A 
ATOM     23  S   UNL     1       1.166   8.658  21.406  0.00  0.00    +0.000 S 
ENDBRANCH  13  15
BRANCH   1  24
ATOM     24  N   UNL     1       1.983   5.739  20.713  0.00  0.00    +0.000 N 
ATOM     25  H   UNL     1       2.718   5.701  21.426  0.00  0.00    +0.000 HD
BRANCH  24  26
ATOM     26  CA  UNL     1       1.379   4.386  20.658  0.00  0.00    +0.000 C 
BRANCH  26  28
ATOM     27  C   UNL     1       0.757   2.475  19.052  0.00  0.00    +0.000 C 
ATOM     28  C   UNL     1       1.251   3.912  19.193  0.00  0.00    +0.000 C 
ENDBRANCH  26  28
BRANCH  26  29
ATOM     29  C   UNL     1       2.269   3.434  21.497  0.00  0.00    +0.000 C 
BRANCH  29  30
ATOM     30  O   UNL     1       1.488   2.550  22.308  0.00  0.00    +0.000 OA
ATOM     31  H   UNL     1       1.376   2.968  23.178  0.00  0.00    +0.000 HD
ENDBRANCH  29  30
ENDBRANCH  26  29
ENDBRANCH  24  26
ENDBRANCH   1  24
TORSDOF 6
ENDMDL
MODEL 7
REMARK VINA RESULT:      -6.5      4.532      7.545
REMARK  Name = 
REMARK  7 active torsions:
REMARK  status: ('A' for Active; 'I' for Inactive)
REMARK    1  A    between atoms: C_1  and  C_2
REMARK    2  A    between atoms: C_2  and  CA_3
REMARK    3  A    between atoms: CA_3  and  C_4
REMARK    4  A    between atoms: CA_3  and  N_6
REMARK    5  A    between atoms: C_4  and  O_5
REMARK    6  A    between atoms: N_6  and  C_7
REMARK    7  A    between atoms: C_19  and  C_20
REMARK                            x       y       z     vdW  Elec       q    Type
REMARK                         _______ _______ _______ _____ _____    ______ ____
ROOT
ATOM      1  C   UNL     1      -2.046  11.585  19.554  0.00  0.00    +0.000 A 
ATOM      2  N   UNL     1      -3.013  12.557  19.766  0.00  0.00    +0.000 NA
ATOM      3  C   UNL     1      -2.781  13.549  20.567  0.00  0.00    +0.000 A 
ATOM      4  N   UNL     1      -3.673  14.565  20.799  0.00  0.00    +0.000 N 
ATOM      5  C   UNL     1      -3.301  15.967  21.035  0.00  0.00    +0.000 C 
ATOM      6  C   UNL     1      -4.024  16.468  22.290  0.00  0.00    +0.000 C 
ATOM      7  O   UNL     1      -5.447  16.323  22.156  0.00  0.00    +0.000 OA
ATOM      8  C   UNL     1      -5.802  14.946  21.922  0.00  0.00    +0.000 C 
ATOM      9  C   UNL     1      -5.122  14.386  20.657  0.00  0.00    +0.000 C 
ATOM     10  N   UNL     1      -1.624  13.617  21.276  0.00  0.00    +0.000 N 
ATOM     11  C   UNL     1      -0.687  12.639  21.257  0.00  0.00    +0.000 A 
ATOM     12  O   UNL     1       0.256  12.678  22.043  0.00  0.00    +0.000 OA
ATOM     13  C   UNL     1      -0.879  11.588  20.239  0.00  0.00    +0.000 A 
ATOM     14  H   UNL     1      -1.508  14.309  21.996  0.00  0.00    +0.000 HD
ENDROOT
BRANCH  13  15
ATOM     15  C   UNL     1       0.242  10.744  20.012  0.00  0.00    +0.000 A 
ATOM     16  N   UNL     1       0.922  10.601  18.886  0.00  0.00    +0.000 NA
ATOM     17  C   UNL     1       1.550   9.362  18.864  0.00  0.00    +0.000 A 
ATOM     18  C   UNL     1       2.218   8.792  17.759  0.00  0.00    +0.000 A 
ATOM     19  C   UNL     1       2.728   7.490  17.845  0.00  0.00    +0.000 A 
ATOM     20  C   UNL     1       2.601   6.759  19.020  0.00  0.00    +0.000 A 
ATOM     21  C   UNL     1       1.975   7.313  20.141  0.00  0.00    +0.000 A 
ATOM     22  C   UNL     1       1.453   8.615  20.037  0.00  0.00    +0.000 A 
ATOM     23  S   UNL     1       0.609   9.540  21.213  0.00  0.00    +0.000 S 
ENDBRANCH  13  15
BRANCH   1  24
ATOM     24  N   UNL     1      -2.320  10.677  18.529  0.00  0.00    +0.000 N 
ATOM     25  H   UNL     1      -1.439  10.193  18.334  0.00  0.00    +0.000 HD
BRANCH  24  26
ATOM     26  CA  UNL     1      -2.872  11.093  17.217  0.00  0.00    +0.000 C 
BRANCH  26  28
ATOM     27  C   UNL     1      -3.197  10.215  14.821  0.00  0.00    +0.000 C 
ATOM     28  C   UNL     1      -2.361  10.161  16.097  0.00  0.00    +0.000 C 
ENDBRANCH  26  28
BRANCH  26  29
ATOM     29  C   UNL     1      -4.418  11.073  17.325  0.00  0.00    +0.000 C 
BRANCH  29  30
ATOM     30  O   UNL     1      -4.964  12.393  17.426  0.00  0.00    +0.000 OA
ATOM     31  H   UNL     1      -5.172  12.556  18.361  0.00  0.00    +0.000 HD
ENDBRANCH  29  30
ENDBRANCH  26  29
ENDBRANCH  24  26
ENDBRANCH   1  24
TORSDOF 6
ENDMDL
MODEL 8
REMARK VINA RESULT:      -6.4      4.915      8.005
REMARK  Name = 
REMARK  7 active torsions:
REMARK  status: ('A' for Active; 'I' for Inactive)
REMARK    1  A    between atoms: C_1  and  C_2
REMARK    2  A    between atoms: C_2  and  CA_3
REMARK    3  A    between atoms: CA_3  and  C_4
REMARK    4  A    between atoms: CA_3  and  N_6
REMARK    5  A    between atoms: C_4  and  O_5
REMARK    6  A    between atoms: N_6  and  C_7
REMARK    7  A    between atoms: C_19  and  C_20
REMARK                            x       y       z     vdW  Elec       q    Type
REMARK                         _______ _______ _______ _____ _____    ______ ____
ROOT
ATOM      1  C   UNL     1      -2.447  12.334  19.884  0.00  0.00    +0.000 A 
ATOM      2  N   UNL     1      -3.481  13.161  20.300  0.00  0.00    +0.000 NA
ATOM      3  C   UNL     1      -3.502  13.625  21.510  0.00  0.00    +0.000 A 
ATOM      4  N   UNL     1      -4.470  14.474  21.982  0.00  0.00    +0.000 N 
ATOM      5  C   UNL     1      -4.234  15.556  22.949  0.00  0.00    +0.000 C 
ATOM      6  C   UNL     1      -5.270  15.452  24.074  0.00  0.00    +0.000 C 
ATOM      7  O   UNL     1      -6.606  15.506  23.548  0.00  0.00    +0.000 OA
ATOM      8  C   UNL     1      -6.827  14.444  22.599  0.00  0.00    +0.000 C 
ATOM      9  C   UNL     1      -5.828  14.505  21.428  0.00  0.00    +0.000 C 
ATOM     10  N   UNL     1      -2.563  13.250  22.417  0.00  0.00    +0.000 N 
ATOM     11  C   UNL     1      -1.607  12.328  22.153  0.00  0.00    +0.000 A 
ATOM     12  O   UNL     1      -0.893  11.908  23.060  0.00  0.00    +0.000 OA
ATOM     13  C   UNL     1      -1.489  11.913  20.742  0.00  0.00    +0.000 A 
ATOM     14  H   UNL     1      -2.663  13.500  23.386  0.00  0.00    +0.000 HD
ENDROOT
BRANCH  13  15
ATOM     15  C   UNL     1      -0.309  11.193  20.412  0.00  0.00    +0.000 A 
ATOM     16  N   UNL     1       0.381  11.259  19.285  0.00  0.00    +0.000 NA
ATOM     17  C   UNL     1       1.098  10.084  19.097  0.00  0.00    +0.000 A 
ATOM     18  C   UNL     1       1.807   9.724  17.931  0.00  0.00    +0.000 A 
ATOM     19  C   UNL     1       2.411   8.463  17.840  0.00  0.00    +0.000 A 
ATOM     20  C   UNL     1       2.338   7.568  18.900  0.00  0.00    +0.000 A 
ATOM     21  C   UNL     1       1.672   7.913  20.081  0.00  0.00    +0.000 A 
ATOM     22  C   UNL     1       1.055   9.175  20.154  0.00  0.00    +0.000 A 
ATOM     23  S   UNL     1       0.144   9.863  21.438  0.00  0.00    +0.000 S 
ENDBRANCH  13  15
BRANCH   1  24
ATOM     24  N   UNL     1      -2.414  12.055  18.516  0.00  0.00    +0.000 N 
ATOM     25  H   UNL     1      -2.734  12.906  18.043  0.00  0.00    +0.000 HD
BRANCH  24  26
ATOM     26  CA  UNL     1      -3.165  10.929  17.910  0.00  0.00    +0.000 C 
BRANCH  26  28
ATOM     27  C   UNL     1      -5.706  10.958  18.310  0.00  0.00    +0.000 C 
ATOM     28  C   UNL     1      -4.550  11.406  17.420  0.00  0.00    +0.000 C 
ENDBRANCH  26  28
BRANCH  26  29
ATOM     29  C   UNL     1      -2.310  10.356  16.752  0.00  0.00    +0.000 C 
BRANCH  29  30
ATOM     30  O   UNL     1      -2.314  11.218  15.608  0.00  0.00    +0.000 OA
ATOM     31  H   UNL     1      -3.094  10.995  15.074  0.00  0.00    +0.000 HD
ENDBRANCH  29  30
ENDBRANCH  26  29
ENDBRANCH  24  26
ENDBRANCH   1  24
TORSDOF 6
ENDMDL
MODEL 9
REMARK VINA RESULT:      -6.4      2.518      7.853
REMARK  Name = 
REMARK  7 active torsions:
REMARK  status: ('A' for Active; 'I' for Inactive)
REMARK    1  A    between atoms: C_1  and  C_2
REMARK    2  A    between atoms: C_2  and  CA_3
REMARK    3  A    between atoms: CA_3  and  C_4
REMARK    4  A    between atoms: CA_3  and  N_6
REMARK    5  A    between atoms: C_4  and  O_5
REMARK    6  A    between atoms: N_6  and  C_7
REMARK    7  A    between atoms: C_19  and  C_20
REMARK                            x       y       z     vdW  Elec       q    Type
REMARK                         _______ _______ _______ _____ _____    ______ ____
ROOT
ATOM      1  C   UNL     1       0.917   8.220  20.401  0.00  0.00    +0.000 A 
ATOM      2  N   UNL     1       1.581   7.007  20.512  0.00  0.00    +0.000 NA
ATOM      3  C   UNL     1       2.502   6.684  19.658  0.00  0.00    +0.000 A 
ATOM      4  N   UNL     1       3.226   5.521  19.724  0.00  0.00    +0.000 N 
ATOM      5  C   UNL     1       4.640   5.393  19.345  0.00  0.00    +0.000 C 
ATOM      6  C   UNL     1       4.796   4.195  18.402  0.00  0.00    +0.000 C 
ATOM      7  O   UNL     1       4.311   2.990  19.017  0.00  0.00    +0.000 OA
ATOM      8  C   UNL     1       2.925   3.126  19.387  0.00  0.00    +0.000 C 
ATOM      9  C   UNL     1       2.703   4.305  20.356  0.00  0.00    +0.000 C 
ATOM     10  N   UNL     1       2.780   7.484  18.596  0.00  0.00    +0.000 N 
ATOM     11  C   UNL     1       2.080   8.609  18.314  0.00  0.00    +0.000 A 
ATOM     12  O   UNL     1       2.267   9.198  17.253  0.00  0.00    +0.000 OA
ATOM     13  C   UNL     1       1.137   9.055  19.359  0.00  0.00    +0.000 A 
ATOM     14  H   UNL     1       3.393   7.165  17.865  0.00  0.00    +0.000 HD
ENDROOT
BRANCH  13  15
ATOM     15  C   UNL     1       0.637  10.376  19.207  0.00  0.00    +0.000 A 
ATOM     16  N   UNL     1       1.256  11.507  19.505  0.00  0.00    +0.000 NA
ATOM     17  C   UNL     1       0.326  12.509  19.747  0.00  0.00    +0.000 A 
ATOM     18  C   UNL     1       0.607  13.795  20.257  0.00  0.00    +0.000 A 
ATOM     19  C   UNL     1      -0.441  14.680  20.543  0.00  0.00    +0.000 A 
ATOM     20  C   UNL     1      -1.760  14.311  20.308  0.00  0.00    +0.000 A 
ATOM     21  C   UNL     1      -2.064  13.056  19.770  0.00  0.00    +0.000 A 
ATOM     22  C   UNL     1      -1.005  12.171  19.502  0.00  0.00    +0.000 A 
ATOM     23  S   UNL     1      -1.061  10.569  18.883  0.00  0.00    +0.000 S 
ENDBRANCH  13  15
BRANCH   1  24
ATOM     24  N   UNL     1       0.092   8.554  21.477  0.00  0.00    +0.000 N 
ATOM     25  H   UNL     1      -0.834   8.739  21.080  0.00  0.00    +0.000 HD
BRANCH  24  26
ATOM     26  CA  UNL     1       0.389   9.680  22.395  0.00  0.00    +0.000 C 
BRANCH  26  28
ATOM     27  C   UNL     1      -1.065  11.710  23.013  0.00  0.00    +0.000 C 
ATOM     28  C   UNL     1      -0.909  10.193  23.056  0.00  0.00    +0.000 C 
ENDBRANCH  26  28
BRANCH  26  29
ATOM     29  C   UNL     1       1.412   9.179  23.445  0.00  0.00    +0.000 C 
BRANCH  29  30
ATOM     30  O   UNL     1       2.762   9.432  23.038  0.00  0.00    +0.000 OA
ATOM     31  H   UNL     1       3.349   8.962  23.653  0.00  0.00    +0.000 HD
ENDBRANCH  29  30
ENDBRANCH  26  29
ENDBRANCH  24  26
ENDBRANCH   1  24
TORSDOF 6
ENDMDL
