MODEL 1
REMARK VINA RESULT:      -7.3      0.000      0.000
REMARK  Name = 
REMARK  6 active torsions:
REMARK  status: ('A' for Active; 'I' for Inactive)
REMARK    1  A    between atoms: C_5  and  S_6
REMARK    2  A    between atoms: S_6  and  C_7
REMARK    3  A    between atoms: C_7  and  C_8
REMARK    4  A    between atoms: C_8  and  C_9
REMARK    5  A    between atoms: C_9  and  N_10
REMARK    6  A    between atoms: N_13  and  C_14
REMARK                            x       y       z     vdW  Elec       q    Type
REMARK                         _______ _______ _______ _____ _____    ______ ____
ROOT
ATOM      1  N   UNL     1       7.139   6.269  17.127  0.00  0.00    +0.000 NA
ATOM      2  C   UNL     1       6.793   5.548  18.377  0.00  0.00    +0.000 C 
ATOM      3  C   UNL     1       5.348   5.794  18.854  0.00  0.00    +0.000 C 
ATOM      4  N   UNL     1       4.386   5.432  17.805  0.00  0.00    +0.000 N 
ATOM      5  C   UNL     1       4.670   5.947  16.451  0.00  0.00    +0.000 C 
ATOM      6  C   UNL     1       6.176   5.814  16.087  0.00  0.00    +0.000 C 
ENDROOT
BRANCH   4   7
ATOM      7  C   UNL     1       3.530   4.355  17.961  0.00  0.00    +0.000 A 
ATOM      8  C   UNL     1       2.153   4.559  18.134  0.00  0.00    +0.000 A 
ATOM      9  C   UNL     1       1.274   3.493  18.357  0.00  0.00    +0.000 A 
ATOM     10  C   UNL     1       1.757   2.191  18.403  0.00  0.00    +0.000 A 
ATOM     11  C   UNL     1       3.115   1.958  18.220  0.00  0.00    +0.000 A 
ATOM     12  C   UNL     1       3.987   3.029  18.000  0.00  0.00    +0.000 A 
ENDBRANCH   4   7
BRANCH   1  13
ATOM     13  C   UNL     1       7.100   7.737  17.269  0.00  0.00    +0.000 C 
BRANCH  13  14
ATOM     14  C   UNL     1       8.255   8.289  18.118  0.00  0.00    +0.000 C 
BRANCH  14  15
ATOM     15  C   UNL     1       8.283   9.816  18.084  0.00  0.00    +0.000 C 
BRANCH  15  16
ATOM     16  S   UNL     1       9.553  10.402  19.259  0.00  0.00    +0.000 S 
BRANCH  16  21
ATOM     17  F   UNL     1      11.647  15.330  16.747  0.00  0.00    +0.000 F 
ATOM     18  C   UNL     1      11.180  14.199  17.290  0.00  0.00    +0.000 A 
ATOM     19  C   UNL     1       9.934  14.195  17.903  0.00  0.00    +0.000 A 
ATOM     20  C   UNL     1       9.456  13.016  18.479  0.00  0.00    +0.000 A 
ATOM     21  C   UNL     1      10.219  11.841  18.437  0.00  0.00    +0.000 A 
ATOM     22  C   UNL     1      11.474  11.865  17.819  0.00  0.00    +0.000 A 
ATOM     23  C   UNL     1      11.952  13.046  17.240  0.00  0.00    +0.000 A 
ENDBRANCH  16  21
ENDBRANCH  15  16
ENDBRANCH  14  15
ENDBRANCH  13  14
ENDBRANCH   1  13
TORSDOF 6
ENDMDL
MODEL 2
REMARK VINA RESULT:      -7.1      1.005      1.071
REMARK  Name = 
REMARK  6 active torsions:
REMARK  status: ('A' for Active; 'I' for Inactive)
REMARK    1  A    between atoms: C_5  and  S_6
REMARK    2  A    between atoms: S_6  and  C_7
REMARK    3  A    between atoms: C_7  and  C_8
REMARK    4  A    between atoms: C_8  and  C_9
REMARK    5  A    between atoms: C_9  and  N_10
REMARK    6  A    between atoms: N_13  and  C_14
REMARK                            x       y       z     vdW  Elec       q    Type
REMARK                         _______ _______ _______ _____ _____    ______ ____
ROOT
ATOM      1  N   UNL     1       7.276   6.602  17.023  0.00  0.00    +0.000 NA
ATOM      2  C   UNL     1       7.361   5.603  18.118  0.00  0.00    +0.000 C 
ATOM      3  C   UNL     1       6.107   5.556  19.012  0.00  0.00    +0.000 C 
ATOM      4  N   UNL     1       4.906   5.293  18.210  0.00  0.00    +0.000 N 
ATOM      5  C   UNL     1       4.745   6.105  16.989  0.00  0.00    +0.000 C 
ATOM      6  C   UNL     1       6.082   6.246  16.208  0.00  0.00    +0.000 C 
ENDROOT
BRANCH   4   7
ATOM      7  C   UNL     1       4.208   4.104  18.339  0.00  0.00    +0.000 A 
ATOM      8  C   UNL     1       3.124   3.819  17.494  0.00  0.00    +0.000 A 
ATOM      9  C   UNL     1       2.362   2.655  17.643  0.00  0.00    +0.000 A 
ATOM     10  C   UNL     1       2.677   1.740  18.640  0.00  0.00    +0.000 A 
ATOM     11  C   UNL     1       3.754   1.989  19.482  0.00  0.00    +0.000 A 
ATOM     12  C   UNL     1       4.509   3.156  19.328  0.00  0.00    +0.000 A 
ENDBRANCH   4   7
BRANCH   1  13
ATOM     13  C   UNL     1       7.183   7.992  17.507  0.00  0.00    +0.000 C 
BRANCH  13  14
ATOM     14  C   UNL     1       8.445   8.455  18.251  0.00  0.00    +0.000 C 
BRANCH  14  15
ATOM     15  C   UNL     1       8.632   9.966  18.130  0.00  0.00    +0.000 C 
BRANCH  15  16
ATOM     16  S   UNL     1       9.482  10.570  19.630  0.00  0.00    +0.000 S 
BRANCH  16  21
ATOM     17  F   UNL     1      12.327  15.483  17.972  0.00  0.00    +0.000 F 
ATOM     18  C   UNL     1      11.663  14.375  18.324  0.00  0.00    +0.000 A 
ATOM     19  C   UNL     1      11.285  14.192  19.648  0.00  0.00    +0.000 A 
ATOM     20  C   UNL     1      10.604  13.029  20.013  0.00  0.00    +0.000 A 
ATOM     21  C   UNL     1      10.296  12.052  19.056  0.00  0.00    +0.000 A 
ATOM     22  C   UNL     1      10.688  12.251  17.728  0.00  0.00    +0.000 A 
ATOM     23  C   UNL     1      11.369  13.418  17.362  0.00  0.00    +0.000 A 
ENDBRANCH  16  21
ENDBRANCH  15  16
ENDBRANCH  14  15
ENDBRANCH  13  14
ENDBRANCH   1  13
TORSDOF 6
ENDMDL
MODEL 3
REMARK VINA RESULT:      -7.1      1.632      2.173
REMARK  Name = 
REMARK  6 active torsions:
REMARK  status: ('A' for Active; 'I' for Inactive)
REMARK    1  A    between atoms: C_5  and  S_6
REMARK    2  A    between atoms: S_6  and  C_7
REMARK    3  A    between atoms: C_7  and  C_8
REMARK    4  A    between atoms: C_8  and  C_9
REMARK    5  A    between atoms: C_9  and  N_10
REMARK    6  A    between atoms: N_13  and  C_14
REMARK                            x       y       z     vdW  Elec       q    Type
REMARK                         _______ _______ _______ _____ _____    ______ ____
ROOT
ATOM      1  N   UNL     1       5.899   6.342  16.711  0.00  0.00    +0.000 NA
ATOM      2  C   UNL     1       5.962   5.052  17.443  0.00  0.00    +0.000 C 
ATOM      3  C   UNL     1       5.332   5.107  18.849  0.00  0.00    +0.000 C 
ATOM      4  N   UNL     1       3.936   5.553  18.775  0.00  0.00    +0.000 N 
ATOM      5  C   UNL     1       3.674   6.748  17.951  0.00  0.00    +0.000 C 
ATOM      6  C   UNL     1       4.461   6.709  16.610  0.00  0.00    +0.000 C 
ENDROOT
BRANCH   4   7
ATOM      7  C   UNL     1       2.894   4.695  19.087  0.00  0.00    +0.000 A 
ATOM      8  C   UNL     1       2.311   3.893  18.094  0.00  0.00    +0.000 A 
ATOM      9  C   UNL     1       1.218   3.064  18.367  0.00  0.00    +0.000 A 
ATOM     10  C   UNL     1       0.687   3.012  19.650  0.00  0.00    +0.000 A 
ATOM     11  C   UNL     1       1.254   3.785  20.657  0.00  0.00    +0.000 A 
ATOM     12  C   UNL     1       2.345   4.613  20.374  0.00  0.00    +0.000 A 
ENDBRANCH   4   7
BRANCH   1  13
ATOM     13  C   UNL     1       6.670   7.420  17.359  0.00  0.00    +0.000 C 
BRANCH  13  14
ATOM     14  C   UNL     1       7.867   6.900  18.168  0.00  0.00    +0.000 C 
BRANCH  14  15
ATOM     15  C   UNL     1       8.617   8.047  18.843  0.00  0.00    +0.000 C 
BRANCH  15  16
ATOM     16  S   UNL     1       8.308   9.580  17.901  0.00  0.00    +0.000 S 
BRANCH  16  21
ATOM     17  F   UNL     1      11.983  13.615  20.181  0.00  0.00    +0.000 F 
ATOM     18  C   UNL     1      11.164  12.680  19.683  0.00  0.00    +0.000 A 
ATOM     19  C   UNL     1      11.026  12.550  18.307  0.00  0.00    +0.000 A 
ATOM     20  C   UNL     1      10.161  11.581  17.793  0.00  0.00    +0.000 A 
ATOM     21  C   UNL     1       9.439  10.741  18.651  0.00  0.00    +0.000 A 
ATOM     22  C   UNL     1       9.587  10.890  20.034  0.00  0.00    +0.000 A 
ATOM     23  C   UNL     1      10.455  11.858  20.550  0.00  0.00    +0.000 A 
ENDBRANCH  16  21
ENDBRANCH  15  16
ENDBRANCH  14  15
ENDBRANCH  13  14
ENDBRANCH   1  13
TORSDOF 6
ENDMDL
MODEL 4
REMARK VINA RESULT:      -7.0      0.959      1.291
REMARK  Name = 
REMARK  6 active torsions:
REMARK  status: ('A' for Active; 'I' for Inactive)
REMARK    1  A    between atoms: C_5  and  S_6
REMARK    2  A    between atoms: S_6  and  C_7
REMARK    3  A    between atoms: C_7  and  C_8
REMARK    4  A    between atoms: C_8  and  C_9
REMARK    5  A    between atoms: C_9  and  N_10
REMARK    6  A    between atoms: N_13  and  C_14
REMARK                            x       y       z     vdW  Elec       q    Type
REMARK                         _______ _______ _______ _____ _____    ______ ____
ROOT
ATOM      1  N   UNL     1       7.212   6.569  16.949  0.00  0.00    +0.000 NA
ATOM      2  C   UNL     1       7.315   5.583  18.054  0.00  0.00    +0.000 C 
ATOM      3  C   UNL     1       6.076   5.548  18.971  0.00  0.00    +0.000 C 
ATOM      4  N   UNL     1       4.861   5.278  18.192  0.00  0.00    +0.000 N 
ATOM      5  C   UNL     1       4.680   6.075  16.964  0.00  0.00    +0.000 C 
ATOM      6  C   UNL     1       6.004   6.206  16.159  0.00  0.00    +0.000 C 
ENDROOT
BRANCH   4   7
ATOM      7  C   UNL     1       4.163   4.091  18.346  0.00  0.00    +0.000 A 
ATOM      8  C   UNL     1       4.488   3.204  19.384  0.00  0.00    +0.000 A 
ATOM      9  C   UNL     1       3.843   1.971  19.525  0.00  0.00    +0.000 A 
ATOM     10  C   UNL     1       2.844   1.601  18.632  0.00  0.00    +0.000 A 
ATOM     11  C   UNL     1       2.491   2.467  17.603  0.00  0.00    +0.000 A 
ATOM     12  C   UNL     1       3.144   3.697  17.467  0.00  0.00    +0.000 A 
ENDBRANCH   4   7
BRANCH   1  13
ATOM     13  C   UNL     1       7.129   7.965  17.419  0.00  0.00    +0.000 C 
BRANCH  13  14
ATOM     14  C   UNL     1       8.336   8.386  18.270  0.00  0.00    +0.000 C 
BRANCH  14  15
ATOM     15  C   UNL     1       8.687   9.855  18.042  0.00  0.00    +0.000 C 
BRANCH  15  16
ATOM     16  S   UNL     1       9.485  10.505  19.551  0.00  0.00    +0.000 S 
BRANCH  16  21
ATOM     17  F   UNL     1      11.846  15.697  17.987  0.00  0.00    +0.000 F 
ATOM     18  C   UNL     1      11.291  14.524  18.317  0.00  0.00    +0.000 A 
ATOM     19  C   UNL     1      10.900  14.295  19.629  0.00  0.00    +0.000 A 
ATOM     20  C   UNL     1      10.333  13.065  19.972  0.00  0.00    +0.000 A 
ATOM     21  C   UNL     1      10.154  12.067  19.004  0.00  0.00    +0.000 A 
ATOM     22  C   UNL     1      10.559  12.314  17.688  0.00  0.00    +0.000 A 
ATOM     23  C   UNL     1      11.124  13.548  17.344  0.00  0.00    +0.000 A 
ENDBRANCH  16  21
ENDBRANCH  15  16
ENDBRANCH  14  15
ENDBRANCH  13  14
ENDBRANCH   1  13
TORSDOF 6
ENDMDL
MODEL 5
REMARK VINA RESULT:      -7.0      4.758      7.074
REMARK  Name = 
REMARK  6 active torsions:
REMARK  status: ('A' for Active; 'I' for Inactive)
REMARK    1  A    between atoms: C_5  and  S_6
REMARK    2  A    between atoms: S_6  and  C_7
REMARK    3  A    between atoms: C_7  and  C_8
REMARK    4  A    between atoms: C_8  and  C_9
REMARK    5  A    between atoms: C_9  and  N_10
REMARK    6  A    between atoms: N_13  and  C_14
REMARK                            x       y       z     vdW  Elec       q    Type
REMARK                         _______ _______ _______ _____ _____    ______ ____
ROOT
ATOM      1  N   UNL     1       1.182   3.509  19.207  0.00  0.00    +0.000 NA
ATOM      2  C   UNL     1       0.981   4.408  20.371  0.00  0.00    +0.000 C 
ATOM      3  C   UNL     1       2.102   5.450  20.550  0.00  0.00    +0.000 C 
ATOM      4  N   UNL     1       2.259   6.258  19.334  0.00  0.00    +0.000 N 
ATOM      5  C   UNL     1       2.323   5.517  18.060  0.00  0.00    +0.000 C 
ATOM      6  C   UNL     1       1.268   4.376  18.002  0.00  0.00    +0.000 C 
ENDROOT
BRANCH   4   7
ATOM      7  C   UNL     1       1.942   7.607  19.327  0.00  0.00    +0.000 A 
ATOM      8  C   UNL     1       1.396   8.216  20.467  0.00  0.00    +0.000 A 
ATOM      9  C   UNL     1       1.008   9.560  20.468  0.00  0.00    +0.000 A 
ATOM     10  C   UNL     1       1.169  10.331  19.322  0.00  0.00    +0.000 A 
ATOM     11  C   UNL     1       1.721   9.758  18.183  0.00  0.00    +0.000 A 
ATOM     12  C   UNL     1       2.103   8.412  18.190  0.00  0.00    +0.000 A 
ENDBRANCH   4   7
BRANCH   1  13
ATOM     13  C   UNL     1       2.383   2.660  19.328  0.00  0.00    +0.000 C 
BRANCH  13  14
ATOM     14  C   UNL     1       2.822   2.046  17.990  0.00  0.00    +0.000 C 
BRANCH  14  15
ATOM     15  C   UNL     1       4.254   2.446  17.642  0.00  0.00    +0.000 C 
BRANCH  15  16
ATOM     16  S   UNL     1       5.008   3.243  19.103  0.00  0.00    +0.000 S 
BRANCH  16  21
ATOM     17  F   UNL     1       8.150   7.747  16.907  0.00  0.00    +0.000 F 
ATOM     18  C   UNL     1       7.413   6.739  17.392  0.00  0.00    +0.000 A 
ATOM     19  C   UNL     1       7.522   6.392  18.731  0.00  0.00    +0.000 A 
ATOM     20  C   UNL     1       6.760   5.331  19.229  0.00  0.00    +0.000 A 
ATOM     21  C   UNL     1       5.888   4.624  18.391  0.00  0.00    +0.000 A 
ATOM     22  C   UNL     1       5.795   4.986  17.043  0.00  0.00    +0.000 A 
ATOM     23  C   UNL     1       6.556   6.049  16.544  0.00  0.00    +0.000 A 
ENDBRANCH  16  21
ENDBRANCH  15  16
ENDBRANCH  14  15
ENDBRANCH  13  14
ENDBRANCH   1  13
TORSDOF 6
ENDMDL
MODEL 6
REMARK VINA RESULT:      -6.9      4.395      6.740
REMARK  Name = 
REMARK  6 active torsions:
REMARK  status: ('A' for Active; 'I' for Inactive)
REMARK    1  A    between atoms: C_5  and  S_6
REMARK    2  A    between atoms: S_6  and  C_7
REMARK    3  A    between atoms: C_7  and  C_8
REMARK    4  A    between atoms: C_8  and  C_9
REMARK    5  A    between atoms: C_9  and  N_10
REMARK    6  A    between atoms: N_13  and  C_14
REMARK                            x       y       z     vdW  Elec       q    Type
REMARK                         _______ _______ _______ _____ _____    ______ ____
ROOT
ATOM      1  N   UNL     1       1.337   3.357  19.324  0.00  0.00    +0.000 NA
ATOM      2  C   UNL     1       1.135   4.272  20.476  0.00  0.00    +0.000 C 
ATOM      3  C   UNL     1       2.203   5.378  20.583  0.00  0.00    +0.000 C 
ATOM      4  N   UNL     1       2.263   6.164  19.345  0.00  0.00    +0.000 N 
ATOM      5  C   UNL     1       2.314   5.398  18.085  0.00  0.00    +0.000 C 
ATOM      6  C   UNL     1       1.323   4.200  18.098  0.00  0.00    +0.000 C 
ENDROOT
BRANCH   4   7
ATOM      7  C   UNL     1       1.870   7.493  19.323  0.00  0.00    +0.000 A 
ATOM      8  C   UNL     1       2.010   8.257  18.155  0.00  0.00    +0.000 A 
ATOM      9  C   UNL     1       1.681   9.617  18.123  0.00  0.00    +0.000 A 
ATOM     10  C   UNL     1       1.192  10.241  19.264  0.00  0.00    +0.000 A 
ATOM     11  C   UNL     1       1.029   9.505  20.431  0.00  0.00    +0.000 A 
ATOM     12  C   UNL     1       1.363   8.147  20.455  0.00  0.00    +0.000 A 
ENDBRANCH   4   7
BRANCH   1  13
ATOM     13  C   UNL     1       2.588   2.579  19.410  0.00  0.00    +0.000 C 
BRANCH  13  14
ATOM     14  C   UNL     1       3.371   2.554  18.089  0.00  0.00    +0.000 C 
BRANCH  14  15
ATOM     15  C   UNL     1       4.793   3.078  18.281  0.00  0.00    +0.000 C 
BRANCH  15  16
ATOM     16  S   UNL     1       5.313   3.927  16.750  0.00  0.00    +0.000 S 
BRANCH  16  21
ATOM     17  F   UNL     1       8.786   8.230  18.848  0.00  0.00    +0.000 F 
ATOM     18  C   UNL     1       7.976   7.276  18.373  0.00  0.00    +0.000 A 
ATOM     19  C   UNL     1       7.941   6.034  18.992  0.00  0.00    +0.000 A 
ATOM     20  C   UNL     1       7.104   5.037  18.485  0.00  0.00    +0.000 A 
ATOM     21  C   UNL     1       6.299   5.283  17.364  0.00  0.00    +0.000 A 
ATOM     22  C   UNL     1       6.351   6.540  16.750  0.00  0.00    +0.000 A 
ATOM     23  C   UNL     1       7.189   7.539  17.259  0.00  0.00    +0.000 A 
ENDBRANCH  16  21
ENDBRANCH  15  16
ENDBRANCH  14  15
ENDBRANCH  13  14
ENDBRANCH   1  13
TORSDOF 6
ENDMDL
MODEL 7
REMARK VINA RESULT:      -6.9      5.711      7.563
REMARK  Name = 
REMARK  6 active torsions:
REMARK  status: ('A' for Active; 'I' for Inactive)
REMARK    1  A    between atoms: C_5  and  S_6
REMARK    2  A    between atoms: S_6  and  C_7
REMARK    3  A    between atoms: C_7  and  C_8
REMARK    4  A    between atoms: C_8  and  C_9
REMARK    5  A    between atoms: C_9  and  N_10
REMARK    6  A    between atoms: N_13  and  C_14
REMARK                            x       y       z     vdW  Elec       q    Type
REMARK                         _______ _______ _______ _____ _____    ______ ____
ROOT
ATOM      1  N   UNL     1       5.678   4.213  18.634  0.00  0.00    +0.000 NA
ATOM      2  C   UNL     1       4.975   3.474  17.555  0.00  0.00    +0.000 C 
ATOM      3  C   UNL     1       4.549   4.363  16.371  0.00  0.00    +0.000 C 
ATOM      4  N   UNL     1       5.708   5.062  15.803  0.00  0.00    +0.000 N 
ATOM      5  C   UNL     1       6.606   5.730  16.764  0.00  0.00    +0.000 C 
ATOM      6  C   UNL     1       6.875   4.844  18.014  0.00  0.00    +0.000 C 
ENDROOT
BRANCH   4   7
ATOM      7  C   UNL     1       6.167   4.765  14.530  0.00  0.00    +0.000 A 
ATOM      8  C   UNL     1       5.474   3.856  13.717  0.00  0.00    +0.000 A 
ATOM      9  C   UNL     1       5.949   3.490  12.453  0.00  0.00    +0.000 A 
ATOM     10  C   UNL     1       7.130   4.038  11.968  0.00  0.00    +0.000 A 
ATOM     11  C   UNL     1       7.830   4.953  12.746  0.00  0.00    +0.000 A 
ATOM     12  C   UNL     1       7.350   5.311  14.009  0.00  0.00    +0.000 A 
ENDBRANCH   4   7
BRANCH   1  13
ATOM     13  C   UNL     1       4.834   5.229  19.291  0.00  0.00    +0.000 C 
BRANCH  13  14
ATOM     14  C   UNL     1       3.567   4.637  19.926  0.00  0.00    +0.000 C 
BRANCH  14  15
ATOM     15  C   UNL     1       2.349   5.517  19.651  0.00  0.00    +0.000 C 
BRANCH  15  16
ATOM     16  S   UNL     1       2.824   6.813  18.454  0.00  0.00    +0.000 S 
BRANCH  16  21
ATOM     17  F   UNL     1      -0.333  11.532  20.109  0.00  0.00    +0.000 F 
ATOM     18  C   UNL     1       0.401  10.468  19.758  0.00  0.00    +0.000 A 
ATOM     19  C   UNL     1       0.839  10.339  18.448  0.00  0.00    +0.000 A 
ATOM     20  C   UNL     1       1.594   9.221  18.084  0.00  0.00    +0.000 A 
ATOM     21  C   UNL     1       1.914   8.237  19.030  0.00  0.00    +0.000 A 
ATOM     22  C   UNL     1       1.459   8.383  20.345  0.00  0.00    +0.000 A 
ATOM     23  C   UNL     1       0.705   9.503  20.710  0.00  0.00    +0.000 A 
ENDBRANCH  16  21
ENDBRANCH  15  16
ENDBRANCH  14  15
ENDBRANCH  13  14
ENDBRANCH   1  13
TORSDOF 6
ENDMDL
MODEL 8
REMARK VINA RESULT:      -6.9      1.528      1.951
REMARK  Name = 
REMARK  6 active torsions:
REMARK  status: ('A' for Active; 'I' for Inactive)
REMARK    1  A    between atoms: C_5  and  S_6
REMARK    2  A    between atoms: S_6  and  C_7
REMARK    3  A    between atoms: C_7  and  C_8
REMARK    4  A    between atoms: C_8  and  C_9
REMARK    5  A    between atoms: C_9  and  N_10
REMARK    6  A    between atoms: N_13  and  C_14
REMARK                            x       y       z     vdW  Elec       q    Type
REMARK                         _______ _______ _______ _____ _____    ______ ____
ROOT
ATOM      1  N   UNL     1       6.073   6.358  16.529  0.00  0.00    +0.000 NA
ATOM      2  C   UNL     1       6.127   5.035  17.199  0.00  0.00    +0.000 C 
ATOM      3  C   UNL     1       5.412   5.002  18.564  0.00  0.00    +0.000 C 
ATOM      4  N   UNL     1       4.011   5.419  18.427  0.00  0.00    +0.000 N 
ATOM      5  C   UNL     1       3.767   6.648  17.648  0.00  0.00    +0.000 C 
ATOM      6  C   UNL     1       4.634   6.696  16.358  0.00  0.00    +0.000 C 
ENDROOT
BRANCH   4   7
ATOM      7  C   UNL     1       2.976   4.522  18.631  0.00  0.00    +0.000 A 
ATOM      8  C   UNL     1       2.023   4.749  19.636  0.00  0.00    +0.000 A 
ATOM      9  C   UNL     1       1.005   3.829  19.906  0.00  0.00    +0.000 A 
ATOM     10  C   UNL     1       0.911   2.658  19.163  0.00  0.00    +0.000 A 
ATOM     11  C   UNL     1       1.831   2.414  18.151  0.00  0.00    +0.000 A 
ATOM     12  C   UNL     1       2.848   3.338  17.890  0.00  0.00    +0.000 A 
ENDBRANCH   4   7
BRANCH   1  13
ATOM     13  C   UNL     1       6.774   7.420  17.276  0.00  0.00    +0.000 C 
BRANCH  13  14
ATOM     14  C   UNL     1       7.814   6.872  18.265  0.00  0.00    +0.000 C 
BRANCH  14  15
ATOM     15  C   UNL     1       8.707   7.989  18.801  0.00  0.00    +0.000 C 
BRANCH  15  16
ATOM     16  S   UNL     1       8.227   9.557  17.995  0.00  0.00    +0.000 S 
BRANCH  16  21
ATOM     17  F   UNL     1      11.911  13.645  20.165  0.00  0.00    +0.000 F 
ATOM     18  C   UNL     1      11.091  12.698  19.691  0.00  0.00    +0.000 A 
ATOM     19  C   UNL     1      10.898  12.580  18.321  0.00  0.00    +0.000 A 
ATOM     20  C   UNL     1      10.032  11.599  17.832  0.00  0.00    +0.000 A 
ATOM     21  C   UNL     1       9.365  10.734  18.711  0.00  0.00    +0.000 A 
ATOM     22  C   UNL     1       9.569  10.871  20.088  0.00  0.00    +0.000 A 
ATOM     23  C   UNL     1      10.438  11.852  20.577  0.00  0.00    +0.000 A 
ENDBRANCH  16  21
ENDBRANCH  15  16
ENDBRANCH  14  15
ENDBRANCH  13  14
ENDBRANCH   1  13
TORSDOF 6
ENDMDL
MODEL 9
REMARK VINA RESULT:      -6.9      1.202      1.525
REMARK  Name = 
REMARK  6 active torsions:
REMARK  status: ('A' for Active; 'I' for Inactive)
REMARK    1  A    between atoms: C_5  and  S_6
REMARK    2  A    between atoms: S_6  and  C_7
REMARK    3  A    between atoms: C_7  and  C_8
REMARK    4  A    between atoms: C_8  and  C_9
REMARK    5  A    between atoms: C_9  and  N_10
REMARK    6  A    between atoms: N_13  and  C_14
REMARK                            x       y       z     vdW  Elec       q    Type
REMARK                         _______ _______ _______ _____ _____    ______ ____
ROOT
ATOM      1  N   UNL     1       6.541   5.626  17.294  0.00  0.00    +0.000 NA
ATOM      2  C   UNL     1       6.303   5.197  18.695  0.00  0.00    +0.000 C 
ATOM      3  C   UNL     1       5.026   5.796  19.317  0.00  0.00    +0.000 C 
ATOM      4  N   UNL     1       3.849   5.468  18.503  0.00  0.00    +0.000 N 
ATOM      5  C   UNL     1       3.974   5.693  17.051  0.00  0.00    +0.000 C 
ATOM      6  C   UNL     1       5.349   5.209  16.507  0.00  0.00    +0.000 C 
ENDROOT
BRANCH   4   7
ATOM      7  C   UNL     1       2.864   4.620  18.982  0.00  0.00    +0.000 A 
ATOM      8  C   UNL     1       2.240   3.698  18.127  0.00  0.00    +0.000 A 
ATOM      9  C   UNL     1       1.200   2.874  18.569  0.00  0.00    +0.000 A 
ATOM     10  C   UNL     1       0.765   2.947  19.887  0.00  0.00    +0.000 A 
ATOM     11  C   UNL     1       1.375   3.840  20.760  0.00  0.00    +0.000 A 
ATOM     12  C   UNL     1       2.413   4.663  20.309  0.00  0.00    +0.000 A 
ENDBRANCH   4   7
BRANCH   1  13
ATOM     13  C   UNL     1       6.776   7.076  17.159  0.00  0.00    +0.000 C 
BRANCH  13  14
ATOM     14  C   UNL     1       7.915   7.586  18.053  0.00  0.00    +0.000 C 
BRANCH  14  15
ATOM     15  C   UNL     1       8.105   9.094  17.899  0.00  0.00    +0.000 C 
BRANCH  15  16
ATOM     16  S   UNL     1       9.285   9.666  19.170  0.00  0.00    +0.000 S 
BRANCH  16  21
ATOM     17  F   UNL     1      10.044  15.312  17.581  0.00  0.00    +0.000 F 
ATOM     18  C   UNL     1       9.901  14.028  17.933  0.00  0.00    +0.000 A 
ATOM     19  C   UNL     1       8.814  13.305  17.463  0.00  0.00    +0.000 A 
ATOM     20  C   UNL     1       8.663  11.969  17.843  0.00  0.00    +0.000 A 
ATOM     21  C   UNL     1       9.600  11.356  18.686  0.00  0.00    +0.000 A 
ATOM     22  C   UNL     1      10.687  12.103  19.153  0.00  0.00    +0.000 A 
ATOM     23  C   UNL     1      10.839  13.440  18.771  0.00  0.00    +0.000 A 
ENDBRANCH  16  21
ENDBRANCH  15  16
ENDBRANCH  14  15
ENDBRANCH  13  14
ENDBRANCH   1  13
TORSDOF 6
ENDMDL
