MODEL 1
REMARK VINA RESULT:      -7.1      0.000      0.000
REMARK  Name = 
REMARK  6 active torsions:
REMARK  status: ('A' for Active; 'I' for Inactive)
REMARK    1  A    between atoms: C_1  and  O_2
REMARK    2  A    between atoms: O_2  and  C_3
REMARK    3  A    between atoms: C_6  and  C_7
REMARK    4  A    between atoms: N_9  and  C_10
REMARK    5  A    between atoms: C_14  and  C_15
REMARK    6  A    between atoms: C_15  and  O_17
REMARK                            x       y       z     vdW  Elec       q    Type
REMARK                         _______ _______ _______ _____ _____    ______ ____
ROOT
ATOM      1  C   UNL     1       3.231   6.548  18.553  0.00  0.00    +0.000 A 
ATOM      2  S   UNL     1       4.588   7.383  17.979  0.00  0.00    +0.000 S 
ATOM      3  C   UNL     1       5.159   5.999  17.156  0.00  0.00    +0.000 A 
ATOM      4  C   UNL     1       4.226   4.962  17.151  0.00  0.00    +0.000 A 
ATOM      5  C   UNL     1       3.068   5.295  17.989  0.00  0.00    +0.000 A 
ATOM      6  C   UNL     1       4.391   3.689  16.348  0.00  0.00    +0.000 C 
ATOM      7  C   UNL     1       5.071   3.900  14.995  0.00  0.00    +0.000 C 
ATOM      8  C   UNL     1       6.597   3.994  15.056  0.00  0.00    +0.000 C 
ATOM      9  C   UNL     1       7.173   4.751  16.250  0.00  0.00    +0.000 C 
ATOM     10  C   UNL     1       6.503   6.105  16.491  0.00  0.00    +0.000 C 
ENDROOT
BRANCH   1  13
ATOM     11  C   UNL     1       1.794   8.367  19.073  0.00  0.00    +0.000 C 
ATOM     12  O   UNL     1       1.701   8.738  17.907  0.00  0.00    +0.000 OA
ATOM     13  N   UNL     1       2.529   7.266  19.492  0.00  0.00    +0.000 N 
ATOM     14  H   UNL     1       2.167   6.738  20.269  0.00  0.00    +0.000 HD
BRANCH  11  18
ATOM     15  C   UNL     1      -0.511  10.246  22.203  0.00  0.00    +0.000 A 
ATOM     16  C   UNL     1       0.380   9.211  22.483  0.00  0.00    +0.000 A 
ATOM     17  C   UNL     1       1.140   8.633  21.462  0.00  0.00    +0.000 A 
ATOM     18  C   UNL     1       1.001   9.069  20.137  0.00  0.00    +0.000 A 
ATOM     19  C   UNL     1       0.096  10.103  19.858  0.00  0.00    +0.000 A 
ATOM     20  C   UNL     1      -0.652  10.690  20.888  0.00  0.00    +0.000 A 
BRANCH  15  22
ATOM     21  C   UNL     1      -2.016  11.866  23.043  0.00  0.00    +0.000 C 
ATOM     22  O   UNL     1      -1.224  10.709  23.275  0.00  0.00    +0.000 OA
ENDBRANCH  15  22
ENDBRANCH  11  18
ENDBRANCH   1  13
BRANCH   5  23
ATOM     23  C   UNL     1       1.829   4.531  18.177  0.00  0.00    +0.000 C 
ATOM     24  O   UNL     1       1.139   4.113  17.255  0.00  0.00    +0.000 OA
BRANCH  23  25
ATOM     25  O   UNL     1       1.511   4.247  19.461  0.00  0.00    +0.000 OA
ATOM     26  H   UNL     1       1.873   4.913  20.072  0.00  0.00    +0.000 HD
ENDBRANCH  23  25
ENDBRANCH   5  23
TORSDOF 5
ENDMDL
MODEL 2
REMARK VINA RESULT:      -7.0      0.272      1.020
REMARK  Name = 
REMARK  6 active torsions:
REMARK  status: ('A' for Active; 'I' for Inactive)
REMARK    1  A    between atoms: C_1  and  O_2
REMARK    2  A    between atoms: O_2  and  C_3
REMARK    3  A    between atoms: C_6  and  C_7
REMARK    4  A    between atoms: N_9  and  C_10
REMARK    5  A    between atoms: C_14  and  C_15
REMARK    6  A    between atoms: C_15  and  O_17
REMARK                            x       y       z     vdW  Elec       q    Type
REMARK                         _______ _______ _______ _____ _____    ______ ____
ROOT
ATOM      1  C   UNL     1       3.281   6.506  18.663  0.00  0.00    +0.000 A 
ATOM      2  S   UNL     1       4.638   7.348  18.101  0.00  0.00    +0.000 S 
ATOM      3  C   UNL     1       5.179   5.993  17.212  0.00  0.00    +0.000 A 
ATOM      4  C   UNL     1       4.233   4.968  17.180  0.00  0.00    +0.000 A 
ATOM      5  C   UNL     1       3.093   5.279  18.052  0.00  0.00    +0.000 A 
ATOM      6  C   UNL     1       4.369   3.727  16.323  0.00  0.00    +0.000 C 
ATOM      7  C   UNL     1       5.028   3.987  14.968  0.00  0.00    +0.000 C 
ATOM      8  C   UNL     1       6.556   4.060  15.006  0.00  0.00    +0.000 C 
ATOM      9  C   UNL     1       7.162   4.761  16.221  0.00  0.00    +0.000 C 
ATOM     10  C   UNL     1       6.512   6.111  16.528  0.00  0.00    +0.000 C 
ENDROOT
BRANCH   1  13
ATOM     11  C   UNL     1       1.818   8.276  19.273  0.00  0.00    +0.000 C 
ATOM     12  O   UNL     1       1.658   8.655  18.117  0.00  0.00    +0.000 OA
ATOM     13  N   UNL     1       2.604   7.192  19.644  0.00  0.00    +0.000 N 
ATOM     14  H   UNL     1       2.295   6.646  20.431  0.00  0.00    +0.000 HD
BRANCH  11  18
ATOM     15  C   UNL     1      -0.350  10.329  22.391  0.00  0.00    +0.000 A 
ATOM     16  C   UNL     1      -0.468  10.712  21.055  0.00  0.00    +0.000 A 
ATOM     17  C   UNL     1       0.218  10.017  20.055  0.00  0.00    +0.000 A 
ATOM     18  C   UNL     1       1.056   8.941  20.381  0.00  0.00    +0.000 A 
ATOM     19  C   UNL     1       1.180   8.567  21.727  0.00  0.00    +0.000 A 
ATOM     20  C   UNL     1       0.477   9.257  22.725  0.00  0.00    +0.000 A 
BRANCH  15  22
ATOM     21  C   UNL     1      -1.255  12.456  22.898  0.00  0.00    +0.000 C 
ATOM     22  O   UNL     1      -1.040  11.104  23.283  0.00  0.00    +0.000 OA
ENDBRANCH  15  22
ENDBRANCH  11  18
ENDBRANCH   1  13
BRANCH   5  23
ATOM     23  C   UNL     1       1.848   4.523  18.229  0.00  0.00    +0.000 C 
ATOM     24  O   UNL     1       1.129   4.166  17.304  0.00  0.00    +0.000 OA
BRANCH  23  25
ATOM     25  O   UNL     1       1.558   4.171  19.503  0.00  0.00    +0.000 OA
ATOM     26  H   UNL     1       0.807   4.684  19.851  0.00  0.00    +0.000 HD
ENDBRANCH  23  25
ENDBRANCH   5  23
TORSDOF 5
ENDMDL
MODEL 3
REMARK VINA RESULT:      -6.8      1.182      1.720
REMARK  Name = 
REMARK  6 active torsions:
REMARK  status: ('A' for Active; 'I' for Inactive)
REMARK    1  A    between atoms: C_1  and  O_2
REMARK    2  A    between atoms: O_2  and  C_3
REMARK    3  A    between atoms: C_6  and  C_7
REMARK    4  A    between atoms: N_9  and  C_10
REMARK    5  A    between atoms: C_14  and  C_15
REMARK    6  A    between atoms: C_15  and  O_17
REMARK                            x       y       z     vdW  Elec       q    Type
REMARK                         _______ _______ _______ _____ _____    ______ ____
ROOT
ATOM      1  C   UNL     1       2.560   6.952  19.368  0.00  0.00    +0.000 A 
ATOM      2  S   UNL     1       3.227   7.801  18.063  0.00  0.00    +0.000 S 
ATOM      3  C   UNL     1       4.071   6.416  17.523  0.00  0.00    +0.000 A 
ATOM      4  C   UNL     1       3.694   5.264  18.212  0.00  0.00    +0.000 A 
ATOM      5  C   UNL     1       2.785   5.587  19.319  0.00  0.00    +0.000 A 
ATOM      6  C   UNL     1       4.144   3.870  17.827  0.00  0.00    +0.000 C 
ATOM      7  C   UNL     1       4.269   3.661  16.318  0.00  0.00    +0.000 C 
ATOM      8  C   UNL     1       5.567   4.191  15.706  0.00  0.00    +0.000 C 
ATOM      9  C   UNL     1       6.082   5.513  16.270  0.00  0.00    +0.000 C 
ATOM     10  C   UNL     1       5.004   6.595  16.359  0.00  0.00    +0.000 C 
ENDROOT
BRANCH   1  13
ATOM     11  C   UNL     1       1.163   8.834  19.760  0.00  0.00    +0.000 C 
ATOM     12  O   UNL     1       1.009   9.074  18.566  0.00  0.00    +0.000 OA
ATOM     13  N   UNL     1       1.914   7.777  20.258  0.00  0.00    +0.000 N 
ATOM     14  H   UNL     1       1.593   7.342  21.107  0.00  0.00    +0.000 HD
BRANCH  11  18
ATOM     15  C   UNL     1      -0.843  11.323  22.661  0.00  0.00    +0.000 A 
ATOM     16  C   UNL     1      -0.417  11.838  21.437  0.00  0.00    +0.000 A 
ATOM     17  C   UNL     1       0.205  11.012  20.497  0.00  0.00    +0.000 A 
ATOM     18  C   UNL     1       0.433   9.657  20.780  0.00  0.00    +0.000 A 
ATOM     19  C   UNL     1       0.012   9.146  22.016  0.00  0.00    +0.000 A 
ATOM     20  C   UNL     1      -0.626   9.975  22.949  0.00  0.00    +0.000 A 
BRANCH  15  22
ATOM     21  C   UNL     1      -2.825  12.329  23.472  0.00  0.00    +0.000 C 
ATOM     22  O   UNL     1      -1.407  12.233  23.512  0.00  0.00    +0.000 OA
ENDBRANCH  15  22
ENDBRANCH  11  18
ENDBRANCH   1  13
BRANCH   5  23
ATOM     23  C   UNL     1       2.083   4.667  20.222  0.00  0.00    +0.000 C 
ATOM     24  O   UNL     1       1.264   3.838  19.848  0.00  0.00    +0.000 OA
BRANCH  23  25
ATOM     25  O   UNL     1       2.447   4.740  21.523  0.00  0.00    +0.000 OA
ATOM     26  H   UNL     1       2.755   3.878  21.854  0.00  0.00    +0.000 HD
ENDBRANCH  23  25
ENDBRANCH   5  23
TORSDOF 5
ENDMDL
MODEL 4
REMARK VINA RESULT:      -6.6      0.796      1.109
REMARK  Name = 
REMARK  6 active torsions:
REMARK  status: ('A' for Active; 'I' for Inactive)
REMARK    1  A    between atoms: C_1  and  O_2
REMARK    2  A    between atoms: O_2  and  C_3
REMARK    3  A    between atoms: C_6  and  C_7
REMARK    4  A    between atoms: N_9  and  C_10
REMARK    5  A    between atoms: C_14  and  C_15
REMARK    6  A    between atoms: C_15  and  O_17
REMARK                            x       y       z     vdW  Elec       q    Type
REMARK                         _______ _______ _______ _____ _____    ______ ____
ROOT
ATOM      1  C   UNL     1       3.032   6.848  18.332  0.00  0.00    +0.000 A 
ATOM      2  S   UNL     1       4.357   7.653  17.652  0.00  0.00    +0.000 S 
ATOM      3  C   UNL     1       5.078   6.178  17.179  0.00  0.00    +0.000 A 
ATOM      4  C   UNL     1       4.225   5.089  17.357  0.00  0.00    +0.000 A 
ATOM      5  C   UNL     1       2.995   5.494  18.049  0.00  0.00    +0.000 A 
ATOM      6  C   UNL     1       4.532   3.692  16.860  0.00  0.00    +0.000 C 
ATOM      7  C   UNL     1       5.278   3.666  15.525  0.00  0.00    +0.000 C 
ATOM      8  C   UNL     1       6.786   3.899  15.634  0.00  0.00    +0.000 C 
ATOM      9  C   UNL     1       7.230   4.940  16.659  0.00  0.00    +0.000 C 
ATOM     10  C   UNL     1       6.449   6.253  16.568  0.00  0.00    +0.000 C 
ENDROOT
BRANCH   1  13
ATOM     11  C   UNL     1       1.726   8.830  18.444  0.00  0.00    +0.000 C 
ATOM     12  O   UNL     1       1.937   9.136  17.274  0.00  0.00    +0.000 OA
ATOM     13  N   UNL     1       2.221   7.688  19.060  0.00  0.00    +0.000 N 
ATOM     14  H   UNL     1       1.639   7.248  19.752  0.00  0.00    +0.000 HD
BRANCH  11  18
ATOM     15  C   UNL     1      -0.934  11.141  20.938  0.00  0.00    +0.000 A 
ATOM     16  C   UNL     1       0.165  10.473  21.477  0.00  0.00    +0.000 A 
ATOM     17  C   UNL     1       1.033   9.754  20.651  0.00  0.00    +0.000 A 
ATOM     18  C   UNL     1       0.798   9.671  19.271  0.00  0.00    +0.000 A 
ATOM     19  C   UNL     1      -0.315  10.335  18.736  0.00  0.00    +0.000 A 
ATOM     20  C   UNL     1      -1.173  11.069  19.566  0.00  0.00    +0.000 A 
BRANCH  15  22
ATOM     21  C   UNL     1      -1.621  11.338  23.194  0.00  0.00    +0.000 C 
ATOM     22  O   UNL     1      -1.730  11.782  21.847  0.00  0.00    +0.000 OA
ENDBRANCH  15  22
ENDBRANCH  11  18
ENDBRANCH   1  13
BRANCH   5  23
ATOM     23  C   UNL     1       1.805   4.687  18.342  0.00  0.00    +0.000 C 
ATOM     24  O   UNL     1       1.396   4.461  19.474  0.00  0.00    +0.000 OA
BRANCH  23  25
ATOM     25  O   UNL     1       1.124   4.243  17.260  0.00  0.00    +0.000 OA
ATOM     26  H   UNL     1       1.691   3.706  16.679  0.00  0.00    +0.000 HD
ENDBRANCH  23  25
ENDBRANCH   5  23
TORSDOF 5
ENDMDL
MODEL 5
REMARK VINA RESULT:      -6.5      0.862      1.141
REMARK  Name = 
REMARK  6 active torsions:
REMARK  status: ('A' for Active; 'I' for Inactive)
REMARK    1  A    between atoms: C_1  and  O_2
REMARK    2  A    between atoms: O_2  and  C_3
REMARK    3  A    between atoms: C_6  and  C_7
REMARK    4  A    between atoms: N_9  and  C_10
REMARK    5  A    between atoms: C_14  and  C_15
REMARK    6  A    between atoms: C_15  and  O_17
REMARK                            x       y       z     vdW  Elec       q    Type
REMARK                         _______ _______ _______ _____ _____    ______ ____
ROOT
ATOM      1  C   UNL     1       2.877   6.700  19.071  0.00  0.00    +0.000 A 
ATOM      2  S   UNL     1       3.678   7.560  17.851  0.00  0.00    +0.000 S 
ATOM      3  C   UNL     1       4.471   6.149  17.303  0.00  0.00    +0.000 A 
ATOM      4  C   UNL     1       3.980   4.994  17.913  0.00  0.00    +0.000 A 
ATOM      5  C   UNL     1       3.021   5.328  18.974  0.00  0.00    +0.000 A 
ATOM      6  C   UNL     1       4.370   3.593  17.493  0.00  0.00    +0.000 C 
ATOM      7  C   UNL     1       4.582   3.440  15.986  0.00  0.00    +0.000 C 
ATOM      8  C   UNL     1       5.947   3.912  15.483  0.00  0.00    +0.000 C 
ATOM      9  C   UNL     1       6.503   5.174  16.139  0.00  0.00    +0.000 C 
ATOM     10  C   UNL     1       5.488   6.317  16.210  0.00  0.00    +0.000 C 
ENDROOT
BRANCH   1  13
ATOM     11  C   UNL     1       1.432   8.548  19.449  0.00  0.00    +0.000 C 
ATOM     12  O   UNL     1       1.245   8.756  18.254  0.00  0.00    +0.000 OA
ATOM     13  N   UNL     1       2.224   7.526  19.956  0.00  0.00    +0.000 N 
ATOM     14  H   UNL     1       1.933   7.102  20.821  0.00  0.00    +0.000 HD
BRANCH  11  18
ATOM     15  C   UNL     1      -0.725  10.788  22.444  0.00  0.00    +0.000 A 
ATOM     16  C   UNL     1       0.009   9.651  22.780  0.00  0.00    +0.000 A 
ATOM     17  C   UNL     1       0.725   8.954  21.803  0.00  0.00    +0.000 A 
ATOM     18  C   UNL     1       0.697   9.373  20.465  0.00  0.00    +0.000 A 
ATOM     19  C   UNL     1      -0.050  10.511  20.130  0.00  0.00    +0.000 A 
ATOM     20  C   UNL     1      -0.754  11.216  21.117  0.00  0.00    +0.000 A 
BRANCH  15  22
ATOM     21  C   UNL     1      -2.574  12.102  23.117  0.00  0.00    +0.000 C 
ATOM     22  O   UNL     1      -1.411  11.366  23.477  0.00  0.00    +0.000 OA
ENDBRANCH  15  22
ENDBRANCH  11  18
ENDBRANCH   1  13
BRANCH   5  23
ATOM     23  C   UNL     1       2.207   4.417  19.786  0.00  0.00    +0.000 C 
ATOM     24  O   UNL     1       2.201   4.416  21.011  0.00  0.00    +0.000 OA
BRANCH  23  25
ATOM     25  O   UNL     1       1.387   3.594  19.092  0.00  0.00    +0.000 OA
ATOM     26  H   UNL     1       1.775   3.349  18.233  0.00  0.00    +0.000 HD
ENDBRANCH  23  25
ENDBRANCH   5  23
TORSDOF 5
ENDMDL
MODEL 6
REMARK VINA RESULT:      -6.5      3.386      5.285
REMARK  Name = 
REMARK  6 active torsions:
REMARK  status: ('A' for Active; 'I' for Inactive)
REMARK    1  A    between atoms: C_1  and  O_2
REMARK    2  A    between atoms: O_2  and  C_3
REMARK    3  A    between atoms: C_6  and  C_7
REMARK    4  A    between atoms: N_9  and  C_10
REMARK    5  A    between atoms: C_14  and  C_15
REMARK    6  A    between atoms: C_15  and  O_17
REMARK                            x       y       z     vdW  Elec       q    Type
REMARK                         _______ _______ _______ _____ _____    ______ ____
ROOT
ATOM      1  C   UNL     1       0.388   9.683  20.606  0.00  0.00    +0.000 A 
ATOM      2  S   UNL     1       1.046   8.376  21.458  0.00  0.00    +0.000 S 
ATOM      3  C   UNL     1       1.699   7.704  20.029  0.00  0.00    +0.000 A 
ATOM      4  C   UNL     1       1.590   8.567  18.939  0.00  0.00    +0.000 A 
ATOM      5  C   UNL     1       0.803   9.757  19.288  0.00  0.00    +0.000 A 
ATOM      6  C   UNL     1       2.238   8.309  17.596  0.00  0.00    +0.000 C 
ATOM      7  C   UNL     1       3.603   7.625  17.694  0.00  0.00    +0.000 C 
ATOM      8  C   UNL     1       3.544   6.110  17.896  0.00  0.00    +0.000 C 
ATOM      9  C   UNL     1       2.442   5.601  18.822  0.00  0.00    +0.000 C 
ATOM     10  C   UNL     1       2.365   6.362  20.147  0.00  0.00    +0.000 C 
ENDROOT
BRANCH   1  13
ATOM     11  C   UNL     1      -0.012  11.678  21.834  0.00  0.00    +0.000 C 
ATOM     12  O   UNL     1       1.086  12.160  21.571  0.00  0.00    +0.000 OA
ATOM     13  N   UNL     1      -0.458  10.444  21.379  0.00  0.00    +0.000 N 
ATOM     14  H   UNL     1      -1.440  10.354  21.177  0.00  0.00    +0.000 HD
BRANCH  11  18
ATOM     15  C   UNL     1      -2.982  13.934  24.007  0.00  0.00    +0.000 A 
ATOM     16  C   UNL     1      -3.201  12.604  23.652  0.00  0.00    +0.000 A 
ATOM     17  C   UNL     1      -2.217  11.879  22.973  0.00  0.00    +0.000 A 
ATOM     18  C   UNL     1      -1.004  12.485  22.618  0.00  0.00    +0.000 A 
ATOM     19  C   UNL     1      -0.792  13.827  22.968  0.00  0.00    +0.000 A 
ATOM     20  C   UNL     1      -1.776  14.545  23.662  0.00  0.00    +0.000 A 
BRANCH  15  22
ATOM     21  C   UNL     1      -3.942  15.965  24.751  0.00  0.00    +0.000 C 
ATOM     22  O   UNL     1      -4.029  14.550  24.636  0.00  0.00    +0.000 OA
ENDBRANCH  15  22
ENDBRANCH  11  18
ENDBRANCH   1  13
BRANCH   5  23
ATOM     23  C   UNL     1       0.536  10.946  18.471  0.00  0.00    +0.000 C 
ATOM     24  O   UNL     1      -0.582  11.413  18.292  0.00  0.00    +0.000 OA
BRANCH  23  25
ATOM     25  O   UNL     1       1.629  11.558  17.961  0.00  0.00    +0.000 OA
ATOM     26  H   UNL     1       1.761  12.438  18.358  0.00  0.00    +0.000 HD
ENDBRANCH  23  25
ENDBRANCH   5  23
TORSDOF 5
ENDMDL
MODEL 7
REMARK VINA RESULT:      -6.5      1.008      1.387
REMARK  Name = 
REMARK  6 active torsions:
REMARK  status: ('A' for Active; 'I' for Inactive)
REMARK    1  A    between atoms: C_1  and  O_2
REMARK    2  A    between atoms: O_2  and  C_3
REMARK    3  A    between atoms: C_6  and  C_7
REMARK    4  A    between atoms: N_9  and  C_10
REMARK    5  A    between atoms: C_14  and  C_15
REMARK    6  A    between atoms: C_15  and  O_17
REMARK                            x       y       z     vdW  Elec       q    Type
REMARK                         _______ _______ _______ _____ _____    ______ ____
ROOT
ATOM      1  C   UNL     1       2.826   7.002  18.033  0.00  0.00    +0.000 A 
ATOM      2  S   UNL     1       4.164   7.817  17.391  0.00  0.00    +0.000 S 
ATOM      3  C   UNL     1       4.995   6.349  17.117  0.00  0.00    +0.000 A 
ATOM      4  C   UNL     1       4.184   5.234  17.327  0.00  0.00    +0.000 A 
ATOM      5  C   UNL     1       2.880   5.629  17.875  0.00  0.00    +0.000 A 
ATOM      6  C   UNL     1       4.600   3.818  16.989  0.00  0.00    +0.000 C 
ATOM      7  C   UNL     1       5.459   3.715  15.729  0.00  0.00    +0.000 C 
ATOM      8  C   UNL     1       6.939   4.042  15.937  0.00  0.00    +0.000 C 
ATOM      9  C   UNL     1       7.242   5.194  16.893  0.00  0.00    +0.000 C 
ATOM     10  C   UNL     1       6.408   6.447  16.616  0.00  0.00    +0.000 C 
ENDROOT
BRANCH   1  13
ATOM     11  C   UNL     1       1.785   7.852  19.993  0.00  0.00    +0.000 C 
ATOM     12  O   UNL     1       2.451   7.153  20.751  0.00  0.00    +0.000 OA
ATOM     13  N   UNL     1       1.915   7.856  18.610  0.00  0.00    +0.000 N 
ATOM     14  H   UNL     1       1.770   8.732  18.136  0.00  0.00    +0.000 HD
BRANCH  11  18
ATOM     15  C   UNL     1      -0.921  10.836  21.546  0.00  0.00    +0.000 A 
ATOM     16  C   UNL     1      -0.552  10.823  20.201  0.00  0.00    +0.000 A 
ATOM     17  C   UNL     1       0.302   9.833  19.709  0.00  0.00    +0.000 A 
ATOM     18  C   UNL     1       0.822   8.851  20.564  0.00  0.00    +0.000 A 
ATOM     19  C   UNL     1       0.457   8.873  21.917  0.00  0.00    +0.000 A 
ATOM     20  C   UNL     1      -0.413   9.860  22.403  0.00  0.00    +0.000 A 
BRANCH  15  22
ATOM     21  C   UNL     1      -2.205  11.841  23.260  0.00  0.00    +0.000 C 
ATOM     22  O   UNL     1      -1.732  11.872  21.919  0.00  0.00    +0.000 OA
ENDBRANCH  15  22
ENDBRANCH  11  18
ENDBRANCH   1  13
BRANCH   5  23
ATOM     23  C   UNL     1       1.711   4.784  18.145  0.00  0.00    +0.000 C 
ATOM     24  O   UNL     1       1.016   4.282  17.270  0.00  0.00    +0.000 OA
BRANCH  23  25
ATOM     25  O   UNL     1       1.469   4.526  19.451  0.00  0.00    +0.000 OA
ATOM     26  H   UNL     1       1.681   5.296  20.010  0.00  0.00    +0.000 HD
ENDBRANCH  23  25
ENDBRANCH   5  23
TORSDOF 5
ENDMDL
MODEL 8
REMARK VINA RESULT:      -6.5      3.144      4.819
REMARK  Name = 
REMARK  6 active torsions:
REMARK  status: ('A' for Active; 'I' for Inactive)
REMARK    1  A    between atoms: C_1  and  O_2
REMARK    2  A    between atoms: O_2  and  C_3
REMARK    3  A    between atoms: C_6  and  C_7
REMARK    4  A    between atoms: N_9  and  C_10
REMARK    5  A    between atoms: C_14  and  C_15
REMARK    6  A    between atoms: C_15  and  O_17
REMARK                            x       y       z     vdW  Elec       q    Type
REMARK                         _______ _______ _______ _____ _____    ______ ____
ROOT
ATOM      1  C   UNL     1       0.720   9.344  20.335  0.00  0.00    +0.000 A 
ATOM      2  S   UNL     1       1.187   7.948  21.172  0.00  0.00    +0.000 S 
ATOM      3  C   UNL     1       1.943   7.302  19.783  0.00  0.00    +0.000 A 
ATOM      4  C   UNL     1       2.014   8.226  18.740  0.00  0.00    +0.000 A 
ATOM      5  C   UNL     1       1.280   9.453  19.075  0.00  0.00    +0.000 A 
ATOM      6  C   UNL     1       2.786   7.987  17.459  0.00  0.00    +0.000 C 
ATOM      7  C   UNL     1       4.079   7.197  17.660  0.00  0.00    +0.000 C 
ATOM      8  C   UNL     1       3.892   5.683  17.764  0.00  0.00    +0.000 C 
ATOM      9  C   UNL     1       2.662   5.212  18.538  0.00  0.00    +0.000 C 
ATOM     10  C   UNL     1       2.494   5.908  19.891  0.00  0.00    +0.000 C 
ENDROOT
BRANCH   1  13
ATOM     11  C   UNL     1       0.323  11.314  21.604  0.00  0.00    +0.000 C 
ATOM     12  O   UNL     1       1.467  11.736  21.463  0.00  0.00    +0.000 OA
ATOM     13  N   UNL     1      -0.150  10.127  21.059  0.00  0.00    +0.000 N 
ATOM     14  H   UNL     1      -1.111  10.105  20.764  0.00  0.00    +0.000 HD
BRANCH  11  18
ATOM     15  C   UNL     1      -2.705  13.636  23.622  0.00  0.00    +0.000 A 
ATOM     16  C   UNL     1      -2.822  12.252  23.492  0.00  0.00    +0.000 A 
ATOM     17  C   UNL     1      -1.818  11.512  22.861  0.00  0.00    +0.000 A 
ATOM     18  C   UNL     1      -0.690  12.151  22.327  0.00  0.00    +0.000 A 
ATOM     19  C   UNL     1      -0.583  13.544  22.450  0.00  0.00    +0.000 A 
ATOM     20  C   UNL     1      -1.585  14.280  23.098  0.00  0.00    +0.000 A 
BRANCH  15  22
ATOM     21  C   UNL     1      -5.046  13.976  23.677  0.00  0.00    +0.000 C 
ATOM     22  O   UNL     1      -3.765  14.256  24.225  0.00  0.00    +0.000 OA
ENDBRANCH  15  22
ENDBRANCH  11  18
ENDBRANCH   1  13
BRANCH   5  23
ATOM     23  C   UNL     1       1.189  10.699  18.305  0.00  0.00    +0.000 C 
ATOM     24  O   UNL     1       2.159  11.366  17.970  0.00  0.00    +0.000 OA
BRANCH  23  25
ATOM     25  O   UNL     1      -0.059  11.051  17.917  0.00  0.00    +0.000 OA
ATOM     26  H   UNL     1      -0.034  11.689  17.182  0.00  0.00    +0.000 HD
ENDBRANCH  23  25
ENDBRANCH   5  23
TORSDOF 5
ENDMDL
MODEL 9
REMARK VINA RESULT:      -6.5      1.217      1.484
REMARK  Name = 
REMARK  6 active torsions:
REMARK  status: ('A' for Active; 'I' for Inactive)
REMARK    1  A    between atoms: C_1  and  O_2
REMARK    2  A    between atoms: O_2  and  C_3
REMARK    3  A    between atoms: C_6  and  C_7
REMARK    4  A    between atoms: N_9  and  C_10
REMARK    5  A    between atoms: C_14  and  C_15
REMARK    6  A    between atoms: C_15  and  O_17
REMARK                            x       y       z     vdW  Elec       q    Type
REMARK                         _______ _______ _______ _____ _____    ______ ____
ROOT
ATOM      1  C   UNL     1       2.558   7.221  19.044  0.00  0.00    +0.000 A 
ATOM      2  S   UNL     1       3.307   7.951  17.712  0.00  0.00    +0.000 S 
ATOM      3  C   UNL     1       4.173   6.524  17.349  0.00  0.00    +0.000 A 
ATOM      4  C   UNL     1       3.749   5.437  18.113  0.00  0.00    +0.000 A 
ATOM      5  C   UNL     1       2.778   5.857  19.130  0.00  0.00    +0.000 A 
ATOM      6  C   UNL     1       4.214   4.015  17.880  0.00  0.00    +0.000 C 
ATOM      7  C   UNL     1       4.428   3.673  16.405  0.00  0.00    +0.000 C 
ATOM      8  C   UNL     1       5.763   4.146  15.828  0.00  0.00    +0.000 C 
ATOM      9  C   UNL     1       6.251   5.513  16.303  0.00  0.00    +0.000 C 
ATOM     10  C   UNL     1       5.176   6.599  16.231  0.00  0.00    +0.000 C 
ENDROOT
BRANCH   1  13
ATOM     11  C   UNL     1       1.106   9.097  19.183  0.00  0.00    +0.000 C 
ATOM     12  O   UNL     1       0.984   9.199  17.966  0.00  0.00    +0.000 OA
ATOM     13  N   UNL     1       1.865   8.122  19.818  0.00  0.00    +0.000 N 
ATOM     14  H   UNL     1       1.526   7.775  20.700  0.00  0.00    +0.000 HD
BRANCH  11  18
ATOM     15  C   UNL     1      -1.168  11.597  21.869  0.00  0.00    +0.000 A 
ATOM     16  C   UNL     1      -0.292  10.625  22.353  0.00  0.00    +0.000 A 
ATOM     17  C   UNL     1       0.458   9.844  21.469  0.00  0.00    +0.000 A 
ATOM     18  C   UNL     1       0.324  10.008  20.083  0.00  0.00    +0.000 A 
ATOM     19  C   UNL     1      -0.566  10.978  19.602  0.00  0.00    +0.000 A 
ATOM     20  C   UNL     1      -1.304  11.770  20.492  0.00  0.00    +0.000 A 
BRANCH  15  22
ATOM     21  C   UNL     1      -1.271  13.466  23.316  0.00  0.00    +0.000 C 
ATOM     22  O   UNL     1      -1.873  12.274  22.826  0.00  0.00    +0.000 OA
ENDBRANCH  15  22
ENDBRANCH  11  18
ENDBRANCH   1  13
BRANCH   5  23
ATOM     23  C   UNL     1       2.018   5.021  20.066  0.00  0.00    +0.000 C 
ATOM     24  O   UNL     1       1.221   4.159  19.718  0.00  0.00    +0.000 OA
BRANCH  23  25
ATOM     25  O   UNL     1       2.299   5.212  21.376  0.00  0.00    +0.000 OA
ATOM     26  H   UNL     1       3.071   5.794  21.492  0.00  0.00    +0.000 HD
ENDBRANCH  23  25
ENDBRANCH   5  23
TORSDOF 5
ENDMDL
