MODEL 1
REMARK VINA RESULT:      -7.1      0.000      0.000
REMARK  Name = 
REMARK  6 active torsions:
REMARK  status: ('A' for Active; 'I' for Inactive)
REMARK    1  A    between atoms: C_2  and  C_3
REMARK    2  A    between atoms: C_3  and  O_4
REMARK    3  A    between atoms: O_4  and  C_5
REMARK    4  A    between atoms: C_8  and  C_9
REMARK    5  A    between atoms: C_11  and  C_12
REMARK    6  A    between atoms: C_12  and  C_14
REMARK                            x       y       z     vdW  Elec       q    Type
REMARK                         _______ _______ _______ _____ _____    ______ ____
ROOT
ATOM      1  C   UNL     1       2.524   5.799  19.859  0.00  0.00    +0.000 A 
ATOM      2  C   UNL     1       1.895   6.853  20.537  0.00  0.00    +0.000 A 
ATOM      3  C   UNL     1       1.684   8.079  19.908  0.00  0.00    +0.000 A 
ATOM      4  C   UNL     1       2.078   8.272  18.583  0.00  0.00    +0.000 A 
ATOM      5  C   UNL     1       1.931   9.608  17.920  0.00  0.00    +0.000 C 
ATOM      6  C   UNL     1       2.637   7.196  17.880  0.00  0.00    +0.000 A 
ATOM      7  C   UNL     1       2.842   5.949  18.498  0.00  0.00    +0.000 A 
ENDROOT
BRANCH   7   8
ATOM      8  C   UNL     1       3.492   4.891  17.668  0.00  0.00    +0.000 C 
ATOM      9  O   UNL     1       2.784   4.028  17.151  0.00  0.00    +0.000 OA
BRANCH   8  10
ATOM     10  C   UNL     1       4.950   4.817  17.434  0.00  0.00    +0.000 A 
ATOM     11  C   UNL     1       5.535   4.859  16.167  0.00  0.00    +0.000 A 
ATOM     12  C   UNL     1       6.916   4.710  16.048  0.00  0.00    +0.000 A 
ATOM     13  C   UNL     1       7.668   4.564  17.204  0.00  0.00    +0.000 A 
ATOM     14  N   UNL     1       7.142   4.578  18.447  0.00  0.00    +0.000 NA
ATOM     15  C   UNL     1       5.794   4.712  18.534  0.00  0.00    +0.000 A 
ENDBRANCH   8  10
ENDBRANCH   7   8
BRANCH   1  16
ATOM     16  O   UNL     1       2.851   4.624  20.475  0.00  0.00    +0.000 OA
BRANCH  16  17
ATOM     17  C   UNL     1       1.790   3.926  21.127  0.00  0.00    +0.000 C 
BRANCH  17  19
ATOM     18  C   UNL     1       0.804   2.488  19.314  0.00  0.00    +0.000 C 
ATOM     19  C   UNL     1       0.777   3.586  20.079  0.00  0.00    +0.000 C 
ENDBRANCH  17  19
ENDBRANCH  16  17
ENDBRANCH   1  16
TORSDOF 5
ENDMDL
MODEL 2
REMARK VINA RESULT:      -7.0      1.904      2.297
REMARK  Name = 
REMARK  6 active torsions:
REMARK  status: ('A' for Active; 'I' for Inactive)
REMARK    1  A    between atoms: C_2  and  C_3
REMARK    2  A    between atoms: C_3  and  O_4
REMARK    3  A    between atoms: O_4  and  C_5
REMARK    4  A    between atoms: C_8  and  C_9
REMARK    5  A    between atoms: C_11  and  C_12
REMARK    6  A    between atoms: C_12  and  C_14
REMARK                            x       y       z     vdW  Elec       q    Type
REMARK                         _______ _______ _______ _____ _____    ______ ____
ROOT
ATOM      1  C   UNL     1       3.520   4.814  19.498  0.00  0.00    +0.000 A 
ATOM      2  C   UNL     1       2.317   5.427  19.877  0.00  0.00    +0.000 A 
ATOM      3  C   UNL     1       1.943   6.657  19.337  0.00  0.00    +0.000 A 
ATOM      4  C   UNL     1       2.753   7.290  18.393  0.00  0.00    +0.000 A 
ATOM      5  C   UNL     1       2.406   8.649  17.864  0.00  0.00    +0.000 C 
ATOM      6  C   UNL     1       3.918   6.644  17.957  0.00  0.00    +0.000 A 
ATOM      7  C   UNL     1       4.299   5.396  18.483  0.00  0.00    +0.000 A 
ENDROOT
BRANCH   7   8
ATOM      8  C   UNL     1       5.584   4.824  17.982  0.00  0.00    +0.000 C 
ATOM      9  O   UNL     1       6.386   4.370  18.797  0.00  0.00    +0.000 OA
BRANCH   8  10
ATOM     10  C   UNL     1       5.954   4.774  16.551  0.00  0.00    +0.000 A 
ATOM     11  C   UNL     1       5.176   4.160  15.570  0.00  0.00    +0.000 A 
ATOM     12  C   UNL     1       5.647   4.105  14.259  0.00  0.00    +0.000 A 
ATOM     13  C   UNL     1       6.866   4.702  13.969  0.00  0.00    +0.000 A 
ATOM     14  N   UNL     1       7.617   5.355  14.882  0.00  0.00    +0.000 NA
ATOM     15  C   UNL     1       7.139   5.382  16.152  0.00  0.00    +0.000 A 
ENDBRANCH   8  10
ENDBRANCH   7   8
BRANCH   1  16
ATOM     16  O   UNL     1       3.974   3.667  20.088  0.00  0.00    +0.000 OA
BRANCH  16  17
ATOM     17  C   UNL     1       3.106   2.537  20.043  0.00  0.00    +0.000 C 
BRANCH  17  19
ATOM     18  C   UNL     1       2.693   2.105  17.600  0.00  0.00    +0.000 C 
ATOM     19  C   UNL     1       3.349   1.846  18.737  0.00  0.00    +0.000 C 
ENDBRANCH  17  19
ENDBRANCH  16  17
ENDBRANCH   1  16
TORSDOF 5
ENDMDL
MODEL 3
REMARK VINA RESULT:      -6.9      0.750      1.130
REMARK  Name = 
REMARK  6 active torsions:
REMARK  status: ('A' for Active; 'I' for Inactive)
REMARK    1  A    between atoms: C_2  and  C_3
REMARK    2  A    between atoms: C_3  and  O_4
REMARK    3  A    between atoms: O_4  and  C_5
REMARK    4  A    between atoms: C_8  and  C_9
REMARK    5  A    between atoms: C_11  and  C_12
REMARK    6  A    between atoms: C_12  and  C_14
REMARK                            x       y       z     vdW  Elec       q    Type
REMARK                         _______ _______ _______ _____ _____    ______ ____
ROOT
ATOM      1  C   UNL     1       2.576   5.723  19.868  0.00  0.00    +0.000 A 
ATOM      2  C   UNL     1       1.991   6.787  20.568  0.00  0.00    +0.000 A 
ATOM      3  C   UNL     1       1.753   8.009  19.940  0.00  0.00    +0.000 A 
ATOM      4  C   UNL     1       2.076   8.186  18.594  0.00  0.00    +0.000 A 
ATOM      5  C   UNL     1       1.902   9.517  17.926  0.00  0.00    +0.000 C 
ATOM      6  C   UNL     1       2.590   7.100  17.872  0.00  0.00    +0.000 A 
ATOM      7  C   UNL     1       2.820   5.858  18.490  0.00  0.00    +0.000 A 
ENDROOT
BRANCH   7   8
ATOM      8  C   UNL     1       3.418   4.787  17.637  0.00  0.00    +0.000 C 
ATOM      9  O   UNL     1       2.673   3.944  17.140  0.00  0.00    +0.000 OA
BRANCH   8  10
ATOM     10  C   UNL     1       4.866   4.679  17.356  0.00  0.00    +0.000 A 
ATOM     11  C   UNL     1       5.859   4.892  18.312  0.00  0.00    +0.000 A 
ATOM     12  C   UNL     1       7.199   4.836  17.929  0.00  0.00    +0.000 A 
ATOM     13  C   UNL     1       7.497   4.529  16.610  0.00  0.00    +0.000 A 
ATOM     14  N   UNL     1       6.562   4.260  15.673  0.00  0.00    +0.000 NA
ATOM     15  C   UNL     1       5.267   4.334  16.071  0.00  0.00    +0.000 A 
ENDBRANCH   8  10
ENDBRANCH   7   8
BRANCH   1  16
ATOM     16  O   UNL     1       2.927   4.551  20.478  0.00  0.00    +0.000 OA
BRANCH  16  17
ATOM     17  C   UNL     1       1.938   3.934  21.299  0.00  0.00    +0.000 C 
BRANCH  17  19
ATOM     18  C   UNL     1       1.319   2.191  19.594  0.00  0.00    +0.000 C 
ATOM     19  C   UNL     1       0.990   3.219  20.386  0.00  0.00    +0.000 C 
ENDBRANCH  17  19
ENDBRANCH  16  17
ENDBRANCH   1  16
TORSDOF 5
ENDMDL
MODEL 4
REMARK VINA RESULT:      -6.9      2.171      5.067
REMARK  Name = 
REMARK  6 active torsions:
REMARK  status: ('A' for Active; 'I' for Inactive)
REMARK    1  A    between atoms: C_2  and  C_3
REMARK    2  A    between atoms: C_3  and  O_4
REMARK    3  A    between atoms: O_4  and  C_5
REMARK    4  A    between atoms: C_8  and  C_9
REMARK    5  A    between atoms: C_11  and  C_12
REMARK    6  A    between atoms: C_12  and  C_14
REMARK                            x       y       z     vdW  Elec       q    Type
REMARK                         _______ _______ _______ _____ _____    ______ ____
ROOT
ATOM      1  C   UNL     1       4.510   5.971  17.479  0.00  0.00    +0.000 A 
ATOM      2  C   UNL     1       4.785   6.649  16.283  0.00  0.00    +0.000 A 
ATOM      3  C   UNL     1       5.351   5.979  15.199  0.00  0.00    +0.000 A 
ATOM      4  C   UNL     1       5.635   4.615  15.280  0.00  0.00    +0.000 A 
ATOM      5  C   UNL     1       6.318   3.900  14.153  0.00  0.00    +0.000 C 
ATOM      6  C   UNL     1       5.291   3.920  16.448  0.00  0.00    +0.000 A 
ATOM      7  C   UNL     1       4.706   4.581  17.543  0.00  0.00    +0.000 A 
ENDROOT
BRANCH   7   8
ATOM      8  C   UNL     1       4.428   3.751  18.753  0.00  0.00    +0.000 C 
ATOM      9  O   UNL     1       5.376   3.369  19.438  0.00  0.00    +0.000 OA
BRANCH   8  10
ATOM     10  C   UNL     1       3.068   3.354  19.177  0.00  0.00    +0.000 A 
ATOM     11  C   UNL     1       2.057   2.981  18.290  0.00  0.00    +0.000 A 
ATOM     12  C   UNL     1       0.786   2.692  18.786  0.00  0.00    +0.000 A 
ATOM     13  C   UNL     1       0.583   2.750  20.157  0.00  0.00    +0.000 A 
ATOM     14  N   UNL     1       1.552   3.051  21.047  0.00  0.00    +0.000 NA
ATOM     15  C   UNL     1       2.776   3.339  20.536  0.00  0.00    +0.000 A 
ENDBRANCH   8  10
ENDBRANCH   7   8
BRANCH   1  16
ATOM     16  O   UNL     1       4.062   6.615  18.599  0.00  0.00    +0.000 OA
BRANCH  16  17
ATOM     17  C   UNL     1       2.712   7.077  18.575  0.00  0.00    +0.000 C 
BRANCH  17  19
ATOM     18  C   UNL     1       1.551   7.912  20.645  0.00  0.00    +0.000 C 
ATOM     19  C   UNL     1       2.177   6.942  19.967  0.00  0.00    +0.000 C 
ENDBRANCH  17  19
ENDBRANCH  16  17
ENDBRANCH   1  16
TORSDOF 5
ENDMDL
MODEL 5
REMARK VINA RESULT:      -6.9      2.010      4.954
REMARK  Name = 
REMARK  6 active torsions:
REMARK  status: ('A' for Active; 'I' for Inactive)
REMARK    1  A    between atoms: C_2  and  C_3
REMARK    2  A    between atoms: C_3  and  O_4
REMARK    3  A    between atoms: O_4  and  C_5
REMARK    4  A    between atoms: C_8  and  C_9
REMARK    5  A    between atoms: C_11  and  C_12
REMARK    6  A    between atoms: C_12  and  C_14
REMARK                            x       y       z     vdW  Elec       q    Type
REMARK                         _______ _______ _______ _____ _____    ______ ____
ROOT
ATOM      1  C   UNL     1       4.585   5.174  17.017  0.00  0.00    +0.000 A 
ATOM      2  C   UNL     1       5.138   6.443  16.796  0.00  0.00    +0.000 A 
ATOM      3  C   UNL     1       4.412   7.597  17.087  0.00  0.00    +0.000 A 
ATOM      4  C   UNL     1       3.127   7.507  17.623  0.00  0.00    +0.000 A 
ATOM      5  C   UNL     1       2.303   8.736  17.865  0.00  0.00    +0.000 C 
ATOM      6  C   UNL     1       2.602   6.241  17.915  0.00  0.00    +0.000 A 
ATOM      7  C   UNL     1       3.330   5.069  17.641  0.00  0.00    +0.000 A 
ENDROOT
BRANCH   7   8
ATOM      8  C   UNL     1       2.652   3.774  17.946  0.00  0.00    +0.000 C 
ATOM      9  O   UNL     1       2.265   3.075  17.012  0.00  0.00    +0.000 OA
BRANCH   8  10
ATOM     10  C   UNL     1       2.414   3.281  19.320  0.00  0.00    +0.000 A 
ATOM     11  C   UNL     1       1.166   3.292  19.943  0.00  0.00    +0.000 A 
ATOM     12  C   UNL     1       1.060   2.870  21.268  0.00  0.00    +0.000 A 
ATOM     13  C   UNL     1       2.201   2.415  21.910  0.00  0.00    +0.000 A 
ATOM     14  N   UNL     1       3.413   2.336  21.320  0.00  0.00    +0.000 NA
ATOM     15  C   UNL     1       3.490   2.764  20.034  0.00  0.00    +0.000 A 
ENDBRANCH   8  10
ENDBRANCH   7   8
BRANCH   1  16
ATOM     16  O   UNL     1       5.220   4.023  16.639  0.00  0.00    +0.000 OA
BRANCH  16  17
ATOM     17  C   UNL     1       6.249   4.151  15.659  0.00  0.00    +0.000 C 
BRANCH  17  19
ATOM     18  C   UNL     1       6.206   3.737  13.178  0.00  0.00    +0.000 C 
ATOM     19  C   UNL     1       5.589   4.076  14.316  0.00  0.00    +0.000 C 
ENDBRANCH  17  19
ENDBRANCH  16  17
ENDBRANCH   1  16
TORSDOF 5
ENDMDL
MODEL 6
REMARK VINA RESULT:      -6.8      1.805      4.957
REMARK  Name = 
REMARK  6 active torsions:
REMARK  status: ('A' for Active; 'I' for Inactive)
REMARK    1  A    between atoms: C_2  and  C_3
REMARK    2  A    between atoms: C_3  and  O_4
REMARK    3  A    between atoms: O_4  and  C_5
REMARK    4  A    between atoms: C_8  and  C_9
REMARK    5  A    between atoms: C_11  and  C_12
REMARK    6  A    between atoms: C_12  and  C_14
REMARK                            x       y       z     vdW  Elec       q    Type
REMARK                         _______ _______ _______ _____ _____    ______ ____
ROOT
ATOM      1  C   UNL     1       3.497   6.006  17.523  0.00  0.00    +0.000 A 
ATOM      2  C   UNL     1       4.474   6.905  17.073  0.00  0.00    +0.000 A 
ATOM      3  C   UNL     1       5.684   6.443  16.556  0.00  0.00    +0.000 A 
ATOM      4  C   UNL     1       5.934   5.073  16.461  0.00  0.00    +0.000 A 
ATOM      5  C   UNL     1       7.261   4.562  15.984  0.00  0.00    +0.000 C 
ATOM      6  C   UNL     1       4.930   4.173  16.839  0.00  0.00    +0.000 A 
ATOM      7  C   UNL     1       3.699   4.626  17.348  0.00  0.00    +0.000 A 
ENDROOT
BRANCH   7   8
ATOM      8  C   UNL     1       2.722   3.577  17.767  0.00  0.00    +0.000 C 
ATOM      9  O   UNL     1       2.103   2.964  16.898  0.00  0.00    +0.000 OA
BRANCH   8  10
ATOM     10  C   UNL     1       2.450   3.231  19.178  0.00  0.00    +0.000 A 
ATOM     11  C   UNL     1       1.191   3.330  19.772  0.00  0.00    +0.000 A 
ATOM     12  C   UNL     1       1.052   3.047  21.130  0.00  0.00    +0.000 A 
ATOM     13  C   UNL     1       2.173   2.637  21.838  0.00  0.00    +0.000 A 
ATOM     14  N   UNL     1       3.393   2.475  21.283  0.00  0.00    +0.000 NA
ATOM     15  C   UNL     1       3.501   2.769  19.962  0.00  0.00    +0.000 A 
ENDBRANCH   8  10
ENDBRANCH   7   8
BRANCH   1  16
ATOM     16  O   UNL     1       2.349   6.420  18.139  0.00  0.00    +0.000 OA
BRANCH  16  17
ATOM     17  C   UNL     1       2.501   7.278  19.268  0.00  0.00    +0.000 C 
BRANCH  17  19
ATOM     18  C   UNL     1       1.801   9.277  17.911  0.00  0.00    +0.000 C 
ATOM     19  C   UNL     1       1.689   8.508  19.000  0.00  0.00    +0.000 C 
ENDBRANCH  17  19
ENDBRANCH  16  17
ENDBRANCH   1  16
TORSDOF 5
ENDMDL
MODEL 7
REMARK VINA RESULT:      -6.8      2.167      5.317
REMARK  Name = 
REMARK  6 active torsions:
REMARK  status: ('A' for Active; 'I' for Inactive)
REMARK    1  A    between atoms: C_2  and  C_3
REMARK    2  A    between atoms: C_3  and  O_4
REMARK    3  A    between atoms: O_4  and  C_5
REMARK    4  A    between atoms: C_8  and  C_9
REMARK    5  A    between atoms: C_11  and  C_12
REMARK    6  A    between atoms: C_12  and  C_14
REMARK                            x       y       z     vdW  Elec       q    Type
REMARK                         _______ _______ _______ _____ _____    ______ ____
ROOT
ATOM      1  C   UNL     1       4.386   6.033  17.375  0.00  0.00    +0.000 A 
ATOM      2  C   UNL     1       4.703   6.722  16.195  0.00  0.00    +0.000 A 
ATOM      3  C   UNL     1       5.398   6.089  15.165  0.00  0.00    +0.000 A 
ATOM      4  C   UNL     1       5.772   4.749  15.284  0.00  0.00    +0.000 A 
ATOM      5  C   UNL     1       6.590   4.079  14.221  0.00  0.00    +0.000 C 
ATOM      6  C   UNL     1       5.390   4.038  16.429  0.00  0.00    +0.000 A 
ATOM      7  C   UNL     1       4.676   4.661  17.469  0.00  0.00    +0.000 A 
ENDROOT
BRANCH   7   8
ATOM      8  C   UNL     1       4.366   3.820  18.664  0.00  0.00    +0.000 C 
ATOM      9  O   UNL     1       5.297   3.413  19.358  0.00  0.00    +0.000 OA
BRANCH   8  10
ATOM     10  C   UNL     1       2.993   3.441  19.062  0.00  0.00    +0.000 A 
ATOM     11  C   UNL     1       2.443   3.723  20.313  0.00  0.00    +0.000 A 
ATOM     12  C   UNL     1       1.163   3.259  20.616  0.00  0.00    +0.000 A 
ATOM     13  C   UNL     1       0.464   2.563  19.641  0.00  0.00    +0.000 A 
ATOM     14  N   UNL     1       0.943   2.323  18.402  0.00  0.00    +0.000 NA
ATOM     15  C   UNL     1       2.196   2.775  18.138  0.00  0.00    +0.000 A 
ENDBRANCH   8  10
ENDBRANCH   7   8
BRANCH   1  16
ATOM     16  O   UNL     1       3.808   6.649  18.449  0.00  0.00    +0.000 OA
BRANCH  16  17
ATOM     17  C   UNL     1       2.417   6.946  18.346  0.00  0.00    +0.000 C 
BRANCH  17  19
ATOM     18  C   UNL     1       1.530   9.232  17.786  0.00  0.00    +0.000 C 
ATOM     19  C   UNL     1       2.263   8.421  18.557  0.00  0.00    +0.000 C 
ENDBRANCH  17  19
ENDBRANCH  16  17
ENDBRANCH   1  16
TORSDOF 5
ENDMDL
MODEL 8
REMARK VINA RESULT:      -6.8      2.774      5.950
REMARK  Name = 
REMARK  6 active torsions:
REMARK  status: ('A' for Active; 'I' for Inactive)
REMARK    1  A    between atoms: C_2  and  C_3
REMARK    2  A    between atoms: C_3  and  O_4
REMARK    3  A    between atoms: O_4  and  C_5
REMARK    4  A    between atoms: C_8  and  C_9
REMARK    5  A    between atoms: C_11  and  C_12
REMARK    6  A    between atoms: C_12  and  C_14
REMARK                            x       y       z     vdW  Elec       q    Type
REMARK                         _______ _______ _______ _____ _____    ______ ____
ROOT
ATOM      1  C   UNL     1       6.315   5.366  16.852  0.00  0.00    +0.000 A 
ATOM      2  C   UNL     1       7.365   5.199  15.938  0.00  0.00    +0.000 A 
ATOM      3  C   UNL     1       7.134   4.639  14.682  0.00  0.00    +0.000 A 
ATOM      4  C   UNL     1       5.846   4.252  14.307  0.00  0.00    +0.000 A 
ATOM      5  C   UNL     1       5.596   3.575  12.993  0.00  0.00    +0.000 C 
ATOM      6  C   UNL     1       4.784   4.489  15.189  0.00  0.00    +0.000 A 
ATOM      7  C   UNL     1       5.001   5.067  16.453  0.00  0.00    +0.000 A 
ENDROOT
BRANCH   7   8
ATOM      8  C   UNL     1       3.803   5.225  17.330  0.00  0.00    +0.000 C 
ATOM      9  O   UNL     1       3.415   6.361  17.601  0.00  0.00    +0.000 OA
BRANCH   8  10
ATOM     10  C   UNL     1       3.052   4.087  17.901  0.00  0.00    +0.000 A 
ATOM     11  C   UNL     1       1.659   4.027  17.957  0.00  0.00    +0.000 A 
ATOM     12  C   UNL     1       1.046   2.940  18.580  0.00  0.00    +0.000 A 
ATOM     13  C   UNL     1       1.850   1.932  19.091  0.00  0.00    +0.000 A 
ATOM     14  N   UNL     1       3.197   1.929  19.002  0.00  0.00    +0.000 NA
ATOM     15  C   UNL     1       3.767   3.005  18.402  0.00  0.00    +0.000 A 
ENDBRANCH   8  10
ENDBRANCH   7   8
BRANCH   1  16
ATOM     16  O   UNL     1       6.521   5.805  18.130  0.00  0.00    +0.000 OA
BRANCH  16  17
ATOM     17  C   UNL     1       7.877   5.955  18.546  0.00  0.00    +0.000 C 
BRANCH  17  19
ATOM     18  C   UNL     1       7.938   8.310  17.664  0.00  0.00    +0.000 C 
ATOM     19  C   UNL     1       8.148   7.424  18.646  0.00  0.00    +0.000 C 
ENDBRANCH  17  19
ENDBRANCH  16  17
ENDBRANCH   1  16
TORSDOF 5
ENDMDL
MODEL 9
REMARK VINA RESULT:      -6.8      1.826      4.832
REMARK  Name = 
REMARK  6 active torsions:
REMARK  status: ('A' for Active; 'I' for Inactive)
REMARK    1  A    between atoms: C_2  and  C_3
REMARK    2  A    between atoms: C_3  and  O_4
REMARK    3  A    between atoms: O_4  and  C_5
REMARK    4  A    between atoms: C_8  and  C_9
REMARK    5  A    between atoms: C_11  and  C_12
REMARK    6  A    between atoms: C_12  and  C_14
REMARK                            x       y       z     vdW  Elec       q    Type
REMARK                         _______ _______ _______ _____ _____    ______ ____
ROOT
ATOM      1  C   UNL     1       4.218   5.748  17.948  0.00  0.00    +0.000 A 
ATOM      2  C   UNL     1       5.248   6.542  17.426  0.00  0.00    +0.000 A 
ATOM      3  C   UNL     1       5.993   6.112  16.329  0.00  0.00    +0.000 A 
ATOM      4  C   UNL     1       5.712   4.889  15.720  0.00  0.00    +0.000 A 
ATOM      5  C   UNL     1       6.556   4.375  14.592  0.00  0.00    +0.000 C 
ATOM      6  C   UNL     1       4.633   4.128  16.192  0.00  0.00    +0.000 A 
ATOM      7  C   UNL     1       3.864   4.559  17.288  0.00  0.00    +0.000 A 
ENDROOT
BRANCH   7   8
ATOM      8  C   UNL     1       2.772   3.645  17.738  0.00  0.00    +0.000 C 
ATOM      9  O   UNL     1       2.016   3.167  16.893  0.00  0.00    +0.000 OA
BRANCH   8  10
ATOM     10  C   UNL     1       2.541   3.280  19.152  0.00  0.00    +0.000 A 
ATOM     11  C   UNL     1       1.319   3.442  19.806  0.00  0.00    +0.000 A 
ATOM     12  C   UNL     1       1.224   3.133  21.162  0.00  0.00    +0.000 A 
ATOM     13  C   UNL     1       2.347   2.637  21.808  0.00  0.00    +0.000 A 
ATOM     14  N   UNL     1       3.528   2.414  21.193  0.00  0.00    +0.000 NA
ATOM     15  C   UNL     1       3.596   2.734  19.876  0.00  0.00    +0.000 A 
ENDBRANCH   8  10
ENDBRANCH   7   8
BRANCH   1  16
ATOM     16  O   UNL     1       3.542   6.083  19.088  0.00  0.00    +0.000 OA
BRANCH  16  17
ATOM     17  C   UNL     1       2.527   7.078  18.963  0.00  0.00    +0.000 C 
BRANCH  17  19
ATOM     18  C   UNL     1       1.360   8.279  20.840  0.00  0.00    +0.000 C 
ATOM     19  C   UNL     1       1.818   7.153  20.280  0.00  0.00    +0.000 C 
ENDBRANCH  17  19
ENDBRANCH  16  17
ENDBRANCH   1  16
TORSDOF 5
ENDMDL
