MODEL 1
REMARK VINA RESULT:      -6.7      0.000      0.000
REMARK  Name = 
REMARK  6 active torsions:
REMARK  status: ('A' for Active; 'I' for Inactive)
REMARK    1  A    between atoms: C_1  and  C_2
REMARK    2  A    between atoms: C_2  and  O_3
REMARK    3  A    between atoms: O_3  and  C_4
REMARK    4  A    between atoms: C_4  and  C_6
REMARK    5  A    between atoms: N_10  and  C_11
REMARK    6  A    between atoms: C_18  and  N_19
REMARK                            x       y       z     vdW  Elec       q    Type
REMARK                         _______ _______ _______ _____ _____    ______ ____
ROOT
ATOM      1  C   UNL     1       5.528   4.977  16.999  0.00  0.00    +0.000 A 
ATOM      2  S   UNL     1       4.482   3.619  17.142  0.00  0.00    +0.000 S 
ATOM      3  C   UNL     1       3.176   4.646  17.748  0.00  0.00    +0.000 A 
ATOM      4  S   UNL     1       1.632   4.013  17.871  0.00  0.00    +0.000 S 
ATOM      5  N   UNL     1       3.678   5.961  17.941  0.00  0.00    +0.000 N 
ATOM      6  C   UNL     1       5.006   6.125  17.477  0.00  0.00    +0.000 A 
ENDROOT
BRANCH   5   7
ATOM      7  C   UNL     1       2.862   7.040  18.442  0.00  0.00    +0.000 A 
ATOM      8  C   UNL     1       2.433   7.069  19.778  0.00  0.00    +0.000 A 
ATOM      9  C   UNL     1       1.617   8.099  20.263  0.00  0.00    +0.000 A 
ATOM     10  C   UNL     1       1.252   9.145  19.426  0.00  0.00    +0.000 A 
ATOM     11 BR   UNL     1       0.160  10.539  20.081  0.00  0.00    +0.000 Br
ATOM     12  C   UNL     1       1.691   9.165  18.107  0.00  0.00    +0.000 A 
ATOM     13  C   UNL     1       2.478   8.113  17.619  0.00  0.00    +0.000 A 
ENDBRANCH   5   7
BRANCH   6  14
ATOM     14  N   UNL     1       5.697   7.322  17.514  0.00  0.00    +0.000 N 
ATOM     15  H   UNL     1       6.082   7.521  18.434  0.00  0.00    +0.000 HD
ATOM     16  H   UNL     1       6.415   7.395  16.784  0.00  0.00    +0.000 HD
ENDBRANCH   6  14
BRANCH   1  17
ATOM     17  C   UNL     1       6.849   4.871  16.339  0.00  0.00    +0.000 C 
ATOM     18  O   UNL     1       7.829   4.352  16.860  0.00  0.00    +0.000 OA
BRANCH  17  19
ATOM     19  O   UNL     1       6.842   5.540  15.159  0.00  0.00    +0.000 OA
BRANCH  19  21
ATOM     20  C   UNL     1       6.045   3.919  13.595  0.00  0.00    +0.000 C 
ATOM     21  C   UNL     1       7.224   4.788  14.003  0.00  0.00    +0.000 C 
ENDBRANCH  19  21
ENDBRANCH  17  19
ENDBRANCH   1  17
TORSDOF 5
ENDMDL
MODEL 2
REMARK VINA RESULT:      -6.7      0.102      1.107
REMARK  Name = 
REMARK  6 active torsions:
REMARK  status: ('A' for Active; 'I' for Inactive)
REMARK    1  A    between atoms: C_1  and  C_2
REMARK    2  A    between atoms: C_2  and  O_3
REMARK    3  A    between atoms: O_3  and  C_4
REMARK    4  A    between atoms: C_4  and  C_6
REMARK    5  A    between atoms: N_10  and  C_11
REMARK    6  A    between atoms: C_18  and  N_19
REMARK                            x       y       z     vdW  Elec       q    Type
REMARK                         _______ _______ _______ _____ _____    ______ ____
ROOT
ATOM      1  C   UNL     1       5.484   4.981  16.916  0.00  0.00    +0.000 A 
ATOM      2  S   UNL     1       4.456   3.612  17.080  0.00  0.00    +0.000 S 
ATOM      3  C   UNL     1       3.158   4.622  17.729  0.00  0.00    +0.000 A 
ATOM      4  S   UNL     1       1.624   3.973  17.892  0.00  0.00    +0.000 S 
ATOM      5  N   UNL     1       3.652   5.940  17.918  0.00  0.00    +0.000 N 
ATOM      6  C   UNL     1       4.965   6.121  17.417  0.00  0.00    +0.000 A 
ENDROOT
BRANCH   5   7
ATOM      7  C   UNL     1       2.840   7.008  18.449  0.00  0.00    +0.000 A 
ATOM      8  C   UNL     1       2.407   8.067  17.635  0.00  0.00    +0.000 A 
ATOM      9  C   UNL     1       1.643   9.121  18.150  0.00  0.00    +0.000 A 
ATOM     10  C   UNL     1       1.261   9.111  19.485  0.00  0.00    +0.000 A 
ATOM     11 BR   UNL     1       0.223  10.527  20.179  0.00  0.00    +0.000 Br
ATOM     12  C   UNL     1       1.642   8.058  20.309  0.00  0.00    +0.000 A 
ATOM     13  C   UNL     1       2.436   7.024  19.795  0.00  0.00    +0.000 A 
ENDBRANCH   5   7
BRANCH   6  14
ATOM     14  N   UNL     1       5.645   7.325  17.443  0.00  0.00    +0.000 N 
ATOM     15  H   UNL     1       6.649   7.207  17.331  0.00  0.00    +0.000 HD
ATOM     16  H   UNL     1       5.272   8.012  16.778  0.00  0.00    +0.000 HD
ENDBRANCH   6  14
BRANCH   1  17
ATOM     17  C   UNL     1       6.787   4.893  16.218  0.00  0.00    +0.000 C 
ATOM     18  O   UNL     1       7.800   4.425  16.727  0.00  0.00    +0.000 OA
BRANCH  17  19
ATOM     19  O   UNL     1       6.721   5.517  15.017  0.00  0.00    +0.000 OA
BRANCH  19  21
ATOM     20  C   UNL     1       6.112   3.821  13.448  0.00  0.00    +0.000 C 
ATOM     21  C   UNL     1       7.207   4.776  13.892  0.00  0.00    +0.000 C 
ENDBRANCH  19  21
ENDBRANCH  17  19
ENDBRANCH   1  17
TORSDOF 5
ENDMDL
MODEL 3
REMARK VINA RESULT:      -6.3      0.933      2.110
REMARK  Name = 
REMARK  6 active torsions:
REMARK  status: ('A' for Active; 'I' for Inactive)
REMARK    1  A    between atoms: C_1  and  C_2
REMARK    2  A    between atoms: C_2  and  O_3
REMARK    3  A    between atoms: O_3  and  C_4
REMARK    4  A    between atoms: C_4  and  C_6
REMARK    5  A    between atoms: N_10  and  C_11
REMARK    6  A    between atoms: C_18  and  N_19
REMARK                            x       y       z     vdW  Elec       q    Type
REMARK                         _______ _______ _______ _____ _____    ______ ____
ROOT
ATOM      1  C   UNL     1       5.186   4.980  16.782  0.00  0.00    +0.000 A 
ATOM      2  S   UNL     1       4.186   3.613  17.082  0.00  0.00    +0.000 S 
ATOM      3  C   UNL     1       2.938   4.641  17.798  0.00  0.00    +0.000 A 
ATOM      4  S   UNL     1       1.429   3.993  18.112  0.00  0.00    +0.000 S 
ATOM      5  N   UNL     1       3.436   5.968  17.894  0.00  0.00    +0.000 N 
ATOM      6  C   UNL     1       4.702   6.135  17.280  0.00  0.00    +0.000 A 
ENDROOT
BRANCH   5   7
ATOM      7  C   UNL     1       2.662   7.052  18.449  0.00  0.00    +0.000 A 
ATOM      8  C   UNL     1       2.178   8.091  17.639  0.00  0.00    +0.000 A 
ATOM      9  C   UNL     1       1.451   9.161  18.175  0.00  0.00    +0.000 A 
ATOM     10  C   UNL     1       1.158   9.186  19.533  0.00  0.00    +0.000 A 
ATOM     11 BR   UNL     1       0.170  10.623  20.257  0.00  0.00    +0.000 Br
ATOM     12  C   UNL     1       1.591   8.154  20.357  0.00  0.00    +0.000 A 
ATOM     13  C   UNL     1       2.348   7.105  19.818  0.00  0.00    +0.000 A 
ENDBRANCH   5   7
BRANCH   6  14
ATOM     14  N   UNL     1       5.372   7.342  17.203  0.00  0.00    +0.000 N 
ATOM     15  H   UNL     1       4.844   8.108  17.614  0.00  0.00    +0.000 HD
ATOM     16  H   UNL     1       6.325   7.298  17.582  0.00  0.00    +0.000 HD
ENDBRANCH   6  14
BRANCH   1  17
ATOM     17  C   UNL     1       6.427   4.871  15.982  0.00  0.00    +0.000 C 
ATOM     18  O   UNL     1       6.482   4.331  14.882  0.00  0.00    +0.000 OA
BRANCH  17  19
ATOM     19  O   UNL     1       7.489   5.325  16.693  0.00  0.00    +0.000 OA
BRANCH  19  21
ATOM     20  C   UNL     1       7.948   5.683  19.010  0.00  0.00    +0.000 C 
ATOM     21  C   UNL     1       7.769   4.640  17.919  0.00  0.00    +0.000 C 
ENDBRANCH  19  21
ENDBRANCH  17  19
ENDBRANCH   1  17
TORSDOF 5
ENDMDL
MODEL 4
REMARK VINA RESULT:      -6.3      0.965      1.802
REMARK  Name = 
REMARK  6 active torsions:
REMARK  status: ('A' for Active; 'I' for Inactive)
REMARK    1  A    between atoms: C_1  and  C_2
REMARK    2  A    between atoms: C_2  and  O_3
REMARK    3  A    between atoms: O_3  and  C_4
REMARK    4  A    between atoms: C_4  and  C_6
REMARK    5  A    between atoms: N_10  and  C_11
REMARK    6  A    between atoms: C_18  and  N_19
REMARK                            x       y       z     vdW  Elec       q    Type
REMARK                         _______ _______ _______ _____ _____    ______ ____
ROOT
ATOM      1  C   UNL     1       5.086   4.878  16.887  0.00  0.00    +0.000 A 
ATOM      2  S   UNL     1       4.103   3.529  17.302  0.00  0.00    +0.000 S 
ATOM      3  C   UNL     1       2.876   4.595  17.999  0.00  0.00    +0.000 A 
ATOM      4  S   UNL     1       1.381   3.962  18.403  0.00  0.00    +0.000 S 
ATOM      5  N   UNL     1       3.370   5.926  18.001  0.00  0.00    +0.000 N 
ATOM      6  C   UNL     1       4.613   6.060  17.334  0.00  0.00    +0.000 A 
ENDROOT
BRANCH   5   7
ATOM      7  C   UNL     1       2.612   7.039  18.518  0.00  0.00    +0.000 A 
ATOM      8  C   UNL     1       2.303   7.137  19.884  0.00  0.00    +0.000 A 
ATOM      9  C   UNL     1       1.543   8.199  20.389  0.00  0.00    +0.000 A 
ATOM     10  C   UNL     1       1.115   9.209  19.537  0.00  0.00    +0.000 A 
ATOM     11 BR   UNL     1       0.098  10.647  20.218  0.00  0.00    +0.000 Br
ATOM     12  C   UNL     1       1.435   9.161  18.186  0.00  0.00    +0.000 A 
ATOM     13  C   UNL     1       2.167   8.077  17.682  0.00  0.00    +0.000 A 
ENDBRANCH   5   7
BRANCH   6  14
ATOM     14  N   UNL     1       5.275   7.262  17.163  0.00  0.00    +0.000 N 
ATOM     15  H   UNL     1       6.107   7.334  17.743  0.00  0.00    +0.000 HD
ATOM     16  H   UNL     1       5.485   7.470  16.180  0.00  0.00    +0.000 HD
ENDBRANCH   6  14
BRANCH   1  17
ATOM     17  C   UNL     1       6.298   4.726  16.052  0.00  0.00    +0.000 C 
ATOM     18  O   UNL     1       6.323   4.102  14.997  0.00  0.00    +0.000 OA
BRANCH  17  19
ATOM     19  O   UNL     1       7.376   5.252  16.685  0.00  0.00    +0.000 OA
BRANCH  19  21
ATOM     20  C   UNL     1       7.854   5.672  18.988  0.00  0.00    +0.000 C 
ATOM     21  C   UNL     1       7.770   4.611  17.903  0.00  0.00    +0.000 C 
ENDBRANCH  19  21
ENDBRANCH  17  19
ENDBRANCH   1  17
TORSDOF 5
ENDMDL
MODEL 5
REMARK VINA RESULT:      -6.1      3.318      4.014
REMARK  Name = 
REMARK  6 active torsions:
REMARK  status: ('A' for Active; 'I' for Inactive)
REMARK    1  A    between atoms: C_1  and  C_2
REMARK    2  A    between atoms: C_2  and  O_3
REMARK    3  A    between atoms: O_3  and  C_4
REMARK    4  A    between atoms: C_4  and  C_6
REMARK    5  A    between atoms: N_10  and  C_11
REMARK    6  A    between atoms: C_18  and  N_19
REMARK                            x       y       z     vdW  Elec       q    Type
REMARK                         _______ _______ _______ _____ _____    ______ ____
ROOT
ATOM      1  C   UNL     1       5.766   5.192  15.327  0.00  0.00    +0.000 A 
ATOM      2  S   UNL     1       5.220   6.821  15.418  0.00  0.00    +0.000 S 
ATOM      3  C   UNL     1       4.260   6.454  16.857  0.00  0.00    +0.000 A 
ATOM      4  S   UNL     1       3.599   7.713  17.739  0.00  0.00    +0.000 S 
ATOM      5  N   UNL     1       4.305   5.054  17.096  0.00  0.00    +0.000 N 
ATOM      6  C   UNL     1       5.193   4.370  16.230  0.00  0.00    +0.000 A 
ENDROOT
BRANCH   5   7
ATOM      7  C   UNL     1       3.611   4.428  18.194  0.00  0.00    +0.000 A 
ATOM      8  C   UNL     1       2.226   4.201  18.145  0.00  0.00    +0.000 A 
ATOM      9  C   UNL     1       1.541   3.619  19.219  0.00  0.00    +0.000 A 
ATOM     10  C   UNL     1       2.241   3.213  20.347  0.00  0.00    +0.000 A 
ATOM     11 BR   UNL     1       1.320   2.420  21.793  0.00  0.00    +0.000 Br
ATOM     12  C   UNL     1       3.618   3.389  20.412  0.00  0.00    +0.000 A 
ATOM     13  C   UNL     1       4.292   4.003  19.348  0.00  0.00    +0.000 A 
ENDBRANCH   5   7
BRANCH   6  14
ATOM     14  N   UNL     1       5.444   3.011  16.293  0.00  0.00    +0.000 N 
ATOM     15  H   UNL     1       5.606   2.602  15.377  0.00  0.00    +0.000 HD
ATOM     16  H   UNL     1       6.196   2.771  16.949  0.00  0.00    +0.000 HD
ENDBRANCH   6  14
BRANCH   1  17
ATOM     17  C   UNL     1       6.824   4.782  14.377  0.00  0.00    +0.000 C 
ATOM     18  O   UNL     1       7.811   5.464  14.123  0.00  0.00    +0.000 OA
BRANCH  17  19
ATOM     19  O   UNL     1       6.473   3.633  13.747  0.00  0.00    +0.000 OA
BRANCH  19  21
ATOM     20  C   UNL     1       5.108   3.118  11.856  0.00  0.00    +0.000 C 
ATOM     21  C   UNL     1       6.443   3.679  12.316  0.00  0.00    +0.000 C 
ENDBRANCH  19  21
ENDBRANCH  17  19
ENDBRANCH   1  17
TORSDOF 5
ENDMDL
MODEL 6
REMARK VINA RESULT:      -6.0      3.257      3.866
REMARK  Name = 
REMARK  6 active torsions:
REMARK  status: ('A' for Active; 'I' for Inactive)
REMARK    1  A    between atoms: C_1  and  C_2
REMARK    2  A    between atoms: C_2  and  O_3
REMARK    3  A    between atoms: O_3  and  C_4
REMARK    4  A    between atoms: C_4  and  C_6
REMARK    5  A    between atoms: N_10  and  C_11
REMARK    6  A    between atoms: C_18  and  N_19
REMARK                            x       y       z     vdW  Elec       q    Type
REMARK                         _______ _______ _______ _____ _____    ______ ____
ROOT
ATOM      1  C   UNL     1       5.736   5.246  15.403  0.00  0.00    +0.000 A 
ATOM      2  S   UNL     1       5.160   6.866  15.437  0.00  0.00    +0.000 S 
ATOM      3  C   UNL     1       4.170   6.520  16.860  0.00  0.00    +0.000 A 
ATOM      4  S   UNL     1       3.465   7.790  17.692  0.00  0.00    +0.000 S 
ATOM      5  N   UNL     1       4.232   5.128  17.136  0.00  0.00    +0.000 N 
ATOM      6  C   UNL     1       5.154   4.437  16.312  0.00  0.00    +0.000 A 
ENDROOT
BRANCH   5   7
ATOM      7  C   UNL     1       3.520   4.518  18.232  0.00  0.00    +0.000 A 
ATOM      8  C   UNL     1       4.050   4.512  19.532  0.00  0.00    +0.000 A 
ATOM      9  C   UNL     1       3.377   3.897  20.595  0.00  0.00    +0.000 A 
ATOM     10  C   UNL     1       2.136   3.313  20.382  0.00  0.00    +0.000 A 
ATOM     11 BR   UNL     1       1.222   2.491  21.816  0.00  0.00    +0.000 Br
ATOM     12  C   UNL     1       1.565   3.334  19.115  0.00  0.00    +0.000 A 
ATOM     13  C   UNL     1       2.260   3.921  18.049  0.00  0.00    +0.000 A 
ENDBRANCH   5   7
BRANCH   6  14
ATOM     14  N   UNL     1       5.426   3.085  16.418  0.00  0.00    +0.000 N 
ATOM     15  H   UNL     1       5.023   2.672  17.254  0.00  0.00    +0.000 HD
ATOM     16  H   UNL     1       5.169   2.556  15.577  0.00  0.00    +0.000 HD
ENDBRANCH   6  14
BRANCH   1  17
ATOM     17  C   UNL     1       6.825   4.830  14.491  0.00  0.00    +0.000 C 
ATOM     18  O   UNL     1       7.816   5.515  14.258  0.00  0.00    +0.000 OA
BRANCH  17  19
ATOM     19  O   UNL     1       6.501   3.670  13.867  0.00  0.00    +0.000 OA
BRANCH  19  21
ATOM     20  C   UNL     1       5.152   3.216  11.948  0.00  0.00    +0.000 C 
ATOM     21  C   UNL     1       6.509   3.698  12.435  0.00  0.00    +0.000 C 
ENDBRANCH  19  21
ENDBRANCH  17  19
ENDBRANCH   1  17
TORSDOF 5
ENDMDL
MODEL 7
REMARK VINA RESULT:      -5.9      1.259      1.693
REMARK  Name = 
REMARK  6 active torsions:
REMARK  status: ('A' for Active; 'I' for Inactive)
REMARK    1  A    between atoms: C_1  and  C_2
REMARK    2  A    between atoms: C_2  and  O_3
REMARK    3  A    between atoms: O_3  and  C_4
REMARK    4  A    between atoms: C_4  and  C_6
REMARK    5  A    between atoms: N_10  and  C_11
REMARK    6  A    between atoms: C_18  and  N_19
REMARK                            x       y       z     vdW  Elec       q    Type
REMARK                         _______ _______ _______ _____ _____    ______ ____
ROOT
ATOM      1  C   UNL     1       4.849   4.891  18.033  0.00  0.00    +0.000 A 
ATOM      2  S   UNL     1       4.124   3.814  19.160  0.00  0.00    +0.000 S 
ATOM      3  C   UNL     1       2.881   5.009  19.553  0.00  0.00    +0.000 A 
ATOM      4  S   UNL     1       1.557   4.539  20.462  0.00  0.00    +0.000 S 
ATOM      5  N   UNL     1       3.190   6.228  18.893  0.00  0.00    +0.000 N 
ATOM      6  C   UNL     1       4.294   6.120  18.012  0.00  0.00    +0.000 A 
ENDROOT
BRANCH   5   7
ATOM      7  C   UNL     1       2.374   7.411  19.018  0.00  0.00    +0.000 A 
ATOM      8  C   UNL     1       2.041   8.188  17.898  0.00  0.00    +0.000 A 
ATOM      9  C   UNL     1       1.273   9.353  18.016  0.00  0.00    +0.000 A 
ATOM     10  C   UNL     1       0.786   9.737  19.259  0.00  0.00    +0.000 A 
ATOM     11 BR   UNL     1      -0.257  11.303  19.419  0.00  0.00    +0.000 Br
ATOM     12  C   UNL     1       1.066   8.969  20.382  0.00  0.00    +0.000 A 
ATOM     13  C   UNL     1       1.864   7.824  20.262  0.00  0.00    +0.000 A 
ENDBRANCH   5   7
BRANCH   6  14
ATOM     14  N   UNL     1       4.760   7.157  17.223  0.00  0.00    +0.000 N 
ATOM     15  H   UNL     1       4.731   6.934  16.232  0.00  0.00    +0.000 HD
ATOM     16  H   UNL     1       4.297   8.052  17.420  0.00  0.00    +0.000 HD
ENDBRANCH   6  14
BRANCH   1  17
ATOM     17  C   UNL     1       5.938   4.452  17.131  0.00  0.00    +0.000 C 
ATOM     18  O   UNL     1       7.112   4.364  17.476  0.00  0.00    +0.000 OA
BRANCH  17  19
ATOM     19  O   UNL     1       5.471   4.297  15.868  0.00  0.00    +0.000 OA
BRANCH  19  21
ATOM     20  C   UNL     1       6.170   3.847  13.628  0.00  0.00    +0.000 C 
ATOM     21  C   UNL     1       6.315   4.782  14.817  0.00  0.00    +0.000 C 
ENDBRANCH  19  21
ENDBRANCH  17  19
ENDBRANCH   1  17
TORSDOF 5
ENDMDL
MODEL 8
REMARK VINA RESULT:      -5.8      4.262      6.257
REMARK  Name = 
REMARK  6 active torsions:
REMARK  status: ('A' for Active; 'I' for Inactive)
REMARK    1  A    between atoms: C_1  and  C_2
REMARK    2  A    between atoms: C_2  and  O_3
REMARK    3  A    between atoms: O_3  and  C_4
REMARK    4  A    between atoms: C_4  and  C_6
REMARK    5  A    between atoms: N_10  and  C_11
REMARK    6  A    between atoms: C_18  and  N_19
REMARK                            x       y       z     vdW  Elec       q    Type
REMARK                         _______ _______ _______ _____ _____    ______ ____
ROOT
ATOM      1  C   UNL     1       2.865   4.325  20.279  0.00  0.00    +0.000 A 
ATOM      2  S   UNL     1       2.279   5.941  20.242  0.00  0.00    +0.000 S 
ATOM      3  C   UNL     1       3.183   6.271  18.759  0.00  0.00    +0.000 A 
ATOM      4  S   UNL     1       2.874   7.681  17.912  0.00  0.00    +0.000 S 
ATOM      5  N   UNL     1       4.003   5.150  18.461  0.00  0.00    +0.000 N 
ATOM      6  C   UNL     1       3.776   4.049  19.323  0.00  0.00    +0.000 A 
ENDROOT
BRANCH   5   7
ATOM      7  C   UNL     1       4.878   5.107  17.315  0.00  0.00    +0.000 A 
ATOM      8  C   UNL     1       6.131   5.739  17.332  0.00  0.00    +0.000 A 
ATOM      9  C   UNL     1       6.974   5.725  16.213  0.00  0.00    +0.000 A 
ATOM     10  C   UNL     1       6.592   5.037  15.069  0.00  0.00    +0.000 A 
ATOM     11 BR   UNL     1       7.731   5.010  13.563  0.00  0.00    +0.000 Br
ATOM     12  C   UNL     1       5.375   4.369  15.033  0.00  0.00    +0.000 A 
ATOM     13  C   UNL     1       4.521   4.416  16.143  0.00  0.00    +0.000 A 
ENDBRANCH   5   7
BRANCH   6  14
ATOM     14  N   UNL     1       4.419   2.830  19.208  0.00  0.00    +0.000 N 
ATOM     15  H   UNL     1       3.777   2.071  18.993  0.00  0.00    +0.000 HD
ATOM     16  H   UNL     1       5.208   2.851  18.552  0.00  0.00    +0.000 HD
ENDBRANCH   6  14
BRANCH   1  17
ATOM     17  C   UNL     1       2.340   3.332  21.243  0.00  0.00    +0.000 C 
ATOM     18  O   UNL     1       2.538   3.388  22.452  0.00  0.00    +0.000 OA
BRANCH  17  19
ATOM     19  O   UNL     1       1.741   2.308  20.587  0.00  0.00    +0.000 OA
BRANCH  19  21
ATOM     20  C   UNL     1       0.763   2.157  18.412  0.00  0.00    +0.000 C 
ATOM     21  C   UNL     1       0.564   2.637  19.841  0.00  0.00    +0.000 C 
ENDBRANCH  19  21
ENDBRANCH  17  19
ENDBRANCH   1  17
TORSDOF 5
ENDMDL
MODEL 9
REMARK VINA RESULT:      -5.8      4.261      6.273
REMARK  Name = 
REMARK  6 active torsions:
REMARK  status: ('A' for Active; 'I' for Inactive)
REMARK    1  A    between atoms: C_1  and  C_2
REMARK    2  A    between atoms: C_2  and  O_3
REMARK    3  A    between atoms: O_3  and  C_4
REMARK    4  A    between atoms: C_4  and  C_6
REMARK    5  A    between atoms: N_10  and  C_11
REMARK    6  A    between atoms: C_18  and  N_19
REMARK                            x       y       z     vdW  Elec       q    Type
REMARK                         _______ _______ _______ _____ _____    ______ ____
ROOT
ATOM      1  C   UNL     1       3.092   3.939  20.218  0.00  0.00    +0.000 A 
ATOM      2  S   UNL     1       2.420   5.522  20.262  0.00  0.00    +0.000 S 
ATOM      3  C   UNL     1       3.285   5.966  18.785  0.00  0.00    +0.000 A 
ATOM      4  S   UNL     1       2.890   7.394  18.008  0.00  0.00    +0.000 S 
ATOM      5  N   UNL     1       4.160   4.906  18.428  0.00  0.00    +0.000 N 
ATOM      6  C   UNL     1       4.005   3.756  19.242  0.00  0.00    +0.000 A 
ENDROOT
BRANCH   5   7
ATOM      7  C   UNL     1       5.021   4.961  17.272  0.00  0.00    +0.000 A 
ATOM      8  C   UNL     1       4.651   4.360  16.058  0.00  0.00    +0.000 A 
ATOM      9  C   UNL     1       5.494   4.386  14.941  0.00  0.00    +0.000 A 
ATOM     10  C   UNL     1       6.709   5.055  15.007  0.00  0.00    +0.000 A 
ATOM     11 BR   UNL     1       7.844   5.099  13.498  0.00  0.00    +0.000 Br
ATOM     12  C   UNL     1       7.089   5.692  16.182  0.00  0.00    +0.000 A 
ATOM     13  C   UNL     1       6.256   5.633  17.307  0.00  0.00    +0.000 A 
ENDBRANCH   5   7
BRANCH   6  14
ATOM     14  N   UNL     1       4.710   2.580  19.064  0.00  0.00    +0.000 N 
ATOM     15  H   UNL     1       4.634   2.220  18.116  0.00  0.00    +0.000 HD
ATOM     16  H   UNL     1       5.690   2.649  19.361  0.00  0.00    +0.000 HD
ENDBRANCH   6  14
BRANCH   1  17
ATOM     17  C   UNL     1       2.635   2.877  21.142  0.00  0.00    +0.000 C 
ATOM     18  O   UNL     1       3.363   2.330  21.963  0.00  0.00    +0.000 OA
BRANCH  17  19
ATOM     19  O   UNL     1       1.359   2.519  20.854  0.00  0.00    +0.000 OA
BRANCH  19  21
ATOM     20  C   UNL     1       0.427   2.686  18.661  0.00  0.00    +0.000 C 
ATOM     21  C   UNL     1       1.166   1.787  19.638  0.00  0.00    +0.000 C 
ENDBRANCH  19  21
ENDBRANCH  17  19
ENDBRANCH   1  17
TORSDOF 5
ENDMDL
