MODEL 1
REMARK VINA RESULT:      -7.9      0.000      0.000
REMARK  Name = 
REMARK  10 active torsions:
REMARK  status: ('A' for Active; 'I' for Inactive)
REMARK    1  A    between atoms: C_1  and  C_2
REMARK    2  A    between atoms: C_2  and  O_3
REMARK    3  A    between atoms: O_3  and  C_4
REMARK    4  A    between atoms: C_7  and  C_8
REMARK    5  A    between atoms: C_9  and  C_10
REMARK    6  A    between atoms: C_13  and  C_14
REMARK    7  A    between atoms: C_14  and  C_15
REMARK    8  A    between atoms: C_15  and  C_16
REMARK    9  A    between atoms: C_15  and  N_17
REMARK   10  A    between atoms: C_18  and  C_20
REMARK                            x       y       z     vdW  Elec       q    Type
REMARK                         _______ _______ _______ _____ _____    ______ ____
ROOT
ATOM      1  C   UNL     1       7.581   7.720  17.983  0.00  0.00    +0.000 A 
ATOM      2  C   UNL     1       7.994   6.632  18.750  0.00  0.00    +0.000 A 
ATOM      3  C   UNL     1       7.319   5.408  18.649  0.00  0.00    +0.000 A 
ATOM      4  C   UNL     1       6.215   5.264  17.794  0.00  0.00    +0.000 A 
ATOM      5  C   UNL     1       5.790   6.381  17.058  0.00  0.00    +0.000 A 
ATOM      6  C   UNL     1       6.477   7.597  17.143  0.00  0.00    +0.000 A 
ENDROOT
BRANCH   1   8
ATOM      7  C   UNL     1       8.872  10.011  18.046  0.00  0.00    +0.000 C 
ATOM      8  C   UNL     1       8.292   8.962  18.030  0.00  0.00    +0.000 C 
BRANCH   7  12
ATOM      9  C   UNL     1      11.028  13.642  18.030  0.00  0.00    +0.000 A 
ATOM     10  C   UNL     1      11.676  12.438  18.306  0.00  0.00    +0.000 A 
ATOM     11  C   UNL     1      10.961  11.240  18.306  0.00  0.00    +0.000 A 
ATOM     12  C   UNL     1       9.591  11.246  18.052  0.00  0.00    +0.000 A 
ATOM     13  C   UNL     1       8.931  12.454  17.802  0.00  0.00    +0.000 A 
ATOM     14  C   UNL     1       9.650  13.653  17.801  0.00  0.00    +0.000 A 
BRANCH   9  15
ATOM     15  O   UNL     1      11.830  14.748  18.012  0.00  0.00    +0.000 OA
BRANCH  15  17
ATOM     16  C   UNL     1      12.159  17.059  17.538  0.00  0.00    +0.000 C 
ATOM     17  C   UNL     1      11.383  15.811  17.169  0.00  0.00    +0.000 C 
ENDBRANCH  15  17
ENDBRANCH   9  15
ENDBRANCH   7  12
ENDBRANCH   1   8
BRANCH   4  18
ATOM     18  C   UNL     1       5.529   3.920  17.622  0.00  0.00    +0.000 C 
BRANCH  18  19
ATOM     19  C   UNL     1       4.277   3.706  18.506  0.00  0.00    +0.000 C 
ATOM     20  C   UNL     1       4.540   2.700  19.624  0.00  0.00    +0.000 C 
BRANCH  19  21
ATOM     21  N   UNL     1       3.782   4.964  19.077  0.00  0.00    +0.000 N 
ATOM     22  C   UNL     1       2.561   5.503  18.715  0.00  0.00    +0.000 C 
ATOM     23  O   UNL     1       1.841   4.980  17.869  0.00  0.00    +0.000 OA
ATOM     24  H   UNL     1       4.327   5.482  19.760  0.00  0.00    +0.000 HD
BRANCH  22  25
ATOM     25  C   UNL     1       2.182   6.709  19.402  0.00  0.00    +0.000 A 
ATOM     26  N   UNL     1       2.123   7.935  18.916  0.00  0.00    +0.000 NA
ATOM     27  C   UNL     1       1.658   8.663  19.983  0.00  0.00    +0.000 A 
ATOM     28  N   UNL     1       1.451   7.969  21.104  0.00  0.00    +0.000 NA
ATOM     29  N   UNL     1       1.799   6.731  20.714  0.00  0.00    +0.000 N 
ATOM     30  H   UNL     1       1.741   5.951  21.361  0.00  0.00    +0.000 HD
ENDBRANCH  22  25
ENDBRANCH  19  21
ENDBRANCH  18  19
ENDBRANCH   4  18
TORSDOF 8
ENDMDL
MODEL 2
REMARK VINA RESULT:      -7.9      4.472      8.645
REMARK  Name = 
REMARK  10 active torsions:
REMARK  status: ('A' for Active; 'I' for Inactive)
REMARK    1  A    between atoms: C_1  and  C_2
REMARK    2  A    between atoms: C_2  and  O_3
REMARK    3  A    between atoms: O_3  and  C_4
REMARK    4  A    between atoms: C_7  and  C_8
REMARK    5  A    between atoms: C_9  and  C_10
REMARK    6  A    between atoms: C_13  and  C_14
REMARK    7  A    between atoms: C_14  and  C_15
REMARK    8  A    between atoms: C_15  and  C_16
REMARK    9  A    between atoms: C_15  and  N_17
REMARK   10  A    between atoms: C_18  and  C_20
REMARK                            x       y       z     vdW  Elec       q    Type
REMARK                         _______ _______ _______ _____ _____    ______ ____
ROOT
ATOM      1  C   UNL     1       2.668   6.730  19.228  0.00  0.00    +0.000 A 
ATOM      2  C   UNL     1       3.047   6.927  17.901  0.00  0.00    +0.000 A 
ATOM      3  C   UNL     1       3.736   5.919  17.214  0.00  0.00    +0.000 A 
ATOM      4  C   UNL     1       4.070   4.713  17.850  0.00  0.00    +0.000 A 
ATOM      5  C   UNL     1       3.713   4.548  19.198  0.00  0.00    +0.000 A 
ATOM      6  C   UNL     1       3.006   5.546  19.878  0.00  0.00    +0.000 A 
ENDROOT
BRANCH   1   8
ATOM      7  C   UNL     1       1.307   8.567  20.530  0.00  0.00    +0.000 C 
ATOM      8  C   UNL     1       1.914   7.724  19.930  0.00  0.00    +0.000 C 
BRANCH   7  12
ATOM      9  C   UNL     1      -0.834  11.454  22.746  0.00  0.00    +0.000 A 
ATOM     10  C   UNL     1      -0.842  10.115  23.138  0.00  0.00    +0.000 A 
ATOM     11  C   UNL     1      -0.130   9.166  22.405  0.00  0.00    +0.000 A 
ATOM     12  C   UNL     1       0.574   9.548  21.265  0.00  0.00    +0.000 A 
ATOM     13  C   UNL     1       0.564  10.885  20.853  0.00  0.00    +0.000 A 
ATOM     14  C   UNL     1      -0.149  11.836  21.589  0.00  0.00    +0.000 A 
BRANCH   9  15
ATOM     15  O   UNL     1      -1.526  12.306  23.559  0.00  0.00    +0.000 OA
BRANCH  15  17
ATOM     16  C   UNL     1      -3.522  13.025  22.474  0.00  0.00    +0.000 C 
ATOM     17  C   UNL     1      -2.944  12.133  23.555  0.00  0.00    +0.000 C 
ENDBRANCH  15  17
ENDBRANCH   9  15
ENDBRANCH   7  12
ENDBRANCH   1   8
BRANCH   4  18
ATOM     18  C   UNL     1       4.747   3.588  17.088  0.00  0.00    +0.000 C 
BRANCH  18  19
ATOM     19  C   UNL     1       6.067   3.978  16.381  0.00  0.00    +0.000 C 
ATOM     20  C   UNL     1       5.962   3.829  14.866  0.00  0.00    +0.000 C 
BRANCH  19  21
ATOM     21  N   UNL     1       6.491   5.342  16.717  0.00  0.00    +0.000 N 
ATOM     22  C   UNL     1       7.387   5.600  17.739  0.00  0.00    +0.000 C 
ATOM     23  O   UNL     1       7.847   4.708  18.446  0.00  0.00    +0.000 OA
ATOM     24  H   UNL     1       6.136   6.144  16.206  0.00  0.00    +0.000 HD
BRANCH  22  25
ATOM     25  C   UNL     1       7.754   6.981  17.913  0.00  0.00    +0.000 A 
ATOM     26  N   UNL     1       7.398   8.015  17.174  0.00  0.00    +0.000 NA
ATOM     27  C   UNL     1       7.987   9.070  17.825  0.00  0.00    +0.000 A 
ATOM     28  N   UNL     1       8.705   8.751  18.903  0.00  0.00    +0.000 NA
ATOM     29  N   UNL     1       8.550   7.417  18.936  0.00  0.00    +0.000 N 
ATOM     30  H   UNL     1       8.983   6.865  19.670  0.00  0.00    +0.000 HD
ENDBRANCH  22  25
ENDBRANCH  19  21
ENDBRANCH  18  19
ENDBRANCH   4  18
TORSDOF 8
ENDMDL
MODEL 3
REMARK VINA RESULT:      -7.8      1.198      1.356
REMARK  Name = 
REMARK  10 active torsions:
REMARK  status: ('A' for Active; 'I' for Inactive)
REMARK    1  A    between atoms: C_1  and  C_2
REMARK    2  A    between atoms: C_2  and  O_3
REMARK    3  A    between atoms: O_3  and  C_4
REMARK    4  A    between atoms: C_7  and  C_8
REMARK    5  A    between atoms: C_9  and  C_10
REMARK    6  A    between atoms: C_13  and  C_14
REMARK    7  A    between atoms: C_14  and  C_15
REMARK    8  A    between atoms: C_15  and  C_16
REMARK    9  A    between atoms: C_15  and  N_17
REMARK   10  A    between atoms: C_18  and  C_20
REMARK                            x       y       z     vdW  Elec       q    Type
REMARK                         _______ _______ _______ _____ _____    ______ ____
ROOT
ATOM      1  C   UNL     1       7.553   7.372  17.935  0.00  0.00    +0.000 A 
ATOM      2  C   UNL     1       7.806   6.137  18.531  0.00  0.00    +0.000 A 
ATOM      3  C   UNL     1       7.098   5.002  18.117  0.00  0.00    +0.000 A 
ATOM      4  C   UNL     1       6.117   5.091  17.115  0.00  0.00    +0.000 A 
ATOM      5  C   UNL     1       5.849   6.349  16.553  0.00  0.00    +0.000 A 
ATOM      6  C   UNL     1       6.572   7.479  16.952  0.00  0.00    +0.000 A 
ENDROOT
BRANCH   1   8
ATOM      7  C   UNL     1       8.915   9.521  18.602  0.00  0.00    +0.000 C 
ATOM      8  C   UNL     1       8.305   8.532  18.304  0.00  0.00    +0.000 C 
BRANCH   7  12
ATOM      9  C   UNL     1      11.096  13.012  19.544  0.00  0.00    +0.000 A 
ATOM     10  C   UNL     1      10.969  12.596  18.219  0.00  0.00    +0.000 A 
ATOM     11  C   UNL     1      10.243  11.445  17.912  0.00  0.00    +0.000 A 
ATOM     12  C   UNL     1       9.663  10.693  18.931  0.00  0.00    +0.000 A 
ATOM     13  C   UNL     1       9.811  11.090  20.264  0.00  0.00    +0.000 A 
ATOM     14  C   UNL     1      10.537  12.245  20.570  0.00  0.00    +0.000 A 
BRANCH   9  15
ATOM     15  O   UNL     1      11.788  14.175  19.729  0.00  0.00    +0.000 OA
BRANCH  15  17
ATOM     16  C   UNL     1      10.527  16.143  19.268  0.00  0.00    +0.000 C 
ATOM     17  C   UNL     1      11.568  15.178  18.736  0.00  0.00    +0.000 C 
ENDBRANCH  15  17
ENDBRANCH   9  15
ENDBRANCH   7  12
ENDBRANCH   1   8
BRANCH   4  18
ATOM     18  C   UNL     1       5.402   3.851  16.608  0.00  0.00    +0.000 C 
BRANCH  18  19
ATOM     19  C   UNL     1       3.983   3.632  17.185  0.00  0.00    +0.000 C 
ATOM     20  C   UNL     1       3.861   2.284  17.890  0.00  0.00    +0.000 C 
BRANCH  19  21
ATOM     21  N   UNL     1       3.586   4.708  18.100  0.00  0.00    +0.000 N 
ATOM     22  C   UNL     1       2.261   5.049  18.299  0.00  0.00    +0.000 C 
ATOM     23  O   UNL     1       1.345   4.498  17.694  0.00  0.00    +0.000 OA
ATOM     24  H   UNL     1       4.279   5.240  18.618  0.00  0.00    +0.000 HD
BRANCH  22  25
ATOM     25  C   UNL     1       2.021   6.083  19.270  0.00  0.00    +0.000 A 
ATOM     26  N   UNL     1       2.271   7.375  19.159  0.00  0.00    +0.000 NA
ATOM     27  C   UNL     1       1.799   7.880  20.345  0.00  0.00    +0.000 A 
ATOM     28  N   UNL     1       1.297   6.979  21.192  0.00  0.00    +0.000 NA
ATOM     29  N   UNL     1       1.456   5.843  20.492  0.00  0.00    +0.000 N 
ATOM     30  H   UNL     1       1.153   4.954  20.876  0.00  0.00    +0.000 HD
ENDBRANCH  22  25
ENDBRANCH  19  21
ENDBRANCH  18  19
ENDBRANCH   4  18
TORSDOF 8
ENDMDL
MODEL 4
REMARK VINA RESULT:      -7.7      0.686      1.576
REMARK  Name = 
REMARK  10 active torsions:
REMARK  status: ('A' for Active; 'I' for Inactive)
REMARK    1  A    between atoms: C_1  and  C_2
REMARK    2  A    between atoms: C_2  and  O_3
REMARK    3  A    between atoms: O_3  and  C_4
REMARK    4  A    between atoms: C_7  and  C_8
REMARK    5  A    between atoms: C_9  and  C_10
REMARK    6  A    between atoms: C_13  and  C_14
REMARK    7  A    between atoms: C_14  and  C_15
REMARK    8  A    between atoms: C_15  and  C_16
REMARK    9  A    between atoms: C_15  and  N_17
REMARK   10  A    between atoms: C_18  and  C_20
REMARK                            x       y       z     vdW  Elec       q    Type
REMARK                         _______ _______ _______ _____ _____    ______ ____
ROOT
ATOM      1  C   UNL     1       7.451   7.494  17.833  0.00  0.00    +0.000 A 
ATOM      2  C   UNL     1       6.417   7.382  16.904  0.00  0.00    +0.000 A 
ATOM      3  C   UNL     1       5.739   6.165  16.755  0.00  0.00    +0.000 A 
ATOM      4  C   UNL     1       6.098   5.043  17.519  0.00  0.00    +0.000 A 
ATOM      5  C   UNL     1       7.165   5.164  18.422  0.00  0.00    +0.000 A 
ATOM      6  C   UNL     1       7.829   6.385  18.586  0.00  0.00    +0.000 A 
ENDROOT
BRANCH   1   8
ATOM      7  C   UNL     1       8.682   9.791  18.185  0.00  0.00    +0.000 C 
ATOM      8  C   UNL     1       8.118   8.743  18.040  0.00  0.00    +0.000 C 
BRANCH   7  12
ATOM      9  C   UNL     1      10.705  13.454  18.750  0.00  0.00    +0.000 A 
ATOM     10  C   UNL     1       9.578  13.390  17.931  0.00  0.00    +0.000 A 
ATOM     11  C   UNL     1       8.910  12.179  17.750  0.00  0.00    +0.000 A 
ATOM     12  C   UNL     1       9.381  11.023  18.370  0.00  0.00    +0.000 A 
ATOM     13  C   UNL     1      10.527  11.077  19.171  0.00  0.00    +0.000 A 
ATOM     14  C   UNL     1      11.195  12.292  19.352  0.00  0.00    +0.000 A 
BRANCH   9  15
ATOM     15  O   UNL     1      11.255  14.697  18.893  0.00  0.00    +0.000 OA
BRANCH  15  17
ATOM     16  C   UNL     1      11.616  16.232  17.108  0.00  0.00    +0.000 C 
ATOM     17  C   UNL     1      10.623  15.732  18.139  0.00  0.00    +0.000 C 
ENDBRANCH  15  17
ENDBRANCH   9  15
ENDBRANCH   7  12
ENDBRANCH   1   8
BRANCH   4  18
ATOM     18  C   UNL     1       5.315   3.745  17.417  0.00  0.00    +0.000 C 
BRANCH  18  19
ATOM     19  C   UNL     1       4.135   3.613  18.409  0.00  0.00    +0.000 C 
ATOM     20  C   UNL     1       4.510   2.771  19.625  0.00  0.00    +0.000 C 
BRANCH  19  21
ATOM     21  N   UNL     1       3.632   4.920  18.846  0.00  0.00    +0.000 N 
ATOM     22  C   UNL     1       2.328   5.100  19.269  0.00  0.00    +0.000 C 
ATOM     23  O   UNL     1       1.507   4.186  19.266  0.00  0.00    +0.000 OA
ATOM     24  H   UNL     1       4.232   5.740  18.851  0.00  0.00    +0.000 HD
BRANCH  22  25
ATOM     25  C   UNL     1       1.995   6.424  19.725  0.00  0.00    +0.000 A 
ATOM     26  N   UNL     1       1.478   6.776  20.888  0.00  0.00    +0.000 NA
ATOM     27  C   UNL     1       1.426   8.144  20.795  0.00  0.00    +0.000 A 
ATOM     28  N   UNL     1       1.854   8.658  19.640  0.00  0.00    +0.000 NA
ATOM     29  N   UNL     1       2.203   7.546  18.972  0.00  0.00    +0.000 N 
ATOM     30  H   UNL     1       2.586   7.607  18.034  0.00  0.00    +0.000 HD
ENDBRANCH  22  25
ENDBRANCH  19  21
ENDBRANCH  18  19
ENDBRANCH   4  18
TORSDOF 8
ENDMDL
MODEL 5
REMARK VINA RESULT:      -7.6      4.110      9.666
REMARK  Name = 
REMARK  10 active torsions:
REMARK  status: ('A' for Active; 'I' for Inactive)
REMARK    1  A    between atoms: C_1  and  C_2
REMARK    2  A    between atoms: C_2  and  O_3
REMARK    3  A    between atoms: O_3  and  C_4
REMARK    4  A    between atoms: C_7  and  C_8
REMARK    5  A    between atoms: C_9  and  C_10
REMARK    6  A    between atoms: C_13  and  C_14
REMARK    7  A    between atoms: C_14  and  C_15
REMARK    8  A    between atoms: C_15  and  C_16
REMARK    9  A    between atoms: C_15  and  N_17
REMARK   10  A    between atoms: C_18  and  C_20
REMARK                            x       y       z     vdW  Elec       q    Type
REMARK                         _______ _______ _______ _____ _____    ______ ____
ROOT
ATOM      1  C   UNL     1       9.297  10.260  18.755  0.00  0.00    +0.000 A 
ATOM      2  C   UNL     1       9.476  10.543  20.108  0.00  0.00    +0.000 A 
ATOM      3  C   UNL     1      10.197  11.680  20.496  0.00  0.00    +0.000 A 
ATOM      4  C   UNL     1      10.760  12.537  19.536  0.00  0.00    +0.000 A 
ATOM      5  C   UNL     1      10.601  12.215  18.179  0.00  0.00    +0.000 A 
ATOM      6  C   UNL     1       9.863  11.091  17.792  0.00  0.00    +0.000 A 
ENDROOT
BRANCH   1   8
ATOM      7  C   UNL     1       7.865   8.180  18.018  0.00  0.00    +0.000 C 
ATOM      8  C   UNL     1       8.517   9.134  18.339  0.00  0.00    +0.000 C 
BRANCH   7  12
ATOM      9  C   UNL     1       5.646   4.771  16.886  0.00  0.00    +0.000 A 
ATOM     10  C   UNL     1       6.826   4.634  17.617  0.00  0.00    +0.000 A 
ATOM     11  C   UNL     1       7.553   5.763  17.992  0.00  0.00    +0.000 A 
ATOM     12  C   UNL     1       7.115   7.032  17.619  0.00  0.00    +0.000 A 
ATOM     13  C   UNL     1       5.947   7.173  16.862  0.00  0.00    +0.000 A 
ATOM     14  C   UNL     1       5.218   6.040  16.487  0.00  0.00    +0.000 A 
BRANCH   9  15
ATOM     15  O   UNL     1       4.989   3.605  16.610  0.00  0.00    +0.000 OA
BRANCH  15  17
ATOM     16  C   UNL     1       3.603   2.217  17.962  0.00  0.00    +0.000 C 
ATOM     17  C   UNL     1       3.675   3.501  17.160  0.00  0.00    +0.000 C 
ENDBRANCH  15  17
ENDBRANCH   9  15
ENDBRANCH   7  12
ENDBRANCH   1   8
BRANCH   4  18
ATOM     18  C   UNL     1      11.474  13.812  19.949  0.00  0.00    +0.000 C 
BRANCH  18  19
ATOM     19  C   UNL     1      10.558  14.920  20.520  0.00  0.00    +0.000 C 
ATOM     20  C   UNL     1      11.244  16.283  20.508  0.00  0.00    +0.000 C 
BRANCH  19  21
ATOM     21  N   UNL     1       9.279  15.002  19.806  0.00  0.00    +0.000 N 
ATOM     22  C   UNL     1       8.072  14.750  20.433  0.00  0.00    +0.000 C 
ATOM     23  O   UNL     1       8.005  14.407  21.610  0.00  0.00    +0.000 OA
ATOM     24  H   UNL     1       9.241  15.247  18.821  0.00  0.00    +0.000 HD
BRANCH  22  25
ATOM     25  C   UNL     1       6.897  14.928  19.621  0.00  0.00    +0.000 A 
ATOM     26  N   UNL     1       5.725  15.417  19.984  0.00  0.00    +0.000 NA
ATOM     27  C   UNL     1       5.014  15.403  18.811  0.00  0.00    +0.000 A 
ATOM     28  N   UNL     1       5.662  14.913  17.752  0.00  0.00    +0.000 NA
ATOM     29  N   UNL     1       6.854  14.609  18.292  0.00  0.00    +0.000 N 
ATOM     30  H   UNL     1       7.593  14.213  17.720  0.00  0.00    +0.000 HD
ENDBRANCH  22  25
ENDBRANCH  19  21
ENDBRANCH  18  19
ENDBRANCH   4  18
TORSDOF 8
ENDMDL
MODEL 6
REMARK VINA RESULT:      -7.6      1.024      1.393
REMARK  Name = 
REMARK  10 active torsions:
REMARK  status: ('A' for Active; 'I' for Inactive)
REMARK    1  A    between atoms: C_1  and  C_2
REMARK    2  A    between atoms: C_2  and  O_3
REMARK    3  A    between atoms: O_3  and  C_4
REMARK    4  A    between atoms: C_7  and  C_8
REMARK    5  A    between atoms: C_9  and  C_10
REMARK    6  A    between atoms: C_13  and  C_14
REMARK    7  A    between atoms: C_14  and  C_15
REMARK    8  A    between atoms: C_15  and  C_16
REMARK    9  A    between atoms: C_15  and  N_17
REMARK   10  A    between atoms: C_18  and  C_20
REMARK                            x       y       z     vdW  Elec       q    Type
REMARK                         _______ _______ _______ _____ _____    ______ ____
ROOT
ATOM      1  C   UNL     1       7.688   7.736  17.930  0.00  0.00    +0.000 A 
ATOM      2  C   UNL     1       6.617   7.710  17.038  0.00  0.00    +0.000 A 
ATOM      3  C   UNL     1       5.903   6.522  16.836  0.00  0.00    +0.000 A 
ATOM      4  C   UNL     1       6.261   5.343  17.510  0.00  0.00    +0.000 A 
ATOM      5  C   UNL     1       7.365   5.379  18.376  0.00  0.00    +0.000 A 
ATOM      6  C   UNL     1       8.065   6.571  18.594  0.00  0.00    +0.000 A 
ENDROOT
BRANCH   1   8
ATOM      7  C   UNL     1       9.007   9.964  18.393  0.00  0.00    +0.000 C 
ATOM      8  C   UNL     1       8.395   8.952  18.193  0.00  0.00    +0.000 C 
BRANCH   7  12
ATOM      9  C   UNL     1      11.188  13.502  19.138  0.00  0.00    +0.000 A 
ATOM     10  C   UNL     1      11.588  12.626  18.127  0.00  0.00    +0.000 A 
ATOM     11  C   UNL     1      10.862  11.461  17.882  0.00  0.00    +0.000 A 
ATOM     12  C   UNL     1       9.747  11.156  18.661  0.00  0.00    +0.000 A 
ATOM     13  C   UNL     1       9.359  12.016  19.693  0.00  0.00    +0.000 A 
ATOM     14  C   UNL     1      10.087  13.185  19.937  0.00  0.00    +0.000 A 
BRANCH   9  15
ATOM     15  O   UNL     1      11.943  14.634  19.263  0.00  0.00    +0.000 OA
BRANCH  15  17
ATOM     16  C   UNL     1      11.086  16.822  19.655  0.00  0.00    +0.000 C 
ATOM     17  C   UNL     1      11.534  15.526  20.301  0.00  0.00    +0.000 C 
ENDBRANCH  15  17
ENDBRANCH   9  15
ENDBRANCH   7  12
ENDBRANCH   1   8
BRANCH   4  18
ATOM     18  C   UNL     1       5.442   4.074  17.354  0.00  0.00    +0.000 C 
BRANCH  18  19
ATOM     19  C   UNL     1       4.291   3.908  18.375  0.00  0.00    +0.000 C 
ATOM     20  C   UNL     1       4.712   3.054  19.568  0.00  0.00    +0.000 C 
BRANCH  19  21
ATOM     21  N   UNL     1       3.780   5.200  18.846  0.00  0.00    +0.000 N 
ATOM     22  C   UNL     1       2.447   5.391  19.160  0.00  0.00    +0.000 C 
ATOM     23  O   UNL     1       1.610   4.503  19.026  0.00  0.00    +0.000 OA
ATOM     24  H   UNL     1       4.396   6.001  18.956  0.00  0.00    +0.000 HD
BRANCH  22  25
ATOM     25  C   UNL     1       2.105   6.694  19.666  0.00  0.00    +0.000 A 
ATOM     26  N   UNL     1       2.147   7.850  19.028  0.00  0.00    +0.000 NA
ATOM     27  C   UNL     1       1.668   8.731  19.964  0.00  0.00    +0.000 A 
ATOM     28  N   UNL     1       1.358   8.199  21.148  0.00  0.00    +0.000 NA
ATOM     29  N   UNL     1       1.651   6.904  20.939  0.00  0.00    +0.000 N 
ATOM     30  H   UNL     1       1.510   6.218  21.673  0.00  0.00    +0.000 HD
ENDBRANCH  22  25
ENDBRANCH  19  21
ENDBRANCH  18  19
ENDBRANCH   4  18
TORSDOF 8
ENDMDL
MODEL 7
REMARK VINA RESULT:      -7.6      4.469     10.055
REMARK  Name = 
REMARK  10 active torsions:
REMARK  status: ('A' for Active; 'I' for Inactive)
REMARK    1  A    between atoms: C_1  and  C_2
REMARK    2  A    between atoms: C_2  and  O_3
REMARK    3  A    between atoms: O_3  and  C_4
REMARK    4  A    between atoms: C_7  and  C_8
REMARK    5  A    between atoms: C_9  and  C_10
REMARK    6  A    between atoms: C_13  and  C_14
REMARK    7  A    between atoms: C_14  and  C_15
REMARK    8  A    between atoms: C_15  and  C_16
REMARK    9  A    between atoms: C_15  and  N_17
REMARK   10  A    between atoms: C_18  and  C_20
REMARK                            x       y       z     vdW  Elec       q    Type
REMARK                         _______ _______ _______ _____ _____    ______ ____
ROOT
ATOM      1  C   UNL     1       9.300  10.504  18.783  0.00  0.00    +0.000 A 
ATOM      2  C   UNL     1       9.860  11.323  17.805  0.00  0.00    +0.000 A 
ATOM      3  C   UNL     1      10.567  12.475  18.177  0.00  0.00    +0.000 A 
ATOM      4  C   UNL     1      10.705  12.828  19.529  0.00  0.00    +0.000 A 
ATOM      5  C   UNL     1      10.102  12.011  20.498  0.00  0.00    +0.000 A 
ATOM      6  C   UNL     1       9.415  10.850  20.127  0.00  0.00    +0.000 A 
ENDROOT
BRANCH   1   8
ATOM      7  C   UNL     1       8.041   8.295  18.108  0.00  0.00    +0.000 C 
ATOM      8  C   UNL     1       8.623   9.294  18.427  0.00  0.00    +0.000 C 
BRANCH   7  12
ATOM      9  C   UNL     1       5.940   4.797  17.020  0.00  0.00    +0.000 A 
ATOM     10  C   UNL     1       5.476   6.051  16.623  0.00  0.00    +0.000 A 
ATOM     11  C   UNL     1       6.175   7.204  16.981  0.00  0.00    +0.000 A 
ATOM     12  C   UNL     1       7.329   7.108  17.756  0.00  0.00    +0.000 A 
ATOM     13  C   UNL     1       7.783   5.855  18.180  0.00  0.00    +0.000 A 
ATOM     14  C   UNL     1       7.082   4.700  17.820  0.00  0.00    +0.000 A 
BRANCH   9  15
ATOM     15  O   UNL     1       5.206   3.734  16.578  0.00  0.00    +0.000 OA
BRANCH  15  17
ATOM     16  C   UNL     1       3.751   2.935  18.287  0.00  0.00    +0.000 C 
ATOM     17  C   UNL     1       3.840   3.723  16.995  0.00  0.00    +0.000 C 
ENDBRANCH  15  17
ENDBRANCH   9  15
ENDBRANCH   7  12
ENDBRANCH   1   8
BRANCH   4  18
ATOM     18  C   UNL     1      11.536  14.031  19.941  0.00  0.00    +0.000 C 
BRANCH  18  19
ATOM     19  C   UNL     1      10.769  15.113  20.739  0.00  0.00    +0.000 C 
ATOM     20  C   UNL     1      11.642  16.334  21.017  0.00  0.00    +0.000 C 
BRANCH  19  21
ATOM     21  N   UNL     1       9.536  15.529  20.062  0.00  0.00    +0.000 N 
ATOM     22  C   UNL     1       8.340  15.674  20.740  0.00  0.00    +0.000 C 
ATOM     23  O   UNL     1       8.234  15.426  21.938  0.00  0.00    +0.000 OA
ATOM     24  H   UNL     1       9.524  15.724  19.065  0.00  0.00    +0.000 HD
BRANCH  22  25
ATOM     25  C   UNL     1       7.230  16.146  19.956  0.00  0.00    +0.000 A 
ATOM     26  N   UNL     1       6.456  15.449  19.144  0.00  0.00    +0.000 NA
ATOM     27  C   UNL     1       5.546  16.383  18.715  0.00  0.00    +0.000 A 
ATOM     28  N   UNL     1       5.724  17.618  19.191  0.00  0.00    +0.000 NA
ATOM     29  N   UNL     1       6.805  17.445  19.971  0.00  0.00    +0.000 N 
ATOM     30  H   UNL     1       7.193  18.223  20.493  0.00  0.00    +0.000 HD
ENDBRANCH  22  25
ENDBRANCH  19  21
ENDBRANCH  18  19
ENDBRANCH   4  18
TORSDOF 8
ENDMDL
MODEL 8
REMARK VINA RESULT:      -7.6      1.239      1.672
REMARK  Name = 
REMARK  10 active torsions:
REMARK  status: ('A' for Active; 'I' for Inactive)
REMARK    1  A    between atoms: C_1  and  C_2
REMARK    2  A    between atoms: C_2  and  O_3
REMARK    3  A    between atoms: O_3  and  C_4
REMARK    4  A    between atoms: C_7  and  C_8
REMARK    5  A    between atoms: C_9  and  C_10
REMARK    6  A    between atoms: C_13  and  C_14
REMARK    7  A    between atoms: C_14  and  C_15
REMARK    8  A    between atoms: C_15  and  C_16
REMARK    9  A    between atoms: C_15  and  N_17
REMARK   10  A    between atoms: C_18  and  C_20
REMARK                            x       y       z     vdW  Elec       q    Type
REMARK                         _______ _______ _______ _____ _____    ______ ____
ROOT
ATOM      1  C   UNL     1       7.199   7.237  17.614  0.00  0.00    +0.000 A 
ATOM      2  C   UNL     1       6.128   7.160  16.725  0.00  0.00    +0.000 A 
ATOM      3  C   UNL     1       5.452   5.946  16.548  0.00  0.00    +0.000 A 
ATOM      4  C   UNL     1       5.849   4.793  17.244  0.00  0.00    +0.000 A 
ATOM      5  C   UNL     1       6.952   4.881  18.107  0.00  0.00    +0.000 A 
ATOM      6  C   UNL     1       7.615   6.098  18.299  0.00  0.00    +0.000 A 
ENDROOT
BRANCH   1   8
ATOM      7  C   UNL     1       8.415   9.523  18.075  0.00  0.00    +0.000 C 
ATOM      8  C   UNL     1       7.867   8.480  17.850  0.00  0.00    +0.000 C 
BRANCH   7  12
ATOM      9  C   UNL     1      10.323  13.221  18.797  0.00  0.00    +0.000 A 
ATOM     10  C   UNL     1      10.695  12.083  19.513  0.00  0.00    +0.000 A 
ATOM     11  C   UNL     1      10.065  10.863  19.268  0.00  0.00    +0.000 A 
ATOM     12  C   UNL     1       9.045  10.781  18.323  0.00  0.00    +0.000 A 
ATOM     13  C   UNL     1       8.649  11.925  17.622  0.00  0.00    +0.000 A 
ATOM     14  C   UNL     1       9.282  13.148  17.868  0.00  0.00    +0.000 A 
BRANCH   9  15
ATOM     15  O   UNL     1      11.034  14.352  19.083  0.00  0.00    +0.000 OA
BRANCH  15  17
ATOM     16  C   UNL     1      10.900  16.036  20.763  0.00  0.00    +0.000 C 
ATOM     17  C   UNL     1      11.260  14.593  20.473  0.00  0.00    +0.000 C 
ENDBRANCH  15  17
ENDBRANCH   9  15
ENDBRANCH   7  12
ENDBRANCH   1   8
BRANCH   4  18
ATOM     18  C   UNL     1       5.070   3.495  17.115  0.00  0.00    +0.000 C 
BRANCH  18  19
ATOM     19  C   UNL     1       3.926   3.314  18.141  0.00  0.00    +0.000 C 
ATOM     20  C   UNL     1       4.293   2.303  19.224  0.00  0.00    +0.000 C 
BRANCH  19  21
ATOM     21  N   UNL     1       3.533   4.584  18.761  0.00  0.00    +0.000 N 
ATOM     22  C   UNL     1       2.322   5.191  18.484  0.00  0.00    +0.000 C 
ATOM     23  O   UNL     1       1.524   4.722  17.676  0.00  0.00    +0.000 OA
ATOM     24  H   UNL     1       4.145   5.060  19.417  0.00  0.00    +0.000 HD
BRANCH  22  25
ATOM     25  C   UNL     1       2.049   6.402  19.212  0.00  0.00    +0.000 A 
ATOM     26  N   UNL     1       1.738   6.529  20.489  0.00  0.00    +0.000 NA
ATOM     27  C   UNL     1       1.644   7.890  20.645  0.00  0.00    +0.000 A 
ATOM     28  N   UNL     1       1.851   8.609  19.540  0.00  0.00    +0.000 NA
ATOM     29  N   UNL     1       2.098   7.643  18.640  0.00  0.00    +0.000 N 
ATOM     30  H   UNL     1       2.308   7.879  17.675  0.00  0.00    +0.000 HD
ENDBRANCH  22  25
ENDBRANCH  19  21
ENDBRANCH  18  19
ENDBRANCH   4  18
TORSDOF 8
ENDMDL
MODEL 9
REMARK VINA RESULT:      -7.5      1.326      1.765
REMARK  Name = 
REMARK  10 active torsions:
REMARK  status: ('A' for Active; 'I' for Inactive)
REMARK    1  A    between atoms: C_1  and  C_2
REMARK    2  A    between atoms: C_2  and  O_3
REMARK    3  A    between atoms: O_3  and  C_4
REMARK    4  A    between atoms: C_7  and  C_8
REMARK    5  A    between atoms: C_9  and  C_10
REMARK    6  A    between atoms: C_13  and  C_14
REMARK    7  A    between atoms: C_14  and  C_15
REMARK    8  A    between atoms: C_15  and  C_16
REMARK    9  A    between atoms: C_15  and  N_17
REMARK   10  A    between atoms: C_18  and  C_20
REMARK                            x       y       z     vdW  Elec       q    Type
REMARK                         _______ _______ _______ _____ _____    ______ ____
ROOT
ATOM      1  C   UNL     1       7.176   7.193  17.616  0.00  0.00    +0.000 A 
ATOM      2  C   UNL     1       6.071   7.357  16.783  0.00  0.00    +0.000 A 
ATOM      3  C   UNL     1       5.302   6.245  16.414  0.00  0.00    +0.000 A 
ATOM      4  C   UNL     1       5.640   4.956  16.859  0.00  0.00    +0.000 A 
ATOM      5  C   UNL     1       6.778   4.806  17.666  0.00  0.00    +0.000 A 
ATOM      6  C   UNL     1       7.533   5.920  18.052  0.00  0.00    +0.000 A 
ENDROOT
BRANCH   1   8
ATOM      7  C   UNL     1       8.588   9.274  18.386  0.00  0.00    +0.000 C 
ATOM      8  C   UNL     1       7.940   8.323  18.050  0.00  0.00    +0.000 C 
BRANCH   7  12
ATOM      9  C   UNL     1      10.916  12.592  19.573  0.00  0.00    +0.000 A 
ATOM     10  C   UNL     1      10.883  12.195  18.235  0.00  0.00    +0.000 A 
ATOM     11  C   UNL     1      10.110  11.101  17.847  0.00  0.00    +0.000 A 
ATOM     12  C   UNL     1       9.384  10.386  18.798  0.00  0.00    +0.000 A 
ATOM     13  C   UNL     1       9.435  10.764  20.144  0.00  0.00    +0.000 A 
ATOM     14  C   UNL     1      10.210  11.861  20.532  0.00  0.00    +0.000 A 
BRANCH   9  15
ATOM     15  O   UNL     1      11.669  13.701  19.835  0.00  0.00    +0.000 OA
BRANCH  15  17
ATOM     16  C   UNL     1      12.333  15.922  19.288  0.00  0.00    +0.000 C 
ATOM     17  C   UNL     1      11.209  14.907  19.224  0.00  0.00    +0.000 C 
ENDBRANCH  15  17
ENDBRANCH   9  15
ENDBRANCH   7  12
ENDBRANCH   1   8
BRANCH   4  18
ATOM     18  C   UNL     1       4.766   3.760  16.526  0.00  0.00    +0.000 C 
BRANCH  18  19
ATOM     19  C   UNL     1       3.598   3.509  17.509  0.00  0.00    +0.000 C 
ATOM     20  C   UNL     1       4.046   2.700  18.724  0.00  0.00    +0.000 C 
BRANCH  19  21
ATOM     21  N   UNL     1       2.968   4.758  17.950  0.00  0.00    +0.000 N 
ATOM     22  C   UNL     1       3.284   5.351  19.158  0.00  0.00    +0.000 C 
ATOM     23  O   UNL     1       4.078   4.847  19.947  0.00  0.00    +0.000 OA
ATOM     24  H   UNL     1       2.275   5.229  17.376  0.00  0.00    +0.000 HD
BRANCH  22  25
ATOM     25  C   UNL     1       2.630   6.605  19.429  0.00  0.00    +0.000 A 
ATOM     26  N   UNL     1       2.517   7.650  18.630  0.00  0.00    +0.000 NA
ATOM     27  C   UNL     1       1.763   8.522  19.376  0.00  0.00    +0.000 A 
ATOM     28  N   UNL     1       1.425   8.092  20.593  0.00  0.00    +0.000 NA
ATOM     29  N   UNL     1       1.994   6.874  20.609  0.00  0.00    +0.000 N 
ATOM     30  H   UNL     1       1.905   6.274  21.422  0.00  0.00    +0.000 HD
ENDBRANCH  22  25
ENDBRANCH  19  21
ENDBRANCH  18  19
ENDBRANCH   4  18
TORSDOF 8
ENDMDL
