MODEL 1
REMARK VINA RESULT:      -8.8      0.000      0.000
REMARK  Name = 
REMARK  3 active torsions:
REMARK  status: ('A' for Active; 'I' for Inactive)
REMARK    1  A    between atoms: C_1  and  C_2
REMARK    2  A    between atoms: C_6  and  N_7
REMARK    3  A    between atoms: N_7  and  C_8
REMARK                            x       y       z     vdW  Elec       q    Type
REMARK                         _______ _______ _______ _____ _____    ______ ____
ROOT
ATOM      1  C   UNL     1       3.117   5.593  19.071  0.00  0.00    +0.000 A 
ATOM      2  C   UNL     1       2.395   4.464  19.449  0.00  0.00    +0.000 A 
ATOM      3  C   UNL     1       2.542   3.290  18.736  0.00  0.00    +0.000 A 
ATOM      4  N   UNL     1       3.317   3.147  17.655  0.00  0.00    +0.000 NA
ATOM      5  C   UNL     1       4.011   4.226  17.256  0.00  0.00    +0.000 A 
ATOM      6  C   UNL     1       4.788   4.095  16.112  0.00  0.00    +0.000 A 
ATOM      7  C   UNL     1       5.550   5.149  15.607  0.00  0.00    +0.000 A 
ATOM      8  C   UNL     1       5.583   6.355  16.286  0.00  0.00    +0.000 A 
ATOM      9  C   UNL     1       4.836   6.499  17.454  0.00  0.00    +0.000 A 
ATOM     10  C   UNL     1       3.982   5.474  17.938  0.00  0.00    +0.000 A 
ATOM     11  C   UNL     1       1.724   2.170  19.291  0.00  0.00    +0.000 C 
ATOM     12  C   UNL     1       0.994   2.820  20.470  0.00  0.00    +0.000 C 
ATOM     13  C   UNL     1       1.386   4.304  20.540  0.00  0.00    +0.000 C 
ENDROOT
BRANCH   1  14
ATOM     14  N   UNL     1       2.918   6.800  19.785  0.00  0.00    +0.000 N 
ATOM     15  H   UNL     1       3.251   6.778  20.743  0.00  0.00    +0.000 HD
BRANCH  14  21
ATOM     16  C   UNL     1      -0.314  10.019  21.678  0.00  0.00    +0.000 C 
ATOM     17  C   UNL     1       0.469   9.506  20.506  0.00  0.00    +0.000 A 
ATOM     18  C   UNL     1       0.370  10.121  19.255  0.00  0.00    +0.000 A 
ATOM     19  C   UNL     1       1.075   9.613  18.166  0.00  0.00    +0.000 A 
ATOM     20  C   UNL     1       1.884   8.486  18.319  0.00  0.00    +0.000 A 
ATOM     21  C   UNL     1       2.025   7.868  19.566  0.00  0.00    +0.000 A 
ATOM     22  C   UNL     1       1.305   8.387  20.653  0.00  0.00    +0.000 A 
ENDBRANCH  14  21
ENDBRANCH   1  14
TORSDOF 2
ENDMDL
MODEL 2
REMARK VINA RESULT:      -8.6      0.490      3.597
REMARK  Name = 
REMARK  3 active torsions:
REMARK  status: ('A' for Active; 'I' for Inactive)
REMARK    1  A    between atoms: C_1  and  C_2
REMARK    2  A    between atoms: C_6  and  N_7
REMARK    3  A    between atoms: N_7  and  C_8
REMARK                            x       y       z     vdW  Elec       q    Type
REMARK                         _______ _______ _______ _____ _____    ______ ____
ROOT
ATOM      1  C   UNL     1       3.217   5.720  18.591  0.00  0.00    +0.000 A 
ATOM      2  C   UNL     1       4.052   5.551  17.489  0.00  0.00    +0.000 A 
ATOM      3  C   UNL     1       4.180   4.301  16.915  0.00  0.00    +0.000 A 
ATOM      4  N   UNL     1       3.579   3.192  17.361  0.00  0.00    +0.000 NA
ATOM      5  C   UNL     1       2.782   3.321  18.434  0.00  0.00    +0.000 A 
ATOM      6  C   UNL     1       2.186   2.168  18.926  0.00  0.00    +0.000 A 
ATOM      7  C   UNL     1       1.339   2.183  20.034  0.00  0.00    +0.000 A 
ATOM      8  C   UNL     1       1.034   3.388  20.644  0.00  0.00    +0.000 A 
ATOM      9  C   UNL     1       1.596   4.563  20.148  0.00  0.00    +0.000 A 
ATOM     10  C   UNL     1       2.531   4.563  19.080  0.00  0.00    +0.000 A 
ATOM     11  C   UNL     1       5.086   4.301  15.726  0.00  0.00    +0.000 C 
ATOM     12  C   UNL     1       5.551   5.757  15.640  0.00  0.00    +0.000 C 
ATOM     13  C   UNL     1       4.928   6.548  16.801  0.00  0.00    +0.000 C 
ENDROOT
BRANCH   1  14
ATOM     14  N   UNL     1       3.135   6.997  19.195  0.00  0.00    +0.000 N 
ATOM     15  H   UNL     1       3.752   7.123  19.990  0.00  0.00    +0.000 HD
BRANCH  14  21
ATOM     16  C   UNL     1      -0.197   9.661  21.685  0.00  0.00    +0.000 C 
ATOM     17  C   UNL     1       0.507   9.339  20.400  0.00  0.00    +0.000 A 
ATOM     18  C   UNL     1       0.213  10.041  19.227  0.00  0.00    +0.000 A 
ATOM     19  C   UNL     1       0.848   9.708  18.033  0.00  0.00    +0.000 A 
ATOM     20  C   UNL     1       1.781   8.671  18.001  0.00  0.00    +0.000 A 
ATOM     21  C   UNL     1       2.117   7.971  19.165  0.00  0.00    +0.000 A 
ATOM     22  C   UNL     1       1.465   8.313  20.360  0.00  0.00    +0.000 A 
ENDBRANCH  14  21
ENDBRANCH   1  14
TORSDOF 2
ENDMDL
MODEL 3
REMARK VINA RESULT:      -8.5      4.272      7.227
REMARK  Name = 
REMARK  3 active torsions:
REMARK  status: ('A' for Active; 'I' for Inactive)
REMARK    1  A    between atoms: C_1  and  C_2
REMARK    2  A    between atoms: C_6  and  N_7
REMARK    3  A    between atoms: N_7  and  C_8
REMARK                            x       y       z     vdW  Elec       q    Type
REMARK                         _______ _______ _______ _____ _____    ______ ____
ROOT
ATOM      1  C   UNL     1       5.365   4.829  16.939  0.00  0.00    +0.000 A 
ATOM      2  C   UNL     1       6.341   5.469  17.699  0.00  0.00    +0.000 A 
ATOM      3  C   UNL     1       6.467   5.168  19.042  0.00  0.00    +0.000 A 
ATOM      4  N   UNL     1       5.684   4.312  19.707  0.00  0.00    +0.000 NA
ATOM      5  C   UNL     1       4.721   3.694  19.004  0.00  0.00    +0.000 A 
ATOM      6  C   UNL     1       3.880   2.833  19.697  0.00  0.00    +0.000 A 
ATOM      7  C   UNL     1       2.847   2.138  19.068  0.00  0.00    +0.000 A 
ATOM      8  C   UNL     1       2.674   2.261  17.700  0.00  0.00    +0.000 A 
ATOM      9  C   UNL     1       3.526   3.095  16.979  0.00  0.00    +0.000 A 
ATOM     10  C   UNL     1       4.526   3.882  17.607  0.00  0.00    +0.000 A 
ATOM     11  C   UNL     1       7.580   5.916  19.700  0.00  0.00    +0.000 C 
ATOM     12  C   UNL     1       8.140   6.780  18.566  0.00  0.00    +0.000 C 
ATOM     13  C   UNL     1       7.313   6.531  17.296  0.00  0.00    +0.000 C 
ENDROOT
BRANCH   1  14
ATOM     14  N   UNL     1       5.219   5.185  15.577  0.00  0.00    +0.000 N 
ATOM     15  H   UNL     1       4.317   5.586  15.345  0.00  0.00    +0.000 HD
BRANCH  14  21
ATOM     16  C   UNL     1       5.241   2.372  11.518  0.00  0.00    +0.000 C 
ATOM     17  C   UNL     1       5.902   3.404  12.382  0.00  0.00    +0.000 A 
ATOM     18  C   UNL     1       7.127   3.969  12.016  0.00  0.00    +0.000 A 
ATOM     19  C   UNL     1       7.747   4.900  12.845  0.00  0.00    +0.000 A 
ATOM     20  C   UNL     1       7.148   5.274  14.049  0.00  0.00    +0.000 A 
ATOM     21  C   UNL     1       5.908   4.748  14.428  0.00  0.00    +0.000 A 
ATOM     22  C   UNL     1       5.297   3.806  13.585  0.00  0.00    +0.000 A 
ENDBRANCH  14  21
ENDBRANCH   1  14
TORSDOF 2
ENDMDL
MODEL 4
REMARK VINA RESULT:      -8.4      3.654      5.430
REMARK  Name = 
REMARK  3 active torsions:
REMARK  status: ('A' for Active; 'I' for Inactive)
REMARK    1  A    between atoms: C_1  and  C_2
REMARK    2  A    between atoms: C_6  and  N_7
REMARK    3  A    between atoms: N_7  and  C_8
REMARK                            x       y       z     vdW  Elec       q    Type
REMARK                         _______ _______ _______ _____ _____    ______ ____
ROOT
ATOM      1  C   UNL     1       5.647   3.975  16.604  0.00  0.00    +0.000 A 
ATOM      2  C   UNL     1       6.310   4.811  17.498  0.00  0.00    +0.000 A 
ATOM      3  C   UNL     1       7.237   5.719  17.024  0.00  0.00    +0.000 A 
ATOM      4  N   UNL     1       7.591   5.847  15.740  0.00  0.00    +0.000 NA
ATOM      5  C   UNL     1       6.980   5.040  14.857  0.00  0.00    +0.000 A 
ATOM      6  C   UNL     1       7.371   5.140  13.528  0.00  0.00    +0.000 A 
ATOM      7  C   UNL     1       6.804   4.353  12.525  0.00  0.00    +0.000 A 
ATOM      8  C   UNL     1       5.783   3.474  12.843  0.00  0.00    +0.000 A 
ATOM      9  C   UNL     1       5.353   3.379  14.165  0.00  0.00    +0.000 A 
ATOM     10  C   UNL     1       5.974   4.102  15.217  0.00  0.00    +0.000 A 
ATOM     11  C   UNL     1       7.832   6.559  18.108  0.00  0.00    +0.000 C 
ATOM     12  C   UNL     1       7.158   6.023  19.375  0.00  0.00    +0.000 C 
ATOM     13  C   UNL     1       6.220   4.868  18.989  0.00  0.00    +0.000 C 
ENDROOT
BRANCH   1  14
ATOM     14  N   UNL     1       4.735   3.018  17.113  0.00  0.00    +0.000 N 
ATOM     15  H   UNL     1       4.781   2.115  16.654  0.00  0.00    +0.000 HD
BRANCH  14  21
ATOM     16  C   UNL     1       2.382   2.656  21.439  0.00  0.00    +0.000 C 
ATOM     17  C   UNL     1       2.383   3.057  19.994  0.00  0.00    +0.000 A 
ATOM     18  C   UNL     1       1.254   3.640  19.412  0.00  0.00    +0.000 A 
ATOM     19  C   UNL     1       1.255   3.975  18.061  0.00  0.00    +0.000 A 
ATOM     20  C   UNL     1       2.385   3.730  17.279  0.00  0.00    +0.000 A 
ATOM     21  C   UNL     1       3.540   3.175  17.841  0.00  0.00    +0.000 A 
ATOM     22  C   UNL     1       3.522   2.837  19.203  0.00  0.00    +0.000 A 
ENDBRANCH  14  21
ENDBRANCH   1  14
TORSDOF 2
ENDMDL
MODEL 5
REMARK VINA RESULT:      -8.3      1.472      3.855
REMARK  Name = 
REMARK  3 active torsions:
REMARK  status: ('A' for Active; 'I' for Inactive)
REMARK    1  A    between atoms: C_1  and  C_2
REMARK    2  A    between atoms: C_6  and  N_7
REMARK    3  A    between atoms: N_7  and  C_8
REMARK                            x       y       z     vdW  Elec       q    Type
REMARK                         _______ _______ _______ _____ _____    ______ ____
ROOT
ATOM      1  C   UNL     1       3.639   5.804  18.218  0.00  0.00    +0.000 A 
ATOM      2  C   UNL     1       5.020   5.870  18.056  0.00  0.00    +0.000 A 
ATOM      3  C   UNL     1       5.818   4.872  18.583  0.00  0.00    +0.000 A 
ATOM      4  N   UNL     1       5.367   3.831  19.291  0.00  0.00    +0.000 NA
ATOM      5  C   UNL     1       4.039   3.751  19.479  0.00  0.00    +0.000 A 
ATOM      6  C   UNL     1       3.568   2.693  20.245  0.00  0.00    +0.000 A 
ATOM      7  C   UNL     1       2.210   2.510  20.505  0.00  0.00    +0.000 A 
ATOM      8  C   UNL     1       1.285   3.376  19.946  0.00  0.00    +0.000 A 
ATOM      9  C   UNL     1       1.733   4.427  19.147  0.00  0.00    +0.000 A 
ATOM     10  C   UNL     1       3.113   4.687  18.942  0.00  0.00    +0.000 A 
ATOM     11  C   UNL     1       7.269   5.078  18.294  0.00  0.00    +0.000 C 
ATOM     12  C   UNL     1       7.287   6.396  17.513  0.00  0.00    +0.000 C 
ATOM     13  C   UNL     1       5.849   6.929  17.404  0.00  0.00    +0.000 C 
ENDROOT
BRANCH   1  14
ATOM     14  N   UNL     1       2.841   6.858  17.712  0.00  0.00    +0.000 N 
ATOM     15  H   UNL     1       3.021   7.088  16.740  0.00  0.00    +0.000 HD
BRANCH  14  21
ATOM     16  C   UNL     1       1.133   8.716  21.957  0.00  0.00    +0.000 C 
ATOM     17  C   UNL     1       1.347   8.847  20.478  0.00  0.00    +0.000 A 
ATOM     18  C   UNL     1       0.935   9.994  19.793  0.00  0.00    +0.000 A 
ATOM     19  C   UNL     1       1.108  10.088  18.415  0.00  0.00    +0.000 A 
ATOM     20  C   UNL     1       1.694   9.036  17.709  0.00  0.00    +0.000 A 
ATOM     21  C   UNL     1       2.144   7.889  18.372  0.00  0.00    +0.000 A 
ATOM     22  C   UNL     1       1.958   7.806  19.760  0.00  0.00    +0.000 A 
ENDBRANCH  14  21
ENDBRANCH   1  14
TORSDOF 2
ENDMDL
MODEL 6
REMARK VINA RESULT:      -8.1      1.489      3.859
REMARK  Name = 
REMARK  3 active torsions:
REMARK  status: ('A' for Active; 'I' for Inactive)
REMARK    1  A    between atoms: C_1  and  C_2
REMARK    2  A    between atoms: C_6  and  N_7
REMARK    3  A    between atoms: N_7  and  C_8
REMARK                            x       y       z     vdW  Elec       q    Type
REMARK                         _______ _______ _______ _____ _____    ______ ____
ROOT
ATOM      1  C   UNL     1       3.757   5.872  17.857  0.00  0.00    +0.000 A 
ATOM      2  C   UNL     1       5.146   5.956  17.818  0.00  0.00    +0.000 A 
ATOM      3  C   UNL     1       5.905   4.819  18.022  0.00  0.00    +0.000 A 
ATOM      4  N   UNL     1       5.406   3.610  18.300  0.00  0.00    +0.000 NA
ATOM      5  C   UNL     1       4.068   3.503  18.363  0.00  0.00    +0.000 A 
ATOM      6  C   UNL     1       3.545   2.258  18.689  0.00  0.00    +0.000 A 
ATOM      7  C   UNL     1       2.171   2.031  18.782  0.00  0.00    +0.000 A 
ATOM      8  C   UNL     1       1.288   3.058  18.495  0.00  0.00    +0.000 A 
ATOM      9  C   UNL     1       1.791   4.307  18.135  0.00  0.00    +0.000 A 
ATOM     10  C   UNL     1       3.182   4.588  18.120  0.00  0.00    +0.000 A 
ATOM     11  C   UNL     1       7.373   5.077  17.915  0.00  0.00    +0.000 C 
ATOM     12  C   UNL     1       7.445   6.581  17.635  0.00  0.00    +0.000 C 
ATOM     13  C   UNL     1       6.019   7.154  17.623  0.00  0.00    +0.000 C 
ENDROOT
BRANCH   1  14
ATOM     14  N   UNL     1       2.997   7.055  17.693  0.00  0.00    +0.000 N 
ATOM     15  H   UNL     1       3.213   7.576  16.850  0.00  0.00    +0.000 HD
BRANCH  14  21
ATOM     16  C   UNL     1       0.230  11.049  18.576  0.00  0.00    +0.000 C 
ATOM     17  C   UNL     1       0.874   9.786  19.063  0.00  0.00    +0.000 A 
ATOM     18  C   UNL     1       0.716   9.365  20.387  0.00  0.00    +0.000 A 
ATOM     19  C   UNL     1       1.348   8.209  20.836  0.00  0.00    +0.000 A 
ATOM     20  C   UNL     1       2.144   7.462  19.966  0.00  0.00    +0.000 A 
ATOM     21  C   UNL     1       2.296   7.842  18.628  0.00  0.00    +0.000 A 
ATOM     22  C   UNL     1       1.658   9.013  18.190  0.00  0.00    +0.000 A 
ENDBRANCH  14  21
ENDBRANCH   1  14
TORSDOF 2
ENDMDL
MODEL 7
REMARK VINA RESULT:      -8.0      1.359      5.352
REMARK  Name = 
REMARK  3 active torsions:
REMARK  status: ('A' for Active; 'I' for Inactive)
REMARK    1  A    between atoms: C_1  and  C_2
REMARK    2  A    between atoms: C_6  and  N_7
REMARK    3  A    between atoms: N_7  and  C_8
REMARK                            x       y       z     vdW  Elec       q    Type
REMARK                         _______ _______ _______ _____ _____    ______ ____
ROOT
ATOM      1  C   UNL     1       2.769   5.369  18.509  0.00  0.00    +0.000 A 
ATOM      2  C   UNL     1       2.693   4.429  19.533  0.00  0.00    +0.000 A 
ATOM      3  C   UNL     1       2.157   4.792  20.754  0.00  0.00    +0.000 A 
ATOM      4  N   UNL     1       1.722   6.019  21.060  0.00  0.00    +0.000 NA
ATOM      5  C   UNL     1       1.800   6.951  20.096  0.00  0.00    +0.000 A 
ATOM      6  C   UNL     1       1.385   8.237  20.420  0.00  0.00    +0.000 A 
ATOM      7  C   UNL     1       1.421   9.283  19.499  0.00  0.00    +0.000 A 
ATOM      8  C   UNL     1       1.835   9.036  18.200  0.00  0.00    +0.000 A 
ATOM      9  C   UNL     1       2.226   7.747  17.845  0.00  0.00    +0.000 A 
ATOM     10  C   UNL     1       2.284   6.686  18.786  0.00  0.00    +0.000 A 
ATOM     11  C   UNL     1       2.120   3.660  21.729  0.00  0.00    +0.000 C 
ATOM     12  C   UNL     1       2.751   2.504  20.947  0.00  0.00    +0.000 C 
ATOM     13  C   UNL     1       3.165   3.011  19.557  0.00  0.00    +0.000 C 
ENDROOT
BRANCH   1  14
ATOM     14  N   UNL     1       3.364   4.993  17.280  0.00  0.00    +0.000 N 
ATOM     15  H   UNL     1       2.862   4.269  16.778  0.00  0.00    +0.000 HD
BRANCH  14  21
ATOM     16  C   UNL     1       7.683   7.371  17.562  0.00  0.00    +0.000 C 
ATOM     17  C   UNL     1       6.847   6.267  16.987  0.00  0.00    +0.000 A 
ATOM     18  C   UNL     1       7.389   5.360  16.072  0.00  0.00    +0.000 A 
ATOM     19  C   UNL     1       6.593   4.361  15.518  0.00  0.00    +0.000 A 
ATOM     20  C   UNL     1       5.248   4.260  15.875  0.00  0.00    +0.000 A 
ATOM     21  C   UNL     1       4.685   5.134  16.811  0.00  0.00    +0.000 A 
ATOM     22  C   UNL     1       5.498   6.140  17.356  0.00  0.00    +0.000 A 
ENDBRANCH  14  21
ENDBRANCH   1  14
TORSDOF 2
ENDMDL
MODEL 8
REMARK VINA RESULT:      -8.0      0.618      1.473
REMARK  Name = 
REMARK  3 active torsions:
REMARK  status: ('A' for Active; 'I' for Inactive)
REMARK    1  A    between atoms: C_1  and  C_2
REMARK    2  A    between atoms: C_6  and  N_7
REMARK    3  A    between atoms: N_7  and  C_8
REMARK                            x       y       z     vdW  Elec       q    Type
REMARK                         _______ _______ _______ _____ _____    ______ ____
ROOT
ATOM      1  C   UNL     1       3.017   5.534  19.148  0.00  0.00    +0.000 A 
ATOM      2  C   UNL     1       2.180   4.431  19.289  0.00  0.00    +0.000 A 
ATOM      3  C   UNL     1       2.238   3.407  18.362  0.00  0.00    +0.000 A 
ATOM      4  N   UNL     1       3.029   3.399  17.284  0.00  0.00    +0.000 NA
ATOM      5  C   UNL     1       3.835   4.461  17.112  0.00  0.00    +0.000 A 
ATOM      6  C   UNL     1       4.631   4.477  15.975  0.00  0.00    +0.000 A 
ATOM      7  C   UNL     1       5.505   5.527  15.694  0.00  0.00    +0.000 A 
ATOM      8  C   UNL     1       5.630   6.571  16.596  0.00  0.00    +0.000 A 
ATOM      9  C   UNL     1       4.864   6.560  17.759  0.00  0.00    +0.000 A 
ATOM     10  C   UNL     1       3.902   5.550  18.024  0.00  0.00    +0.000 A 
ATOM     11  C   UNL     1       1.300   2.287  18.678  0.00  0.00    +0.000 C 
ATOM     12  C   UNL     1       0.598   2.767  19.951  0.00  0.00    +0.000 C 
ATOM     13  C   UNL     1       1.126   4.164  20.315  0.00  0.00    +0.000 C 
ENDROOT
BRANCH   1  14
ATOM     14  N   UNL     1       2.911   6.595  20.079  0.00  0.00    +0.000 N 
ATOM     15  H   UNL     1       3.381   6.423  20.962  0.00  0.00    +0.000 HD
BRANCH  14  21
ATOM     16  C   UNL     1       0.717  10.467  17.939  0.00  0.00    +0.000 C 
ATOM     17  C   UNL     1       0.846   9.532  19.104  0.00  0.00    +0.000 A 
ATOM     18  C   UNL     1       0.014   9.659  20.220  0.00  0.00    +0.000 A 
ATOM     19  C   UNL     1       0.168   8.807  21.311  0.00  0.00    +0.000 A 
ATOM     20  C   UNL     1       1.154   7.820  21.295  0.00  0.00    +0.000 A 
ATOM     21  C   UNL     1       1.982   7.650  20.179  0.00  0.00    +0.000 A 
ATOM     22  C   UNL     1       1.819   8.520  19.090  0.00  0.00    +0.000 A 
ENDBRANCH  14  21
ENDBRANCH   1  14
TORSDOF 2
ENDMDL
MODEL 9
REMARK VINA RESULT:      -8.0      1.528      5.756
REMARK  Name = 
REMARK  3 active torsions:
REMARK  status: ('A' for Active; 'I' for Inactive)
REMARK    1  A    between atoms: C_1  and  C_2
REMARK    2  A    between atoms: C_6  and  N_7
REMARK    3  A    between atoms: N_7  and  C_8
REMARK                            x       y       z     vdW  Elec       q    Type
REMARK                         _______ _______ _______ _____ _____    ______ ____
ROOT
ATOM      1  C   UNL     1       2.906   4.879  18.500  0.00  0.00    +0.000 A 
ATOM      2  C   UNL     1       2.760   4.034  19.597  0.00  0.00    +0.000 A 
ATOM      3  C   UNL     1       2.226   4.527  20.772  0.00  0.00    +0.000 A 
ATOM      4  N   UNL     1       1.857   5.797  20.967  0.00  0.00    +0.000 NA
ATOM      5  C   UNL     1       2.004   6.640  19.931  0.00  0.00    +0.000 A 
ATOM      6  C   UNL     1       1.659   7.969  20.139  0.00  0.00    +0.000 A 
ATOM      7  C   UNL     1       1.771   8.932  19.135  0.00  0.00    +0.000 A 
ATOM      8  C   UNL     1       2.190   8.554  17.870  0.00  0.00    +0.000 A 
ATOM      9  C   UNL     1       2.512   7.220  17.630  0.00  0.00    +0.000 A 
ATOM     10  C   UNL     1       2.494   6.240  18.657  0.00  0.00    +0.000 A 
ATOM     11  C   UNL     1       2.108   3.484  21.836  0.00  0.00    +0.000 C 
ATOM     12  C   UNL     1       2.684   2.234  21.166  0.00  0.00    +0.000 C 
ATOM     13  C   UNL     1       3.149   2.598  19.747  0.00  0.00    +0.000 C 
ENDROOT
BRANCH   1  14
ATOM     14  N   UNL     1       3.499   4.368  17.320  0.00  0.00    +0.000 N 
ATOM     15  H   UNL     1       2.967   3.629  16.872  0.00  0.00    +0.000 HD
BRANCH  14  21
ATOM     16  C   UNL     1       6.633   4.187  13.507  0.00  0.00    +0.000 C 
ATOM     17  C   UNL     1       6.387   4.376  14.974  0.00  0.00    +0.000 A 
ATOM     18  C   UNL     1       7.442   4.656  15.848  0.00  0.00    +0.000 A 
ATOM     19  C   UNL     1       7.205   4.794  17.213  0.00  0.00    +0.000 A 
ATOM     20  C   UNL     1       5.911   4.654  17.717  0.00  0.00    +0.000 A 
ATOM     21  C   UNL     1       4.831   4.404  16.864  0.00  0.00    +0.000 A 
ATOM     22  C   UNL     1       5.086   4.261  15.491  0.00  0.00    +0.000 A 
ENDBRANCH  14  21
ENDBRANCH   1  14
TORSDOF 2
ENDMDL
