MODEL 1
REMARK VINA RESULT:      -7.0      0.000      0.000
REMARK  Name = 
REMARK  4 active torsions:
REMARK  status: ('A' for Active; 'I' for Inactive)
REMARK    1  A    between atoms: C_1  and  C_2
REMARK    2  A    between atoms: C_5  and  C_6
REMARK    3  A    between atoms: C_6  and  O_7
REMARK    4  A    between atoms: C_8  and  C_9
REMARK                            x       y       z     vdW  Elec       q    Type
REMARK                         _______ _______ _______ _____ _____    ______ ____
ROOT
ATOM      1  C   UNL     1       0.661  11.295  20.550  0.00  0.00    +0.000 C 
ATOM      2  C   UNL     1       0.567  11.853  19.184  0.00  0.00    +0.000 C 
ATOM      3  C   UNL     1      -1.190  11.334  19.383  0.00  0.00    +0.000 C 
ATOM      4  C   UNL     1      -1.928  12.277  20.261  0.00  0.00    +0.000 C 
ATOM      5  C   UNL     1      -2.788  12.636  21.473  0.00  0.00    +0.000 C 
ATOM      6  O   UNL     1      -3.048  11.874  22.393  0.00  0.00    +0.000 OA
ATOM      7  C   UNL     1      -3.271  14.098  21.477  0.00  0.00    +0.000 A 
ATOM      8  C   UNL     1      -4.462  14.409  22.166  0.00  0.00    +0.000 A 
ATOM      9  C   UNL     1      -5.090  15.661  22.012  0.00  0.00    +0.000 A 
ATOM     10  C   UNL     1      -4.554  16.626  21.165  0.00  0.00    +0.000 A 
ATOM     11  C   UNL     1      -3.346  16.388  20.574  0.00  0.00    +0.000 A 
ATOM     12  C   UNL     1      -2.652  15.148  20.771  0.00  0.00    +0.000 A 
ATOM     13  N   UNL     1      -1.434  15.102  20.083  0.00  0.00    +0.000 N 
ATOM     14  C   UNL     1      -0.765  13.993  19.705  0.00  0.00    +0.000 C 
ATOM     15  O   UNL     1      -0.571  13.976  18.478  0.00  0.00    +0.000 OA
ATOM     16  C   UNL     1      -0.590  12.686  20.765  0.00  0.00    +0.000 C 
ATOM     17  H   UNL     1      -1.349  15.796  19.339  0.00  0.00    +0.000 HD
ENDROOT
BRANCH   1  22
ATOM     18  C   UNL     1       3.012   6.031  18.693  0.00  0.00    +0.000 C 
ATOM     19  C   UNL     1       2.251   7.272  19.090  0.00  0.00    +0.000 A 
ATOM     20  C   UNL     1       1.735   7.432  20.371  0.00  0.00    +0.000 A 
ATOM     21  C   UNL     1       1.067   8.630  20.730  0.00  0.00    +0.000 A 
ATOM     22  C   UNL     1       0.980   9.786  19.868  0.00  0.00    +0.000 A 
ATOM     23  C   UNL     1       1.378   9.532  18.544  0.00  0.00    +0.000 A 
ATOM     24  C   UNL     1       2.029   8.314  18.177  0.00  0.00    +0.000 A 
ENDBRANCH   1  22
BRANCH   2  25
ATOM     25  C   UNL     1       1.641  13.124  19.288  0.00  0.00    +0.000 A 
ATOM     26  C   UNL     1       2.283  13.523  18.115  0.00  0.00    +0.000 A 
ATOM     27  C   UNL     1       3.077  14.685  18.085  0.00  0.00    +0.000 A 
ATOM     28  C   UNL     1       3.236  15.492  19.212  0.00  0.00    +0.000 A 
ATOM     29 CL   UNL     1       4.072  16.993  19.115  0.00  0.00    +0.000 Cl
ATOM     30  C   UNL     1       2.713  15.095  20.419  0.00  0.00    +0.000 A 
ATOM     31  C   UNL     1       1.992  13.900  20.462  0.00  0.00    +0.000 A 
ENDBRANCH   2  25
BRANCH   1  32
ATOM     32  O   UNL     1       1.774  11.399  21.416  0.00  0.00    +0.000 OA
ATOM     33  H   UNL     1       2.387  10.663  21.346  0.00  0.00    +0.000 HD
ENDBRANCH   1  32
TORSDOF 3
ENDMDL
MODEL 2
REMARK VINA RESULT:      -6.9      3.009      7.370
REMARK  Name = 
REMARK  4 active torsions:
REMARK  status: ('A' for Active; 'I' for Inactive)
REMARK    1  A    between atoms: C_1  and  C_2
REMARK    2  A    between atoms: C_5  and  C_6
REMARK    3  A    between atoms: C_6  and  O_7
REMARK    4  A    between atoms: C_8  and  C_9
REMARK                            x       y       z     vdW  Elec       q    Type
REMARK                         _______ _______ _______ _____ _____    ______ ____
ROOT
ATOM      1  C   UNL     1      -0.490  13.370  22.552  0.00  0.00    +0.000 C 
ATOM      2  C   UNL     1      -1.121  14.012  21.378  0.00  0.00    +0.000 C 
ATOM      3  C   UNL     1       0.026  15.377  21.847  0.00  0.00    +0.000 C 
ATOM      4  C   UNL     1       1.420  15.066  21.442  0.00  0.00    +0.000 C 
ATOM      5  C   UNL     1       2.913  14.870  21.703  0.00  0.00    +0.000 C 
ATOM      6  O   UNL     1       3.426  14.817  22.812  0.00  0.00    +0.000 OA
ATOM      7  C   UNL     1       3.745  14.678  20.422  0.00  0.00    +0.000 A 
ATOM      8  C   UNL     1       5.108  15.040  20.446  0.00  0.00    +0.000 A 
ATOM      9  C   UNL     1       5.864  15.123  19.260  0.00  0.00    +0.000 A 
ATOM     10  C   UNL     1       5.281  14.855  18.025  0.00  0.00    +0.000 A 
ATOM     11  C   UNL     1       3.995  14.397  17.988  0.00  0.00    +0.000 A 
ATOM     12  C   UNL     1       3.226  14.237  19.188  0.00  0.00    +0.000 A 
ATOM     13  N   UNL     1       1.936  13.756  18.937  0.00  0.00    +0.000 N 
ATOM     14  C   UNL     1       0.856  13.894  19.734  0.00  0.00    +0.000 C 
ATOM     15  O   UNL     1      -0.077  14.459  19.140  0.00  0.00    +0.000 OA
ATOM     16  C   UNL     1       0.978  13.646  21.403  0.00  0.00    +0.000 C 
ATOM     17  H   UNL     1       1.634  13.861  17.968  0.00  0.00    +0.000 HD
ENDROOT
BRANCH   1  22
ATOM     18  C   UNL     1      -4.724  16.888  25.079  0.00  0.00    +0.000 C 
ATOM     19  C   UNL     1      -3.719  15.875  24.586  0.00  0.00    +0.000 A 
ATOM     20  C   UNL     1      -4.022  14.989  23.559  0.00  0.00    +0.000 A 
ATOM     21  C   UNL     1      -3.041  14.081  23.083  0.00  0.00    +0.000 A 
ATOM     22  C   UNL     1      -1.666  14.087  23.525  0.00  0.00    +0.000 A 
ATOM     23  C   UNL     1      -1.442  14.887  24.658  0.00  0.00    +0.000 A 
ATOM     24  C   UNL     1      -2.439  15.784  25.153  0.00  0.00    +0.000 A 
ENDBRANCH   1  22
BRANCH   2  25
ATOM     25  C   UNL     1      -1.348  12.694  20.383  0.00  0.00    +0.000 A 
ATOM     26  C   UNL     1      -2.481  12.689  19.570  0.00  0.00    +0.000 A 
ATOM     27  C   UNL     1      -2.661  11.696  18.588  0.00  0.00    +0.000 A 
ATOM     28  C   UNL     1      -1.711  10.697  18.373  0.00  0.00    +0.000 A 
ATOM     29 CL   UNL     1      -1.868   9.594  17.063  0.00  0.00    +0.000 Cl
ATOM     30  C   UNL     1      -0.627  10.592  19.211  0.00  0.00    +0.000 A 
ATOM     31  C   UNL     1      -0.492  11.532  20.235  0.00  0.00    +0.000 A 
ENDBRANCH   2  25
BRANCH   1  32
ATOM     32  O   UNL     1      -0.649  12.022  22.948  0.00  0.00    +0.000 OA
ATOM     33  H   UNL     1      -1.444  11.610  22.600  0.00  0.00    +0.000 HD
ENDBRANCH   1  32
TORSDOF 3
ENDMDL
MODEL 3
REMARK VINA RESULT:      -6.8      2.983      5.092
REMARK  Name = 
REMARK  4 active torsions:
REMARK  status: ('A' for Active; 'I' for Inactive)
REMARK    1  A    between atoms: C_1  and  C_2
REMARK    2  A    between atoms: C_5  and  C_6
REMARK    3  A    between atoms: C_6  and  O_7
REMARK    4  A    between atoms: C_8  and  C_9
REMARK                            x       y       z     vdW  Elec       q    Type
REMARK                         _______ _______ _______ _____ _____    ______ ____
ROOT
ATOM      1  C   UNL     1       0.721  10.658  18.651  0.00  0.00    +0.000 C 
ATOM      2  C   UNL     1      -0.198  10.959  19.770  0.00  0.00    +0.000 C 
ATOM      3  C   UNL     1       1.277  11.882  20.378  0.00  0.00    +0.000 C 
ATOM      4  C   UNL     1       1.449  13.158  19.638  0.00  0.00    +0.000 C 
ATOM      5  C   UNL     1       2.237  14.156  18.788  0.00  0.00    +0.000 C 
ATOM      6  O   UNL     1       3.309  13.919  18.250  0.00  0.00    +0.000 OA
ATOM      7  C   UNL     1       1.525  15.509  18.606  0.00  0.00    +0.000 A 
ATOM      8  C   UNL     1       2.313  16.653  18.360  0.00  0.00    +0.000 A 
ATOM      9  C   UNL     1       1.762  17.948  18.425  0.00  0.00    +0.000 A 
ATOM     10  C   UNL     1       0.421  18.135  18.744  0.00  0.00    +0.000 A 
ATOM     11  C   UNL     1      -0.385  17.039  18.878  0.00  0.00    +0.000 A 
ATOM     12  C   UNL     1       0.138  15.710  18.747  0.00  0.00    +0.000 A 
ATOM     13  N   UNL     1      -0.845  14.730  18.917  0.00  0.00    +0.000 N 
ATOM     14  C   UNL     1      -0.647  13.444  19.276  0.00  0.00    +0.000 C 
ATOM     15  O   UNL     1      -1.282  13.158  20.305  0.00  0.00    +0.000 OA
ATOM     16  C   UNL     1       0.602  12.537  18.585  0.00  0.00    +0.000 C 
ATOM     17  H   UNL     1      -1.692  15.065  19.379  0.00  0.00    +0.000 HD
ENDROOT
BRANCH   1  22
ATOM     18  C   UNL     1       1.854   5.156  20.915  0.00  0.00    +0.000 C 
ATOM     19  C   UNL     1       1.727   6.589  20.459  0.00  0.00    +0.000 A 
ATOM     20  C   UNL     1       2.334   7.039  19.293  0.00  0.00    +0.000 A 
ATOM     21  C   UNL     1       2.157   8.380  18.864  0.00  0.00    +0.000 A 
ATOM     22  C   UNL     1       1.266   9.315  19.512  0.00  0.00    +0.000 A 
ATOM     23  C   UNL     1       0.794   8.871  20.759  0.00  0.00    +0.000 A 
ATOM     24  C   UNL     1       0.994   7.527  21.202  0.00  0.00    +0.000 A 
ENDBRANCH   1  22
BRANCH   2  25
ATOM     25  C   UNL     1      -1.651  11.076  18.962  0.00  0.00    +0.000 A 
ATOM     26  C   UNL     1      -2.783  11.388  19.715  0.00  0.00    +0.000 A 
ATOM     27  C   UNL     1      -4.014  11.664  19.089  0.00  0.00    +0.000 A 
ATOM     28  C   UNL     1      -4.147  11.659  17.700  0.00  0.00    +0.000 A 
ATOM     29 CL   UNL     1      -5.611  12.159  16.949  0.00  0.00    +0.000 Cl
ATOM     30  C   UNL     1      -3.093  11.260  16.912  0.00  0.00    +0.000 A 
ATOM     31  C   UNL     1      -1.897  10.909  17.542  0.00  0.00    +0.000 A 
ENDBRANCH   2  25
BRANCH   1  32
ATOM     32  O   UNL     1       0.371  10.029  17.433  0.00  0.00    +0.000 OA
ATOM     33  H   UNL     1       0.841   9.205  17.277  0.00  0.00    +0.000 HD
ENDBRANCH   1  32
TORSDOF 3
ENDMDL
MODEL 4
REMARK VINA RESULT:      -6.8      3.455      8.054
REMARK  Name = 
REMARK  4 active torsions:
REMARK  status: ('A' for Active; 'I' for Inactive)
REMARK    1  A    between atoms: C_1  and  C_2
REMARK    2  A    between atoms: C_5  and  C_6
REMARK    3  A    between atoms: C_6  and  O_7
REMARK    4  A    between atoms: C_8  and  C_9
REMARK                            x       y       z     vdW  Elec       q    Type
REMARK                         _______ _______ _______ _____ _____    ______ ____
ROOT
ATOM      1  C   UNL     1      -3.350  13.240  23.242  0.00  0.00    +0.000 C 
ATOM      2  C   UNL     1      -3.199  14.189  22.118  0.00  0.00    +0.000 C 
ATOM      3  C   UNL     1      -1.412  13.900  22.467  0.00  0.00    +0.000 C 
ATOM      4  C   UNL     1      -0.975  12.579  21.947  0.00  0.00    +0.000 C 
ATOM      5  C   UNL     1      -0.349  11.191  22.082  0.00  0.00    +0.000 C 
ATOM      6  O   UNL     1      -0.063  10.655  23.143  0.00  0.00    +0.000 OA
ATOM      7  C   UNL     1      -0.152  10.469  20.737  0.00  0.00    +0.000 A 
ATOM      8  C   UNL     1       0.868   9.500  20.638  0.00  0.00    +0.000 A 
ATOM      9  C   UNL     1       1.265   8.980  19.391  0.00  0.00    +0.000 A 
ATOM     10  C   UNL     1       0.663   9.416  18.214  0.00  0.00    +0.000 A 
ATOM     11  C   UNL     1      -0.400  10.271  18.294  0.00  0.00    +0.000 A 
ATOM     12  C   UNL     1      -0.868  10.761  19.559  0.00  0.00    +0.000 A 
ATOM     13  N   UNL     1      -1.964  11.621  19.426  0.00  0.00    +0.000 N 
ATOM     14  C   UNL     1      -2.364  12.557  20.311  0.00  0.00    +0.000 C 
ATOM     15  O   UNL     1      -2.402  13.685  19.792  0.00  0.00    +0.000 OA
ATOM     16  C   UNL     1      -2.416  12.214  21.967  0.00  0.00    +0.000 C 
ATOM     17  H   UNL     1      -2.087  11.996  18.485  0.00  0.00    +0.000 HD
ENDROOT
BRANCH   1  22
ATOM     18  C   UNL     1      -2.786  18.630  25.947  0.00  0.00    +0.000 C 
ATOM     19  C   UNL     1      -3.015  17.225  25.441  0.00  0.00    +0.000 A 
ATOM     20  C   UNL     1      -4.145  16.891  24.706  0.00  0.00    +0.000 A 
ATOM     21  C   UNL     1      -4.309  15.575  24.203  0.00  0.00    +0.000 A 
ATOM     22  C   UNL     1      -3.297  14.549  24.302  0.00  0.00    +0.000 A 
ATOM     23  C   UNL     1      -2.245  14.880  25.173  0.00  0.00    +0.000 A 
ATOM     24  C   UNL     1      -2.093  16.200  25.701  0.00  0.00    +0.000 A 
ENDBRANCH   1  22
BRANCH   2  25
ATOM     25  C   UNL     1      -4.496  13.758  21.164  0.00  0.00    +0.000 A 
ATOM     26  C   UNL     1      -5.115  14.765  20.424  0.00  0.00    +0.000 A 
ATOM     27  C   UNL     1      -6.109  14.458  19.475  0.00  0.00    +0.000 A 
ATOM     28  C   UNL     1      -6.497  13.142  19.220  0.00  0.00    +0.000 A 
ATOM     29 CL   UNL     1      -7.589  12.773  17.944  0.00  0.00    +0.000 Cl
ATOM     30  C   UNL     1      -5.997  12.119  19.990  0.00  0.00    +0.000 A 
ATOM     31  C   UNL     1      -5.070  12.437  20.985  0.00  0.00    +0.000 A 
ENDBRANCH   2  25
BRANCH   1  32
ATOM     32  O   UNL     1      -4.558  12.642  23.669  0.00  0.00    +0.000 OA
ATOM     33  H   UNL     1      -5.272  12.717  23.030  0.00  0.00    +0.000 HD
ENDBRANCH   1  32
TORSDOF 3
ENDMDL
MODEL 5
REMARK VINA RESULT:      -6.8      2.638      6.462
REMARK  Name = 
REMARK  4 active torsions:
REMARK  status: ('A' for Active; 'I' for Inactive)
REMARK    1  A    between atoms: C_1  and  C_2
REMARK    2  A    between atoms: C_5  and  C_6
REMARK    3  A    between atoms: C_6  and  O_7
REMARK    4  A    between atoms: C_8  and  C_9
REMARK                            x       y       z     vdW  Elec       q    Type
REMARK                         _______ _______ _______ _____ _____    ______ ____
ROOT
ATOM      1  C   UNL     1      -1.559  12.574  22.619  0.00  0.00    +0.000 C 
ATOM      2  C   UNL     1      -1.954  12.796  21.211  0.00  0.00    +0.000 C 
ATOM      3  C   UNL     1      -2.006  14.548  21.784  0.00  0.00    +0.000 C 
ATOM      4  C   UNL     1      -0.637  15.107  21.917  0.00  0.00    +0.000 C 
ATOM      5  C   UNL     1       0.500  15.785  22.681  0.00  0.00    +0.000 C 
ATOM      6  O   UNL     1       0.508  15.982  23.888  0.00  0.00    +0.000 OA
ATOM      7  C   UNL     1       1.701  16.163  21.795  0.00  0.00    +0.000 A 
ATOM      8  C   UNL     1       2.522  17.236  22.200  0.00  0.00    +0.000 A 
ATOM      9  C   UNL     1       3.481  17.792  21.331  0.00  0.00    +0.000 A 
ATOM     10  C   UNL     1       3.640  17.298  20.039  0.00  0.00    +0.000 A 
ATOM     11  C   UNL     1       2.934  16.191  19.664  0.00  0.00    +0.000 A 
ATOM     12  C   UNL     1       2.002  15.564  20.556  0.00  0.00    +0.000 A 
ATOM     13  N   UNL     1       1.384  14.446  19.985  0.00  0.00    +0.000 N 
ATOM     14  C   UNL     1       0.203  13.905  20.349  0.00  0.00    +0.000 C 
ATOM     15  O   UNL     1      -0.591  13.865  19.395  0.00  0.00    +0.000 OA
ATOM     16  C   UNL     1      -0.182  13.692  21.982  0.00  0.00    +0.000 C 
ATOM     17  H   UNL     1       1.455  14.406  18.967  0.00  0.00    +0.000 HD
ENDROOT
BRANCH   1  22
ATOM     18  C   UNL     1      -7.431  13.444  23.820  0.00  0.00    +0.000 C 
ATOM     19  C   UNL     1      -6.009  13.032  23.523  0.00  0.00    +0.000 A 
ATOM     20  C   UNL     1      -5.536  12.939  22.220  0.00  0.00    +0.000 A 
ATOM     21  C   UNL     1      -4.181  12.596  21.972  0.00  0.00    +0.000 A 
ATOM     22  C   UNL     1      -3.192  12.445  23.015  0.00  0.00    +0.000 A 
ATOM     23  C   UNL     1      -3.740  12.400  24.308  0.00  0.00    +0.000 A 
ATOM     24  C   UNL     1      -5.111  12.721  24.554  0.00  0.00    +0.000 A 
ENDBRANCH   1  22
BRANCH   2  25
ATOM     25  C   UNL     1      -1.041  11.634  20.440  0.00  0.00    +0.000 A 
ATOM     26  C   UNL     1      -1.495  11.174  19.204  0.00  0.00    +0.000 A 
ATOM     27  C   UNL     1      -0.704  10.316  18.417  0.00  0.00    +0.000 A 
ATOM     28  C   UNL     1       0.568   9.911  18.826  0.00  0.00    +0.000 A 
ATOM     29 CL   UNL     1       1.586   9.001  17.781  0.00  0.00    +0.000 Cl
ATOM     30  C   UNL     1       1.025  10.250  20.077  0.00  0.00    +0.000 A 
ATOM     31  C   UNL     1       0.202  11.035  20.888  0.00  0.00    +0.000 A 
ENDBRANCH   2  25
BRANCH   1  32
ATOM     32  O   UNL     1      -1.088  11.359  23.169  0.00  0.00    +0.000 OA
ATOM     33  H   UNL     1      -1.039  11.365  24.128  0.00  0.00    +0.000 HD
ENDBRANCH   1  32
TORSDOF 3
ENDMDL
MODEL 6
REMARK VINA RESULT:      -6.8      2.711      5.048
REMARK  Name = 
REMARK  4 active torsions:
REMARK  status: ('A' for Active; 'I' for Inactive)
REMARK    1  A    between atoms: C_1  and  C_2
REMARK    2  A    between atoms: C_5  and  C_6
REMARK    3  A    between atoms: C_6  and  O_7
REMARK    4  A    between atoms: C_8  and  C_9
REMARK                            x       y       z     vdW  Elec       q    Type
REMARK                         _______ _______ _______ _____ _____    ______ ____
ROOT
ATOM      1  C   UNL     1      -0.177  11.734  19.474  0.00  0.00    +0.000 C 
ATOM      2  C   UNL     1       0.033  11.583  20.930  0.00  0.00    +0.000 C 
ATOM      3  C   UNL     1       1.699  12.233  20.484  0.00  0.00    +0.000 C 
ATOM      4  C   UNL     1       1.651  13.694  20.229  0.00  0.00    +0.000 C 
ATOM      5  C   UNL     1       1.876  14.948  19.383  0.00  0.00    +0.000 C 
ATOM      6  O   UNL     1       2.182  14.943  18.199  0.00  0.00    +0.000 OA
ATOM      7  C   UNL     1       1.621  16.261  20.144  0.00  0.00    +0.000 A 
ATOM      8  C   UNL     1       2.295  17.425  19.717  0.00  0.00    +0.000 A 
ATOM      9  C   UNL     1       2.303  18.594  20.503  0.00  0.00    +0.000 A 
ATOM     10  C   UNL     1       1.650  18.631  21.731  0.00  0.00    +0.000 A 
ATOM     11  C   UNL     1       0.901  17.554  22.112  0.00  0.00    +0.000 A 
ATOM     12  C   UNL     1       0.820  16.377  21.297  0.00  0.00    +0.000 A 
ATOM     13  N   UNL     1       0.004  15.390  21.861  0.00  0.00    +0.000 N 
ATOM     14  C   UNL     1       0.045  14.067  21.604  0.00  0.00    +0.000 C 
ATOM     15  O   UNL     1       0.234  13.408  22.640  0.00  0.00    +0.000 OA
ATOM     16  C   UNL     1       0.192  13.500  20.017  0.00  0.00    +0.000 C 
ATOM     17  H   UNL     1      -0.174  15.517  22.858  0.00  0.00    +0.000 HD
ENDROOT
BRANCH   1  22
ATOM     18  C   UNL     1       3.070   6.622  19.379  0.00  0.00    +0.000 C 
ATOM     19  C   UNL     1       2.108   7.784  19.340  0.00  0.00    +0.000 A 
ATOM     20  C   UNL     1       1.394   8.176  20.466  0.00  0.00    +0.000 A 
ATOM     21  C   UNL     1       0.533   9.303  20.413  0.00  0.00    +0.000 A 
ATOM     22  C   UNL     1       0.427  10.174  19.265  0.00  0.00    +0.000 A 
ATOM     23  C   UNL     1       1.044   9.661  18.111  0.00  0.00    +0.000 A 
ATOM     24  C   UNL     1       1.892   8.512  18.160  0.00  0.00    +0.000 A 
ENDBRANCH   1  22
BRANCH   2  25
ATOM     25  C   UNL     1      -1.480  11.973  21.510  0.00  0.00    +0.000 A 
ATOM     26  C   UNL     1      -1.786  11.598  22.818  0.00  0.00    +0.000 A 
ATOM     27  C   UNL     1      -2.975  12.030  23.434  0.00  0.00    +0.000 A 
ATOM     28  C   UNL     1      -3.881  12.864  22.777  0.00  0.00    +0.000 A 
ATOM     29 CL   UNL     1      -5.243  13.515  23.600  0.00  0.00    +0.000 Cl
ATOM     30  C   UNL     1      -3.683  13.182  21.455  0.00  0.00    +0.000 A 
ATOM     31  C   UNL     1      -2.541  12.685  20.822  0.00  0.00    +0.000 A 
ENDBRANCH   2  25
BRANCH   1  32
ATOM     32  O   UNL     1      -1.410  11.600  18.793  0.00  0.00    +0.000 OA
ATOM     33  H   UNL     1      -1.744  10.699  18.778  0.00  0.00    +0.000 HD
ENDBRANCH   1  32
TORSDOF 3
ENDMDL
MODEL 7
REMARK VINA RESULT:      -6.7      2.763      5.005
REMARK  Name = 
REMARK  4 active torsions:
REMARK  status: ('A' for Active; 'I' for Inactive)
REMARK    1  A    between atoms: C_1  and  C_2
REMARK    2  A    between atoms: C_5  and  C_6
REMARK    3  A    between atoms: C_6  and  O_7
REMARK    4  A    between atoms: C_8  and  C_9
REMARK                            x       y       z     vdW  Elec       q    Type
REMARK                         _______ _______ _______ _____ _____    ______ ____
ROOT
ATOM      1  C   UNL     1       0.145  11.175  19.789  0.00  0.00    +0.000 C 
ATOM      2  C   UNL     1       0.306  11.511  21.220  0.00  0.00    +0.000 C 
ATOM      3  C   UNL     1       1.873  12.252  20.591  0.00  0.00    +0.000 C 
ATOM      4  C   UNL     1       1.614  13.539  19.897  0.00  0.00    +0.000 C 
ATOM      5  C   UNL     1       1.685  14.493  18.705  0.00  0.00    +0.000 C 
ATOM      6  O   UNL     1       2.044  14.177  17.579  0.00  0.00    +0.000 OA
ATOM      7  C   UNL     1       1.196  15.917  19.024  0.00  0.00    +0.000 A 
ATOM      8  C   UNL     1       1.704  16.988  18.257  0.00  0.00    +0.000 A 
ATOM      9  C   UNL     1       1.496  18.326  18.643  0.00  0.00    +0.000 A 
ATOM     10  C   UNL     1       0.787  18.631  19.801  0.00  0.00    +0.000 A 
ATOM     11  C   UNL     1       0.195  17.617  20.498  0.00  0.00    +0.000 A 
ATOM     12  C   UNL     1       0.333  16.249  20.086  0.00  0.00    +0.000 A 
ATOM     13  N   UNL     1      -0.349  15.365  20.929  0.00  0.00    +0.000 N 
ATOM     14  C   UNL     1      -0.094  14.051  21.093  0.00  0.00    +0.000 C 
ATOM     15  O   UNL     1       0.144  13.779  22.282  0.00  0.00    +0.000 OA
ATOM     16  C   UNL     1       0.213  13.058  19.758  0.00  0.00    +0.000 C 
ATOM     17  H   UNL     1      -0.591  15.760  21.839  0.00  0.00    +0.000 HD
ENDROOT
BRANCH   1  22
ATOM     18  C   UNL     1       2.214   5.488  20.028  0.00  0.00    +0.000 C 
ATOM     19  C   UNL     1       1.872   6.958  20.051  0.00  0.00    +0.000 A 
ATOM     20  C   UNL     1       2.117   7.780  18.957  0.00  0.00    +0.000 A 
ATOM     21  C   UNL     1       1.740   9.147  18.990  0.00  0.00    +0.000 A 
ATOM     22  C   UNL     1       0.990   9.744  20.071  0.00  0.00    +0.000 A 
ATOM     23  C   UNL     1       0.896   8.926  21.209  0.00  0.00    +0.000 A 
ATOM     24  C   UNL     1       1.299   7.555  21.184  0.00  0.00    +0.000 A 
ENDBRANCH   1  22
BRANCH   2  25
ATOM     25  C   UNL     1      -1.274  11.813  21.653  0.00  0.00    +0.000 A 
ATOM     26  C   UNL     1      -1.630  11.596  22.984  0.00  0.00    +0.000 A 
ATOM     27  C   UNL     1      -2.897  11.979  23.466  0.00  0.00    +0.000 A 
ATOM     28  C   UNL     1      -3.834  12.607  22.644  0.00  0.00    +0.000 A 
ATOM     29 CL   UNL     1      -5.308  13.216  23.287  0.00  0.00    +0.000 Cl
ATOM     30  C   UNL     1      -3.578  12.753  21.302  0.00  0.00    +0.000 A 
ATOM     31  C   UNL     1      -2.352  12.299  20.812  0.00  0.00    +0.000 A 
ENDBRANCH   2  25
BRANCH   1  32
ATOM     32  O   UNL     1      -1.019  10.645  19.185  0.00  0.00    +0.000 OA
ATOM     33  H   UNL     1      -1.039  10.750  18.230  0.00  0.00    +0.000 HD
ENDBRANCH   1  32
TORSDOF 3
ENDMDL
MODEL 8
REMARK VINA RESULT:      -6.7      2.601      6.667
REMARK  Name = 
REMARK  4 active torsions:
REMARK  status: ('A' for Active; 'I' for Inactive)
REMARK    1  A    between atoms: C_1  and  C_2
REMARK    2  A    between atoms: C_5  and  C_6
REMARK    3  A    between atoms: C_6  and  O_7
REMARK    4  A    between atoms: C_8  and  C_9
REMARK                            x       y       z     vdW  Elec       q    Type
REMARK                         _______ _______ _______ _____ _____    ______ ____
ROOT
ATOM      1  C   UNL     1      -0.666  12.936  22.034  0.00  0.00    +0.000 C 
ATOM      2  C   UNL     1      -1.007  13.065  20.600  0.00  0.00    +0.000 C 
ATOM      3  C   UNL     1      -0.683  14.844  20.961  0.00  0.00    +0.000 C 
ATOM      4  C   UNL     1       0.774  15.111  21.058  0.00  0.00    +0.000 C 
ATOM      5  C   UNL     1       2.031  15.621  21.764  0.00  0.00    +0.000 C 
ATOM      6  O   UNL     1       2.083  15.956  22.939  0.00  0.00    +0.000 OA
ATOM      7  C   UNL     1       3.283  15.625  20.868  0.00  0.00    +0.000 A 
ATOM      8  C   UNL     1       4.315  16.541  21.163  0.00  0.00    +0.000 A 
ATOM      9  C   UNL     1       5.369  16.771  20.257  0.00  0.00    +0.000 A 
ATOM     10  C   UNL     1       5.417  16.103  19.037  0.00  0.00    +0.000 A 
ATOM     11  C   UNL     1       4.490  15.133  18.779  0.00  0.00    +0.000 A 
ATOM     12  C   UNL     1       3.447  14.831  19.717  0.00  0.00    +0.000 A 
ATOM     13  N   UNL     1       2.604  13.809  19.268  0.00  0.00    +0.000 N 
ATOM     14  C   UNL     1       1.336  13.578  19.665  0.00  0.00    +0.000 C 
ATOM     15  O   UNL     1       0.549  13.592  18.703  0.00  0.00    +0.000 OA
ATOM     16  C   UNL     1       0.917  13.651  21.302  0.00  0.00    +0.000 C 
ATOM     17  H   UNL     1       2.663  13.631  18.264  0.00  0.00    +0.000 HD
ENDROOT
BRANCH   1  22
ATOM     18  C   UNL     1      -6.372  12.750  24.056  0.00  0.00    +0.000 C 
ATOM     19  C   UNL     1      -4.990  12.983  23.494  0.00  0.00    +0.000 A 
ATOM     20  C   UNL     1      -3.946  13.436  24.291  0.00  0.00    +0.000 A 
ATOM     21  C   UNL     1      -2.647  13.599  23.746  0.00  0.00    +0.000 A 
ATOM     22  C   UNL     1      -2.288  13.205  22.403  0.00  0.00    +0.000 A 
ATOM     23  C   UNL     1      -3.395  12.897  21.593  0.00  0.00    +0.000 A 
ATOM     24  C   UNL     1      -4.708  12.757  22.138  0.00  0.00    +0.000 A 
ENDBRANCH   1  22
BRANCH   2  25
ATOM     25  C   UNL     1      -0.365  11.651  19.995  0.00  0.00    +0.000 A 
ATOM     26  C   UNL     1      -0.826  11.214  18.754  0.00  0.00    +0.000 A 
ATOM     27  C   UNL     1      -0.222  10.122  18.101  0.00  0.00    +0.000 A 
ATOM     28  C   UNL     1       0.870   9.451  18.654  0.00  0.00    +0.000 A 
ATOM     29 CL   UNL     1       1.699   8.231  17.771  0.00  0.00    +0.000 Cl
ATOM     30  C   UNL     1       1.301   9.771  19.919  0.00  0.00    +0.000 A 
ATOM     31  C   UNL     1       0.647  10.803  20.596  0.00  0.00    +0.000 A 
ENDBRANCH   2  25
BRANCH   1  32
ATOM     32  O   UNL     1      -0.464  11.725  22.735  0.00  0.00    +0.000 OA
ATOM     33  H   UNL     1      -0.836  11.727  23.621  0.00  0.00    +0.000 HD
ENDBRANCH   1  32
TORSDOF 3
ENDMDL
MODEL 9
REMARK VINA RESULT:      -6.5      3.297      5.825
REMARK  Name = 
REMARK  4 active torsions:
REMARK  status: ('A' for Active; 'I' for Inactive)
REMARK    1  A    between atoms: C_1  and  C_2
REMARK    2  A    between atoms: C_5  and  C_6
REMARK    3  A    between atoms: C_6  and  O_7
REMARK    4  A    between atoms: C_8  and  C_9
REMARK                            x       y       z     vdW  Elec       q    Type
REMARK                         _______ _______ _______ _____ _____    ______ ____
ROOT
ATOM      1  C   UNL     1      -2.079  12.163  19.213  0.00  0.00    +0.000 C 
ATOM      2  C   UNL     1      -0.891  11.305  19.013  0.00  0.00    +0.000 C 
ATOM      3  C   UNL     1      -0.437  12.668  17.857  0.00  0.00    +0.000 C 
ATOM      4  C   UNL     1       0.041  13.861  18.601  0.00  0.00    +0.000 C 
ATOM      5  C   UNL     1       0.016  15.342  18.981  0.00  0.00    +0.000 C 
ATOM      6  O   UNL     1      -0.866  16.128  18.665  0.00  0.00    +0.000 OA
ATOM      7  C   UNL     1       1.195  15.771  19.872  0.00  0.00    +0.000 A 
ATOM      8  C   UNL     1       1.609  17.119  19.834  0.00  0.00    +0.000 A 
ATOM      9  C   UNL     1       2.820  17.529  20.427  0.00  0.00    +0.000 A 
ATOM     10  C   UNL     1       3.648  16.610  21.063  0.00  0.00    +0.000 A 
ATOM     11  C   UNL     1       3.216  15.322  21.207  0.00  0.00    +0.000 A 
ATOM     12  C   UNL     1       1.954  14.895  20.674  0.00  0.00    +0.000 A 
ATOM     13  N   UNL     1       1.696  13.544  20.928  0.00  0.00    +0.000 N 
ATOM     14  C   UNL     1       0.860  12.740  20.238  0.00  0.00    +0.000 C 
ATOM     15  O   UNL     1       1.454  11.743  19.794  0.00  0.00    +0.000 OA
ATOM     16  C   UNL     1      -0.672  13.284  19.772  0.00  0.00    +0.000 C 
ATOM     17  H   UNL     1       2.522  13.003  21.184  0.00  0.00    +0.000 HD
ENDROOT
BRANCH   1  22
ATOM     18  C   UNL     1      -3.801   9.986  13.829  0.00  0.00    +0.000 C 
ATOM     19  C   UNL     1      -3.492  10.391  15.250  0.00  0.00    +0.000 A 
ATOM     20  C   UNL     1      -2.402   9.868  15.936  0.00  0.00    +0.000 A 
ATOM     21  C   UNL     1      -2.109  10.303  17.254  0.00  0.00    +0.000 A 
ATOM     22  C   UNL     1      -2.816  11.373  17.918  0.00  0.00    +0.000 A 
ATOM     23  C   UNL     1      -3.992  11.767  17.256  0.00  0.00    +0.000 A 
ATOM     24  C   UNL     1      -4.300  11.309  15.938  0.00  0.00    +0.000 A 
ENDBRANCH   1  22
BRANCH   2  25
ATOM     25  C   UNL     1      -0.688  10.685  20.547  0.00  0.00    +0.000 A 
ATOM     26  C   UNL     1       0.037   9.500  20.672  0.00  0.00    +0.000 A 
ATOM     27  C   UNL     1       0.390   8.999  21.939  0.00  0.00    +0.000 A 
ATOM     28  C   UNL     1       0.052   9.672  23.113  0.00  0.00    +0.000 A 
ATOM     29 CL   UNL     1       0.633   9.135  24.640  0.00  0.00    +0.000 Cl
ATOM     30  C   UNL     1      -0.748  10.788  23.057  0.00  0.00    +0.000 A 
ATOM     31  C   UNL     1      -1.163  11.238  21.802  0.00  0.00    +0.000 A 
ENDBRANCH   2  25
BRANCH   1  32
ATOM     32  O   UNL     1      -3.079  11.982  20.196  0.00  0.00    +0.000 OA
ATOM     33  H   UNL     1      -2.738  11.669  21.038  0.00  0.00    +0.000 HD
ENDBRANCH   1  32
TORSDOF 3
ENDMDL
