MODEL 1
REMARK VINA RESULT:      -8.5      0.000      0.000
REMARK  Name = 
REMARK  10 active torsions:
REMARK  status: ('A' for Active; 'I' for Inactive)
REMARK    1  A    between atoms: C_1  and  O_2
REMARK    2  A    between atoms: O_2  and  C_3
REMARK    3  A    between atoms: C_9  and  C_10
REMARK    4  A    between atoms: C_14  and  C_15
REMARK    5  A    between atoms: C_15  and  N_16
REMARK    6  A    between atoms: C_22  and  N_23
REMARK    7  A    between atoms: C_24  and  C_26
REMARK    8  A    between atoms: C_26  and  C_27
REMARK    9  A    between atoms: C_26  and  C_28
REMARK   10  A    between atoms: C_26  and  C_29
REMARK                            x       y       z     vdW  Elec       q    Type
REMARK                         _______ _______ _______ _____ _____    ______ ____
ROOT
ATOM      1  N   UNL     1      -1.577  10.571  18.211  0.00  0.00    +0.000 N 
ATOM      2  C   UNL     1      -2.162   9.798  17.236  0.00  0.00    +0.000 A 
ATOM      3  N   UNL     1      -3.271  10.305  16.793  0.00  0.00    +0.000 NA
ATOM      4  C   UNL     1      -3.580  11.267  17.706  0.00  0.00    +0.000 A 
ATOM      5  C   UNL     1      -4.762  11.998  17.740  0.00  0.00    +0.000 A 
ATOM      6  C   UNL     1      -5.088  12.714  18.888  0.00  0.00    +0.000 A 
ATOM      7  C   UNL     1      -4.240  12.787  19.991  0.00  0.00    +0.000 A 
ATOM      8  C   UNL     1      -2.919  12.198  19.876  0.00  0.00    +0.000 A 
ATOM      9  C   UNL     1      -2.604  11.396  18.712  0.00  0.00    +0.000 A 
ENDROOT
BRANCH   7  10
ATOM     10  N   UNL     1      -4.759  13.336  21.239  0.00  0.00    +0.000 N 
ATOM     11  C   UNL     1      -5.648  12.681  22.123  0.00  0.00    +0.000 C 
ATOM     12  O   UNL     1      -6.343  11.714  21.806  0.00  0.00    +0.000 OA
ATOM     13  H   UNL     1      -4.397  14.241  21.513  0.00  0.00    +0.000 HD
BRANCH  11  14
ATOM     14  C   UNL     1      -5.785  13.231  23.589  0.00  0.00    +0.000 C 
ATOM     15  C   UNL     1      -4.795  12.524  24.523  0.00  0.00    +0.000 C 
ATOM     16  C   UNL     1      -5.426  14.753  23.635  0.00  0.00    +0.000 C 
ATOM     17  C   UNL     1      -7.219  13.112  24.108  0.00  0.00    +0.000 C 
ENDBRANCH  11  14
ENDBRANCH   7  10
BRANCH   1  18
ATOM     18  C   UNL     1      -0.104  10.667  18.229  0.00  0.00    +0.000 C 
BRANCH  18  23
ATOM     19  C   UNL     1       2.227   7.617  18.833  0.00  0.00    +0.000 A 
ATOM     20  C   UNL     1       2.165   7.520  20.237  0.00  0.00    +0.000 A 
ATOM     21  C   UNL     1       1.309   8.336  20.976  0.00  0.00    +0.000 A 
ATOM     22  C   UNL     1       0.536   9.310  20.343  0.00  0.00    +0.000 A 
ATOM     23  C   UNL     1       0.638   9.533  18.956  0.00  0.00    +0.000 A 
ATOM     24  C   UNL     1       1.427   8.622  18.230  0.00  0.00    +0.000 A 
BRANCH  19  31
ATOM     25  C   UNL     1       2.835   5.290  17.951  0.00  0.00    +0.000 A 
ATOM     26  C   UNL     1       3.691   4.445  17.229  0.00  0.00    +0.000 A 
ATOM     27  C   UNL     1       4.779   4.974  16.554  0.00  0.00    +0.000 A 
ATOM     28  F   UNL     1       5.580   4.155  15.853  0.00  0.00    +0.000 F 
ATOM     29  C   UNL     1       5.042   6.331  16.578  0.00  0.00    +0.000 A 
ATOM     30  C   UNL     1       4.207   7.171  17.323  0.00  0.00    +0.000 A 
ATOM     31  C   UNL     1       3.085   6.689  18.033  0.00  0.00    +0.000 A 
BRANCH  25  33
ATOM     32  C   UNL     1       1.442   3.422  18.444  0.00  0.00    +0.000 C 
ATOM     33  O   UNL     1       1.677   4.819  18.527  0.00  0.00    +0.000 OA
ENDBRANCH  25  33
ENDBRANCH  19  31
ENDBRANCH  18  23
ENDBRANCH   1  18
TORSDOF 6
ENDMDL
MODEL 2
REMARK VINA RESULT:      -8.4      2.730      4.235
REMARK  Name = 
REMARK  10 active torsions:
REMARK  status: ('A' for Active; 'I' for Inactive)
REMARK    1  A    between atoms: C_1  and  O_2
REMARK    2  A    between atoms: O_2  and  C_3
REMARK    3  A    between atoms: C_9  and  C_10
REMARK    4  A    between atoms: C_14  and  C_15
REMARK    5  A    between atoms: C_15  and  N_16
REMARK    6  A    between atoms: C_22  and  N_23
REMARK    7  A    between atoms: C_24  and  C_26
REMARK    8  A    between atoms: C_26  and  C_27
REMARK    9  A    between atoms: C_26  and  C_28
REMARK   10  A    between atoms: C_26  and  C_29
REMARK                            x       y       z     vdW  Elec       q    Type
REMARK                         _______ _______ _______ _____ _____    ______ ____
ROOT
ATOM      1  N   UNL     1       1.545   8.240  19.381  0.00  0.00    +0.000 N 
ATOM      2  C   UNL     1       2.013   8.379  18.095  0.00  0.00    +0.000 A 
ATOM      3  N   UNL     1       2.113   9.619  17.729  0.00  0.00    +0.000 NA
ATOM      4  C   UNL     1       1.408  10.299  18.677  0.00  0.00    +0.000 A 
ATOM      5  C   UNL     1       1.107  11.655  18.640  0.00  0.00    +0.000 A 
ATOM      6  C   UNL     1       0.127  12.159  19.491  0.00  0.00    +0.000 A 
ATOM      7  C   UNL     1      -0.523  11.368  20.436  0.00  0.00    +0.000 A 
ATOM      8  C   UNL     1      -0.063  10.003  20.616  0.00  0.00    +0.000 A 
ATOM      9  C   UNL     1       0.906   9.459  19.689  0.00  0.00    +0.000 A 
ENDROOT
BRANCH   7  10
ATOM     10  N   UNL     1      -1.705  11.902  21.104  0.00  0.00    +0.000 N 
ATOM     11  C   UNL     1      -1.791  12.259  22.470  0.00  0.00    +0.000 C 
ATOM     12  O   UNL     1      -0.998  11.873  23.332  0.00  0.00    +0.000 OA
ATOM     13  H   UNL     1      -2.508  12.081  20.515  0.00  0.00    +0.000 HD
BRANCH  11  14
ATOM     14  C   UNL     1      -2.979  13.179  22.929  0.00  0.00    +0.000 C 
ATOM     15  C   UNL     1      -3.769  12.513  24.063  0.00  0.00    +0.000 C 
ATOM     16  C   UNL     1      -2.432  14.527  23.506  0.00  0.00    +0.000 C 
ATOM     17  C   UNL     1      -3.893  13.552  21.761  0.00  0.00    +0.000 C 
ENDBRANCH  11  14
ENDBRANCH   7  10
BRANCH   1  18
ATOM     18  C   UNL     1       2.107   7.156  20.210  0.00  0.00    +0.000 C 
BRANCH  18  23
ATOM     19  C   UNL     1       3.916   4.668  17.835  0.00  0.00    +0.000 A 
ATOM     20  C   UNL     1       3.270   3.465  18.183  0.00  0.00    +0.000 A 
ATOM     21  C   UNL     1       2.200   3.457  19.076  0.00  0.00    +0.000 A 
ATOM     22  C   UNL     1       1.780   4.637  19.691  0.00  0.00    +0.000 A 
ATOM     23  C   UNL     1       2.456   5.853  19.471  0.00  0.00    +0.000 A 
ATOM     24  C   UNL     1       3.460   5.844  18.485  0.00  0.00    +0.000 A 
BRANCH  19  31
ATOM     25  C   UNL     1       6.390   4.730  17.174  0.00  0.00    +0.000 A 
ATOM     26  C   UNL     1       7.388   4.798  16.191  0.00  0.00    +0.000 A 
ATOM     27  C   UNL     1       7.040   4.791  14.849  0.00  0.00    +0.000 A 
ATOM     28  F   UNL     1       8.008   4.838  13.919  0.00  0.00    +0.000 F 
ATOM     29  C   UNL     1       5.717   4.719  14.456  0.00  0.00    +0.000 A 
ATOM     30  C   UNL     1       4.719   4.683  15.436  0.00  0.00    +0.000 A 
ATOM     31  C   UNL     1       5.012   4.689  16.818  0.00  0.00    +0.000 A 
BRANCH  25  33
ATOM     32  C   UNL     1       7.532   5.614  19.068  0.00  0.00    +0.000 C 
ATOM     33  O   UNL     1       6.703   4.607  18.509  0.00  0.00    +0.000 OA
ENDBRANCH  25  33
ENDBRANCH  19  31
ENDBRANCH  18  23
ENDBRANCH   1  18
TORSDOF 6
ENDMDL
MODEL 3
REMARK VINA RESULT:      -8.3      1.902      2.785
REMARK  Name = 
REMARK  10 active torsions:
REMARK  status: ('A' for Active; 'I' for Inactive)
REMARK    1  A    between atoms: C_1  and  O_2
REMARK    2  A    between atoms: O_2  and  C_3
REMARK    3  A    between atoms: C_9  and  C_10
REMARK    4  A    between atoms: C_14  and  C_15
REMARK    5  A    between atoms: C_15  and  N_16
REMARK    6  A    between atoms: C_22  and  N_23
REMARK    7  A    between atoms: C_24  and  C_26
REMARK    8  A    between atoms: C_26  and  C_27
REMARK    9  A    between atoms: C_26  and  C_28
REMARK   10  A    between atoms: C_26  and  C_29
REMARK                            x       y       z     vdW  Elec       q    Type
REMARK                         _______ _______ _______ _____ _____    ______ ____
ROOT
ATOM      1  N   UNL     1       0.533  11.651  19.127  0.00  0.00    +0.000 N 
ATOM      2  C   UNL     1       1.475  12.208  19.961  0.00  0.00    +0.000 A 
ATOM      3  N   UNL     1       0.993  12.517  21.125  0.00  0.00    +0.000 NA
ATOM      4  C   UNL     1      -0.356  12.448  20.950  0.00  0.00    +0.000 A 
ATOM      5  C   UNL     1      -1.311  12.833  21.884  0.00  0.00    +0.000 A 
ATOM      6  C   UNL     1      -2.630  13.010  21.477  0.00  0.00    +0.000 A 
ATOM      7  C   UNL     1      -3.053  12.749  20.175  0.00  0.00    +0.000 A 
ATOM      8  C   UNL     1      -2.103  12.151  19.256  0.00  0.00    +0.000 A 
ATOM      9  C   UNL     1      -0.717  12.029  19.656  0.00  0.00    +0.000 A 
ENDROOT
BRANCH   7  10
ATOM     10  N   UNL     1      -4.378  13.200  19.765  0.00  0.00    +0.000 N 
ATOM     11  C   UNL     1      -5.603  12.810  20.355  0.00  0.00    +0.000 C 
ATOM     12  O   UNL     1      -5.736  11.811  21.065  0.00  0.00    +0.000 OA
ATOM     13  H   UNL     1      -4.406  13.897  19.032  0.00  0.00    +0.000 HD
BRANCH  11  14
ATOM     14  C   UNL     1      -6.881  13.679  20.070  0.00  0.00    +0.000 C 
ATOM     15  C   UNL     1      -6.490  15.135  19.787  0.00  0.00    +0.000 C 
ATOM     16  C   UNL     1      -7.616  13.163  18.788  0.00  0.00    +0.000 C 
ATOM     17  C   UNL     1      -7.895  13.588  21.211  0.00  0.00    +0.000 C 
ENDBRANCH  11  14
ENDBRANCH   7  10
BRANCH   1  18
ATOM     18  C   UNL     1       0.963  10.564  18.225  0.00  0.00    +0.000 C 
BRANCH  18  23
ATOM     19  C   UNL     1       2.611   7.086  18.770  0.00  0.00    +0.000 A 
ATOM     20  C   UNL     1       2.303   6.866  20.128  0.00  0.00    +0.000 A 
ATOM     21  C   UNL     1       1.490   7.753  20.833  0.00  0.00    +0.000 A 
ATOM     22  C   UNL     1       1.008   8.911  20.223  0.00  0.00    +0.000 A 
ATOM     23  C   UNL     1       1.372   9.245  18.904  0.00  0.00    +0.000 A 
ATOM     24  C   UNL     1       2.103   8.277  18.190  0.00  0.00    +0.000 A 
BRANCH  19  31
ATOM     25  C   UNL     1       2.914   4.818  17.620  0.00  0.00    +0.000 A 
ATOM     26  C   UNL     1       3.718   3.898  16.931  0.00  0.00    +0.000 A 
ATOM     27  C   UNL     1       5.012   4.242  16.572  0.00  0.00    +0.000 A 
ATOM     28  F   UNL     1       5.764   3.357  15.897  0.00  0.00    +0.000 F 
ATOM     29  C   UNL     1       5.532   5.484  16.882  0.00  0.00    +0.000 A 
ATOM     30  C   UNL     1       4.741   6.391  17.597  0.00  0.00    +0.000 A 
ATOM     31  C   UNL     1       3.417   6.097  17.992  0.00  0.00    +0.000 A 
BRANCH  25  33
ATOM     32  C   UNL     1       1.292   3.352  18.565  0.00  0.00    +0.000 C 
ATOM     33  O   UNL     1       1.587   4.559  17.880  0.00  0.00    +0.000 OA
ENDBRANCH  25  33
ENDBRANCH  19  31
ENDBRANCH  18  23
ENDBRANCH   1  18
TORSDOF 6
ENDMDL
MODEL 4
REMARK VINA RESULT:      -8.2      2.153      3.081
REMARK  Name = 
REMARK  10 active torsions:
REMARK  status: ('A' for Active; 'I' for Inactive)
REMARK    1  A    between atoms: C_1  and  O_2
REMARK    2  A    between atoms: O_2  and  C_3
REMARK    3  A    between atoms: C_9  and  C_10
REMARK    4  A    between atoms: C_14  and  C_15
REMARK    5  A    between atoms: C_15  and  N_16
REMARK    6  A    between atoms: C_22  and  N_23
REMARK    7  A    between atoms: C_24  and  C_26
REMARK    8  A    between atoms: C_26  and  C_27
REMARK    9  A    between atoms: C_26  and  C_28
REMARK   10  A    between atoms: C_26  and  C_29
REMARK                            x       y       z     vdW  Elec       q    Type
REMARK                         _______ _______ _______ _____ _____    ______ ____
ROOT
ATOM      1  N   UNL     1       0.670  11.638  19.123  0.00  0.00    +0.000 N 
ATOM      2  C   UNL     1       1.601  12.216  19.955  0.00  0.00    +0.000 A 
ATOM      3  N   UNL     1       1.117  12.507  21.122  0.00  0.00    +0.000 NA
ATOM      4  C   UNL     1      -0.231  12.404  20.954  0.00  0.00    +0.000 A 
ATOM      5  C   UNL     1      -1.191  12.759  21.894  0.00  0.00    +0.000 A 
ATOM      6  C   UNL     1      -2.517  12.904  21.493  0.00  0.00    +0.000 A 
ATOM      7  C   UNL     1      -2.939  12.638  20.192  0.00  0.00    +0.000 A 
ATOM      8  C   UNL     1      -1.977  12.069  19.266  0.00  0.00    +0.000 A 
ATOM      9  C   UNL     1      -0.587  11.982  19.659  0.00  0.00    +0.000 A 
ENDROOT
BRANCH   7  10
ATOM     10  N   UNL     1      -4.277  13.057  19.789  0.00  0.00    +0.000 N 
ATOM     11  C   UNL     1      -5.179  12.299  19.006  0.00  0.00    +0.000 C 
ATOM     12  O   UNL     1      -4.843  11.344  18.303  0.00  0.00    +0.000 OA
ATOM     13  H   UNL     1      -4.597  13.943  20.158  0.00  0.00    +0.000 HD
BRANCH  11  14
ATOM     14  C   UNL     1      -6.696  12.710  19.005  0.00  0.00    +0.000 C 
ATOM     15  C   UNL     1      -7.520  11.726  19.844  0.00  0.00    +0.000 C 
ATOM     16  C   UNL     1      -6.880  14.116  19.667  0.00  0.00    +0.000 C 
ATOM     17  C   UNL     1      -7.250  12.828  17.585  0.00  0.00    +0.000 C 
ENDBRANCH  11  14
ENDBRANCH   7  10
BRANCH   1  18
ATOM     18  C   UNL     1       1.124  10.567  18.214  0.00  0.00    +0.000 C 
BRANCH  18  23
ATOM     19  C   UNL     1       2.667   7.036  18.725  0.00  0.00    +0.000 A 
ATOM     20  C   UNL     1       2.342   6.807  20.077  0.00  0.00    +0.000 A 
ATOM     21  C   UNL     1       1.549   7.707  20.787  0.00  0.00    +0.000 A 
ATOM     22  C   UNL     1       1.105   8.887  20.189  0.00  0.00    +0.000 A 
ATOM     23  C   UNL     1       1.490   9.228  18.878  0.00  0.00    +0.000 A 
ATOM     24  C   UNL     1       2.198   8.249  18.157  0.00  0.00    +0.000 A 
BRANCH  19  31
ATOM     25  C   UNL     1       2.950   4.739  17.627  0.00  0.00    +0.000 A 
ATOM     26  C   UNL     1       3.736   3.810  16.929  0.00  0.00    +0.000 A 
ATOM     27  C   UNL     1       5.007   4.160  16.503  0.00  0.00    +0.000 A 
ATOM     28  F   UNL     1       5.741   3.265  15.821  0.00  0.00    +0.000 F 
ATOM     29  C   UNL     1       5.523   5.417  16.754  0.00  0.00    +0.000 A 
ATOM     30  C   UNL     1       4.753   6.334  17.477  0.00  0.00    +0.000 A 
ATOM     31  C   UNL     1       3.452   6.035  17.939  0.00  0.00    +0.000 A 
BRANCH  25  33
ATOM     32  C   UNL     1       1.411   3.405  18.861  0.00  0.00    +0.000 C 
ATOM     33  O   UNL     1       1.641   4.472  17.954  0.00  0.00    +0.000 OA
ENDBRANCH  25  33
ENDBRANCH  19  31
ENDBRANCH  18  23
ENDBRANCH   1  18
TORSDOF 6
ENDMDL
MODEL 5
REMARK VINA RESULT:      -8.2      2.440      4.044
REMARK  Name = 
REMARK  10 active torsions:
REMARK  status: ('A' for Active; 'I' for Inactive)
REMARK    1  A    between atoms: C_1  and  O_2
REMARK    2  A    between atoms: O_2  and  C_3
REMARK    3  A    between atoms: C_9  and  C_10
REMARK    4  A    between atoms: C_14  and  C_15
REMARK    5  A    between atoms: C_15  and  N_16
REMARK    6  A    between atoms: C_22  and  N_23
REMARK    7  A    between atoms: C_24  and  C_26
REMARK    8  A    between atoms: C_26  and  C_27
REMARK    9  A    between atoms: C_26  and  C_28
REMARK   10  A    between atoms: C_26  and  C_29
REMARK                            x       y       z     vdW  Elec       q    Type
REMARK                         _______ _______ _______ _____ _____    ______ ____
ROOT
ATOM      1  N   UNL     1       1.420   8.620  19.584  0.00  0.00    +0.000 N 
ATOM      2  C   UNL     1       1.934   8.537  18.311  0.00  0.00    +0.000 A 
ATOM      3  N   UNL     1       2.148   9.701  17.780  0.00  0.00    +0.000 NA
ATOM      4  C   UNL     1       1.478  10.562  18.595  0.00  0.00    +0.000 A 
ATOM      5  C   UNL     1       1.293  11.919  18.358  0.00  0.00    +0.000 A 
ATOM      6  C   UNL     1       0.337  12.616  19.091  0.00  0.00    +0.000 A 
ATOM      7  C   UNL     1      -0.404  12.021  20.111  0.00  0.00    +0.000 A 
ATOM      8  C   UNL     1      -0.066  10.663  20.497  0.00  0.00    +0.000 A 
ATOM      9  C   UNL     1       0.878   9.917  19.693  0.00  0.00    +0.000 A 
ENDROOT
BRANCH   7  10
ATOM     10  N   UNL     1      -1.555  12.737  20.651  0.00  0.00    +0.000 N 
ATOM     11  C   UNL     1      -2.902  12.548  20.264  0.00  0.00    +0.000 C 
ATOM     12  O   UNL     1      -3.244  11.999  19.215  0.00  0.00    +0.000 OA
ATOM     13  H   UNL     1      -1.364  13.381  21.409  0.00  0.00    +0.000 HD
BRANCH  11  14
ATOM     14  C   UNL     1      -4.035  13.092  21.208  0.00  0.00    +0.000 C 
ATOM     15  C   UNL     1      -4.141  14.618  21.098  0.00  0.00    +0.000 C 
ATOM     16  C   UNL     1      -5.425  12.521  20.774  0.00  0.00    +0.000 C 
ATOM     17  C   UNL     1      -3.824  12.653  22.657  0.00  0.00    +0.000 C 
ENDBRANCH  11  14
ENDBRANCH   7  10
BRANCH   1  18
ATOM     18  C   UNL     1       1.866   7.623  20.578  0.00  0.00    +0.000 C 
BRANCH  18  23
ATOM     19  C   UNL     1       3.660   4.831  18.555  0.00  0.00    +0.000 A 
ATOM     20  C   UNL     1       3.026   3.687  19.080  0.00  0.00    +0.000 A 
ATOM     21  C   UNL     1       1.967   3.801  19.980  0.00  0.00    +0.000 A 
ATOM     22  C   UNL     1       1.548   5.054  20.426  0.00  0.00    +0.000 A 
ATOM     23  C   UNL     1       2.214   6.230  20.027  0.00  0.00    +0.000 A 
ATOM     24  C   UNL     1       3.204   6.085  19.038  0.00  0.00    +0.000 A 
BRANCH  19  31
ATOM     25  C   UNL     1       6.126   4.773  17.864  0.00  0.00    +0.000 A 
ATOM     26  C   UNL     1       7.112   4.707  16.868  0.00  0.00    +0.000 A 
ATOM     27  C   UNL     1       6.746   4.544  15.542  0.00  0.00    +0.000 A 
ATOM     28  F   UNL     1       7.702   4.464  14.602  0.00  0.00    +0.000 F 
ATOM     29  C   UNL     1       5.417   4.446  15.175  0.00  0.00    +0.000 A 
ATOM     30  C   UNL     1       4.431   4.544  16.163  0.00  0.00    +0.000 A 
ATOM     31  C   UNL     1       4.742   4.712  17.531  0.00  0.00    +0.000 A 
BRANCH  25  33
ATOM     32  C   UNL     1       7.526   5.658  19.576  0.00  0.00    +0.000 C 
ATOM     33  O   UNL     1       6.454   4.807  19.200  0.00  0.00    +0.000 OA
ENDBRANCH  25  33
ENDBRANCH  19  31
ENDBRANCH  18  23
ENDBRANCH   1  18
TORSDOF 6
ENDMDL
MODEL 6
REMARK VINA RESULT:      -8.1      2.450      4.231
REMARK  Name = 
REMARK  10 active torsions:
REMARK  status: ('A' for Active; 'I' for Inactive)
REMARK    1  A    between atoms: C_1  and  O_2
REMARK    2  A    between atoms: O_2  and  C_3
REMARK    3  A    between atoms: C_9  and  C_10
REMARK    4  A    between atoms: C_14  and  C_15
REMARK    5  A    between atoms: C_15  and  N_16
REMARK    6  A    between atoms: C_22  and  N_23
REMARK    7  A    between atoms: C_24  and  C_26
REMARK    8  A    between atoms: C_26  and  C_27
REMARK    9  A    between atoms: C_26  and  C_28
REMARK   10  A    between atoms: C_26  and  C_29
REMARK                            x       y       z     vdW  Elec       q    Type
REMARK                         _______ _______ _______ _____ _____    ______ ____
ROOT
ATOM      1  N   UNL     1       1.346   8.755  19.421  0.00  0.00    +0.000 N 
ATOM      2  C   UNL     1       2.259   8.897  18.401  0.00  0.00    +0.000 A 
ATOM      3  N   UNL     1       2.339  10.117  17.967  0.00  0.00    +0.000 NA
ATOM      4  C   UNL     1       1.241  10.726  18.495  0.00  0.00    +0.000 A 
ATOM      5  C   UNL     1       0.813  12.015  18.199  0.00  0.00    +0.000 A 
ATOM      6  C   UNL     1      -0.476  12.403  18.553  0.00  0.00    +0.000 A 
ATOM      7  C   UNL     1      -1.341  11.570  19.261  0.00  0.00    +0.000 A 
ATOM      8  C   UNL     1      -0.823  10.307  19.751  0.00  0.00    +0.000 A 
ATOM      9  C   UNL     1       0.492   9.873  19.326  0.00  0.00    +0.000 A 
ENDROOT
BRANCH   7  10
ATOM     10  N   UNL     1      -2.746  11.947  19.367  0.00  0.00    +0.000 N 
ATOM     11  C   UNL     1      -3.735  11.736  18.378  0.00  0.00    +0.000 C 
ATOM     12  O   UNL     1      -3.484  11.507  17.194  0.00  0.00    +0.000 OA
ATOM     13  H   UNL     1      -3.037  12.339  20.254  0.00  0.00    +0.000 HD
BRANCH  11  14
ATOM     14  C   UNL     1      -5.247  11.826  18.800  0.00  0.00    +0.000 C 
ATOM     15  C   UNL     1      -5.893  10.435  18.787  0.00  0.00    +0.000 C 
ATOM     16  C   UNL     1      -5.371  12.356  20.268  0.00  0.00    +0.000 C 
ATOM     17  C   UNL     1      -6.024  12.807  17.923  0.00  0.00    +0.000 C 
ENDBRANCH  11  14
ENDBRANCH   7  10
BRANCH   1  18
ATOM     18  C   UNL     1       1.669   7.818  20.515  0.00  0.00    +0.000 C 
BRANCH  18  23
ATOM     19  C   UNL     1       3.589   4.948  18.732  0.00  0.00    +0.000 A 
ATOM     20  C   UNL     1       3.021   3.826  19.367  0.00  0.00    +0.000 A 
ATOM     21  C   UNL     1       1.965   3.968  20.266  0.00  0.00    +0.000 A 
ATOM     22  C   UNL     1       1.484   5.233  20.602  0.00  0.00    +0.000 A 
ATOM     23  C   UNL     1       2.084   6.400  20.089  0.00  0.00    +0.000 A 
ATOM     24  C   UNL     1       3.073   6.216  19.104  0.00  0.00    +0.000 A 
BRANCH  19  31
ATOM     25  C   UNL     1       6.052   4.903  18.027  0.00  0.00    +0.000 A 
ATOM     26  C   UNL     1       7.033   4.798  17.030  0.00  0.00    +0.000 A 
ATOM     27  C   UNL     1       6.662   4.548  15.718  0.00  0.00    +0.000 A 
ATOM     28  F   UNL     1       7.614   4.432  14.778  0.00  0.00    +0.000 F 
ATOM     29  C   UNL     1       5.334   4.399  15.368  0.00  0.00    +0.000 A 
ATOM     30  C   UNL     1       4.353   4.535  16.356  0.00  0.00    +0.000 A 
ATOM     31  C   UNL     1       4.668   4.792  17.709  0.00  0.00    +0.000 A 
BRANCH  25  33
ATOM     32  C   UNL     1       7.620   5.665  19.650  0.00  0.00    +0.000 C 
ATOM     33  O   UNL     1       6.387   5.025  19.356  0.00  0.00    +0.000 OA
ENDBRANCH  25  33
ENDBRANCH  19  31
ENDBRANCH  18  23
ENDBRANCH   1  18
TORSDOF 6
ENDMDL
MODEL 7
REMARK VINA RESULT:      -7.9      2.425      3.590
REMARK  Name = 
REMARK  10 active torsions:
REMARK  status: ('A' for Active; 'I' for Inactive)
REMARK    1  A    between atoms: C_1  and  O_2
REMARK    2  A    between atoms: O_2  and  C_3
REMARK    3  A    between atoms: C_9  and  C_10
REMARK    4  A    between atoms: C_14  and  C_15
REMARK    5  A    between atoms: C_15  and  N_16
REMARK    6  A    between atoms: C_22  and  N_23
REMARK    7  A    between atoms: C_24  and  C_26
REMARK    8  A    between atoms: C_26  and  C_27
REMARK    9  A    between atoms: C_26  and  C_28
REMARK   10  A    between atoms: C_26  and  C_29
REMARK                            x       y       z     vdW  Elec       q    Type
REMARK                         _______ _______ _______ _____ _____    ______ ____
ROOT
ATOM      1  N   UNL     1       1.230  11.235  18.449  0.00  0.00    +0.000 N 
ATOM      2  C   UNL     1       2.098  12.152  18.995  0.00  0.00    +0.000 A 
ATOM      3  N   UNL     1       1.589  12.781  20.009  0.00  0.00    +0.000 NA
ATOM      4  C   UNL     1       0.258  12.496  19.937  0.00  0.00    +0.000 A 
ATOM      5  C   UNL     1      -0.731  13.061  20.733  0.00  0.00    +0.000 A 
ATOM      6  C   UNL     1      -2.066  12.930  20.358  0.00  0.00    +0.000 A 
ATOM      7  C   UNL     1      -2.461  12.191  19.245  0.00  0.00    +0.000 A 
ATOM      8  C   UNL     1      -1.448  11.431  18.535  0.00  0.00    +0.000 A 
ATOM      9  C   UNL     1      -0.055  11.620  18.881  0.00  0.00    +0.000 A 
ENDROOT
BRANCH   7  10
ATOM     10  N   UNL     1      -3.836  12.313  18.774  0.00  0.00    +0.000 N 
ATOM     11  C   UNL     1      -4.976  12.493  19.591  0.00  0.00    +0.000 C 
ATOM     12  O   UNL     1      -4.999  12.252  20.800  0.00  0.00    +0.000 OA
ATOM     13  H   UNL     1      -3.965  12.326  17.770  0.00  0.00    +0.000 HD
BRANCH  11  14
ATOM     14  C   UNL     1      -6.303  13.004  18.922  0.00  0.00    +0.000 C 
ATOM     15  C   UNL     1      -7.527  12.480  19.684  0.00  0.00    +0.000 C 
ATOM     16  C   UNL     1      -6.379  14.566  18.987  0.00  0.00    +0.000 C 
ATOM     17  C   UNL     1      -6.371  12.633  17.441  0.00  0.00    +0.000 C 
ENDBRANCH  11  14
ENDBRANCH   7  10
BRANCH   1  18
ATOM     18  C   UNL     1       1.790   9.964  17.948  0.00  0.00    +0.000 C 
BRANCH  18  23
ATOM     19  C   UNL     1       2.192   6.358  19.341  0.00  0.00    +0.000 A 
ATOM     20  C   UNL     1       1.770   6.549  20.672  0.00  0.00    +0.000 A 
ATOM     21  C   UNL     1       1.259   7.775  21.094  0.00  0.00    +0.000 A 
ATOM     22  C   UNL     1       1.207   8.861  20.221  0.00  0.00    +0.000 A 
ATOM     23  C   UNL     1       1.718   8.767  18.911  0.00  0.00    +0.000 A 
ATOM     24  C   UNL     1       2.125   7.489  18.487  0.00  0.00    +0.000 A 
BRANCH  19  31
ATOM     25  C   UNL     1       4.040   4.736  18.625  0.00  0.00    +0.000 A 
ATOM     26  C   UNL     1       4.441   3.484  18.132  0.00  0.00    +0.000 A 
ATOM     27  C   UNL     1       3.498   2.495  17.906  0.00  0.00    +0.000 A 
ATOM     28  F   UNL     1       3.899   1.297  17.451  0.00  0.00    +0.000 F 
ATOM     29  C   UNL     1       2.157   2.717  18.157  0.00  0.00    +0.000 A 
ATOM     30  C   UNL     1       1.752   3.974  18.618  0.00  0.00    +0.000 A 
ATOM     31  C   UNL     1       2.666   5.023  18.865  0.00  0.00    +0.000 A 
BRANCH  25  33
ATOM     32  C   UNL     1       6.276   5.250  19.265  0.00  0.00    +0.000 C 
ATOM     33  O   UNL     1       4.959   5.697  18.980  0.00  0.00    +0.000 OA
ENDBRANCH  25  33
ENDBRANCH  19  31
ENDBRANCH  18  23
ENDBRANCH   1  18
TORSDOF 6
ENDMDL
MODEL 8
REMARK VINA RESULT:      -7.9      1.987      2.957
REMARK  Name = 
REMARK  10 active torsions:
REMARK  status: ('A' for Active; 'I' for Inactive)
REMARK    1  A    between atoms: C_1  and  O_2
REMARK    2  A    between atoms: O_2  and  C_3
REMARK    3  A    between atoms: C_9  and  C_10
REMARK    4  A    between atoms: C_14  and  C_15
REMARK    5  A    between atoms: C_15  and  N_16
REMARK    6  A    between atoms: C_22  and  N_23
REMARK    7  A    between atoms: C_24  and  C_26
REMARK    8  A    between atoms: C_26  and  C_27
REMARK    9  A    between atoms: C_26  and  C_28
REMARK   10  A    between atoms: C_26  and  C_29
REMARK                            x       y       z     vdW  Elec       q    Type
REMARK                         _______ _______ _______ _____ _____    ______ ____
ROOT
ATOM      1  N   UNL     1      -0.041  12.292  19.919  0.00  0.00    +0.000 N 
ATOM      2  C   UNL     1       0.910  13.174  20.377  0.00  0.00    +0.000 A 
ATOM      3  N   UNL     1       0.761  13.463  21.633  0.00  0.00    +0.000 NA
ATOM      4  C   UNL     1      -0.488  13.007  21.930  0.00  0.00    +0.000 A 
ATOM      5  C   UNL     1      -1.158  13.213  23.129  0.00  0.00    +0.000 A 
ATOM      6  C   UNL     1      -2.529  12.974  23.194  0.00  0.00    +0.000 A 
ATOM      7  C   UNL     1      -3.252  12.467  22.117  0.00  0.00    +0.000 A 
ATOM      8  C   UNL     1      -2.517  12.057  20.934  0.00  0.00    +0.000 A 
ATOM      9  C   UNL     1      -1.106  12.367  20.839  0.00  0.00    +0.000 A 
ENDROOT
BRANCH   7  10
ATOM     10  N   UNL     1      -4.709  12.489  22.179  0.00  0.00    +0.000 N 
ATOM     11  C   UNL     1      -5.563  13.195  21.300  0.00  0.00    +0.000 C 
ATOM     12  O   UNL     1      -5.191  14.125  20.581  0.00  0.00    +0.000 OA
ATOM     13  H   UNL     1      -5.135  11.896  22.880  0.00  0.00    +0.000 HD
BRANCH  11  14
ATOM     14  C   UNL     1      -7.082  12.796  21.251  0.00  0.00    +0.000 C 
ATOM     15  C   UNL     1      -7.910  13.905  20.589  0.00  0.00    +0.000 C 
ATOM     16  C   UNL     1      -7.280  11.515  20.373  0.00  0.00    +0.000 C 
ATOM     17  C   UNL     1      -7.624  12.452  22.639  0.00  0.00    +0.000 C 
ENDBRANCH  11  14
ENDBRANCH   7  10
BRANCH   1  18
ATOM     18  C   UNL     1       0.376  11.274  18.935  0.00  0.00    +0.000 C 
BRANCH  18  23
ATOM     19  C   UNL     1       2.136   7.818  19.189  0.00  0.00    +0.000 A 
ATOM     20  C   UNL     1       1.906   7.512  20.546  0.00  0.00    +0.000 A 
ATOM     21  C   UNL     1       1.110   8.334  21.342  0.00  0.00    +0.000 A 
ATOM     22  C   UNL     1       0.567   9.512  20.827  0.00  0.00    +0.000 A 
ATOM     23  C   UNL     1       0.853   9.931  19.513  0.00  0.00    +0.000 A 
ATOM     24  C   UNL     1       1.569   9.026  18.707  0.00  0.00    +0.000 A 
BRANCH  19  31
ATOM     25  C   UNL     1       2.678   5.497  18.252  0.00  0.00    +0.000 A 
ATOM     26  C   UNL     1       3.471   4.659  17.454  0.00  0.00    +0.000 A 
ATOM     27  C   UNL     1       4.491   5.197  16.685  0.00  0.00    +0.000 A 
ATOM     28  F   UNL     1       5.230   4.384  15.913  0.00  0.00    +0.000 F 
ATOM     29  C   UNL     1       4.745   6.556  16.688  0.00  0.00    +0.000 A 
ATOM     30  C   UNL     1       3.975   7.388  17.507  0.00  0.00    +0.000 A 
ATOM     31  C   UNL     1       2.924   6.898  18.314  0.00  0.00    +0.000 A 
BRANCH  25  33
ATOM     32  C   UNL     1       1.467   3.607  19.050  0.00  0.00    +0.000 C 
ATOM     33  O   UNL     1       1.580   5.017  18.929  0.00  0.00    +0.000 OA
ENDBRANCH  25  33
ENDBRANCH  19  31
ENDBRANCH  18  23
ENDBRANCH   1  18
TORSDOF 6
ENDMDL
MODEL 9
REMARK VINA RESULT:      -7.9      1.839      2.624
REMARK  Name = 
REMARK  10 active torsions:
REMARK  status: ('A' for Active; 'I' for Inactive)
REMARK    1  A    between atoms: C_1  and  O_2
REMARK    2  A    between atoms: O_2  and  C_3
REMARK    3  A    between atoms: C_9  and  C_10
REMARK    4  A    between atoms: C_14  and  C_15
REMARK    5  A    between atoms: C_15  and  N_16
REMARK    6  A    between atoms: C_22  and  N_23
REMARK    7  A    between atoms: C_24  and  C_26
REMARK    8  A    between atoms: C_26  and  C_27
REMARK    9  A    between atoms: C_26  and  C_28
REMARK   10  A    between atoms: C_26  and  C_29
REMARK                            x       y       z     vdW  Elec       q    Type
REMARK                         _______ _______ _______ _____ _____    ______ ____
ROOT
ATOM      1  N   UNL     1       0.578  11.727  18.831  0.00  0.00    +0.000 N 
ATOM      2  C   UNL     1       1.712  12.485  19.009  0.00  0.00    +0.000 A 
ATOM      3  N   UNL     1       1.800  12.982  20.204  0.00  0.00    +0.000 NA
ATOM      4  C   UNL     1       0.554  12.806  20.725  0.00  0.00    +0.000 A 
ATOM      5  C   UNL     1       0.111  13.307  21.943  0.00  0.00    +0.000 A 
ATOM      6  C   UNL     1      -1.254  13.329  22.216  0.00  0.00    +0.000 A 
ATOM      7  C   UNL     1      -2.201  12.802  21.340  0.00  0.00    +0.000 A 
ATOM      8  C   UNL     1      -1.725  12.094  20.166  0.00  0.00    +0.000 A 
ATOM      9  C   UNL     1      -0.313  12.129  19.847  0.00  0.00    +0.000 A 
ENDROOT
BRANCH   7  10
ATOM     10  N   UNL     1      -3.611  13.092  21.574  0.00  0.00    +0.000 N 
ATOM     11  C   UNL     1      -4.328  12.801  22.758  0.00  0.00    +0.000 C 
ATOM     12  O   UNL     1      -3.952  11.991  23.608  0.00  0.00    +0.000 OA
ATOM     13  H   UNL     1      -4.091  13.597  20.840  0.00  0.00    +0.000 HD
BRANCH  11  14
ATOM     14  C   UNL     1      -5.701  13.528  22.999  0.00  0.00    +0.000 C 
ATOM     15  C   UNL     1      -6.543  12.762  24.027  0.00  0.00    +0.000 C 
ATOM     16  C   UNL     1      -5.463  14.954  23.597  0.00  0.00    +0.000 C 
ATOM     17  C   UNL     1      -6.471  13.733  21.694  0.00  0.00    +0.000 C 
ENDBRANCH  11  14
ENDBRANCH   7  10
BRANCH   1  18
ATOM     18  C   UNL     1       0.679  10.515  17.996  0.00  0.00    +0.000 C 
BRANCH  18  23
ATOM     19  C   UNL     1       2.710   7.245  18.530  0.00  0.00    +0.000 A 
ATOM     20  C   UNL     1       2.507   7.039  19.909  0.00  0.00    +0.000 A 
ATOM     21  C   UNL     1       1.649   7.859  20.639  0.00  0.00    +0.000 A 
ATOM     22  C   UNL     1       1.013   8.942  20.030  0.00  0.00    +0.000 A 
ATOM     23  C   UNL     1       1.263   9.268  18.682  0.00  0.00    +0.000 A 
ATOM     24  C   UNL     1       2.048   8.358  17.951  0.00  0.00    +0.000 A 
BRANCH  19  31
ATOM     25  C   UNL     1       3.468   4.901  17.824  0.00  0.00    +0.000 A 
ATOM     26  C   UNL     1       4.325   4.066  17.093  0.00  0.00    +0.000 A 
ATOM     27  C   UNL     1       5.265   4.617  16.236  0.00  0.00    +0.000 A 
ATOM     28  F   UNL     1       6.066   3.804  15.529  0.00  0.00    +0.000 F 
ATOM     29  C   UNL     1       5.377   5.986  16.086  0.00  0.00    +0.000 A 
ATOM     30  C   UNL     1       4.544   6.822  16.839  0.00  0.00    +0.000 A 
ATOM     31  C   UNL     1       3.569   6.319  17.729  0.00  0.00    +0.000 A 
BRANCH  25  33
ATOM     32  C   UNL     1       1.382   3.754  17.888  0.00  0.00    +0.000 C 
ATOM     33  O   UNL     1       2.442   4.390  18.586  0.00  0.00    +0.000 OA
ENDBRANCH  25  33
ENDBRANCH  19  31
ENDBRANCH  18  23
ENDBRANCH   1  18
TORSDOF 6
ENDMDL
