MODEL 1
REMARK VINA RESULT:      -8.1      0.000      0.000
REMARK  Name = 
REMARK  11 active torsions:
REMARK  status: ('A' for Active; 'I' for Inactive)
REMARK    1  A    between atoms: C_2  and  O_3
REMARK    2  A    between atoms: C_2  and  C_4
REMARK    3  A    between atoms: C_4  and  C_5
REMARK    4  A    between atoms: C_5  and  C_6
REMARK    5  A    between atoms: C_6  and  C_7
REMARK    6  A    between atoms: C_8  and  C_9
REMARK    7  A    between atoms: C_9  and  C_10
REMARK    8  A    between atoms: C_16  and  C_17
REMARK    9  A    between atoms: C_17  and  N_18
REMARK   10  A    between atoms: C_19  and  C_21
REMARK   11  A    between atoms: N_23  and  C_24
REMARK                            x       y       z     vdW  Elec       q    Type
REMARK                         _______ _______ _______ _____ _____    ______ ____
ROOT
ATOM      1  C   UNL     1       6.011   6.015  17.672  0.00  0.00    +0.000 C 
ATOM      2  C   UNL     1       5.104   6.260  16.453  0.00  0.00    +0.000 C 
ATOM      3  C   UNL     1       5.656   5.705  15.144  0.00  0.00    +0.000 C 
ATOM      4  C   UNL     1       5.591   4.201  15.390  0.00  0.00    +0.000 C 
ATOM      5  C   UNL     1       4.886   4.124  16.748  0.00  0.00    +0.000 C 
ATOM      6  O   UNL     1       4.046   5.302  16.709  0.00  0.00    +0.000 OA
ATOM      7  C   UNL     1       5.863   4.484  17.880  0.00  0.00    +0.000 C 
ENDROOT
BRANCH   1   8
ATOM      8  C   UNL     1       7.469   6.453  17.532  0.00  0.00    +0.000 C 
BRANCH   8  10
ATOM      9  C   UNL     1       8.497   8.603  18.304  0.00  0.00    +0.000 C 
ATOM     10  C   UNL     1       7.620   7.947  17.529  0.00  0.00    +0.000 C 
BRANCH   9  11
ATOM     11  C   UNL     1       8.672  10.094  18.299  0.00  0.00    +0.000 C 
BRANCH  11  12
ATOM     12  C   UNL     1       9.719  10.553  19.317  0.00  0.00    +0.000 C 
BRANCH  12  13
ATOM     13  C   UNL     1      10.134  12.013  19.116  0.00  0.00    +0.000 C 
BRANCH  13  15
ATOM     14  O   UNL     1      10.482  13.011  16.930  0.00  0.00    +0.000 OA
ATOM     15  C   UNL     1      10.835  12.231  17.801  0.00  0.00    +0.000 C 
BRANCH  15  16
ATOM     16  O   UNL     1      11.937  11.454  17.673  0.00  0.00    +0.000 OA
ATOM     17  H   UNL     1      11.753  10.497  17.722  0.00  0.00    +0.000 HD
ENDBRANCH  15  16
ENDBRANCH  13  15
ENDBRANCH  12  13
ENDBRANCH  11  12
ENDBRANCH   9  11
ENDBRANCH   8  10
ENDBRANCH   1   8
BRANCH   7  18
ATOM     18  C   UNL     1       5.282   4.180  19.267  0.00  0.00    +0.000 C 
BRANCH  18  19
ATOM     19  N   UNL     1       4.098   4.955  19.553  0.00  0.00    +0.000 N 
ATOM     20  C   UNL     1       3.028   4.515  20.290  0.00  0.00    +0.000 C 
ATOM     21  O   UNL     1       2.901   3.421  20.823  0.00  0.00    +0.000 OA
ATOM     22  H   UNL     1       4.018   5.901  19.180  0.00  0.00    +0.000 HD
BRANCH  20  23
ATOM     23  C   UNL     1       1.920   5.586  20.408  0.00  0.00    +0.000 C 
ATOM     24  O   UNL     1       0.767   5.186  20.521  0.00  0.00    +0.000 OA
ATOM     25  N   UNL     1       2.384   6.883  20.329  0.00  0.00    +0.000 N 
ATOM     26  H   UNL     1       3.373   6.985  20.125  0.00  0.00    +0.000 HD
BRANCH  25  27
ATOM     27  C   UNL     1       1.588   8.044  20.408  0.00  0.00    +0.000 A 
ATOM     28  C   UNL     1       0.961   8.450  21.589  0.00  0.00    +0.000 A 
ATOM     29  C   UNL     1       0.161   9.593  21.622  0.00  0.00    +0.000 A 
ATOM     30  C   UNL     1      -0.024  10.343  20.467  0.00  0.00    +0.000 A 
ATOM     31  C   UNL     1       0.606   9.959  19.284  0.00  0.00    +0.000 A 
ATOM     32  C   UNL     1       1.420   8.821  19.257  0.00  0.00    +0.000 A 
ENDBRANCH  25  27
ENDBRANCH  20  23
ENDBRANCH  18  19
ENDBRANCH   7  18
TORSDOF 11
ENDMDL
MODEL 2
REMARK VINA RESULT:      -7.9      3.121      4.999
REMARK  Name = 
REMARK  11 active torsions:
REMARK  status: ('A' for Active; 'I' for Inactive)
REMARK    1  A    between atoms: C_2  and  O_3
REMARK    2  A    between atoms: C_2  and  C_4
REMARK    3  A    between atoms: C_4  and  C_5
REMARK    4  A    between atoms: C_5  and  C_6
REMARK    5  A    between atoms: C_6  and  C_7
REMARK    6  A    between atoms: C_8  and  C_9
REMARK    7  A    between atoms: C_9  and  C_10
REMARK    8  A    between atoms: C_16  and  C_17
REMARK    9  A    between atoms: C_17  and  N_18
REMARK   10  A    between atoms: C_19  and  C_21
REMARK   11  A    between atoms: N_23  and  C_24
REMARK                            x       y       z     vdW  Elec       q    Type
REMARK                         _______ _______ _______ _____ _____    ______ ____
ROOT
ATOM      1  C   UNL     1       2.498   3.982  18.109  0.00  0.00    +0.000 C 
ATOM      2  C   UNL     1       1.065   3.737  18.615  0.00  0.00    +0.000 C 
ATOM      3  C   UNL     1       0.829   2.333  19.162  0.00  0.00    +0.000 C 
ATOM      4  C   UNL     1       1.697   2.336  20.417  0.00  0.00    +0.000 C 
ATOM      5  C   UNL     1       2.190   3.786  20.467  0.00  0.00    +0.000 C 
ATOM      6  O   UNL     1       1.087   4.492  19.853  0.00  0.00    +0.000 OA
ATOM      7  C   UNL     1       3.307   4.009  19.434  0.00  0.00    +0.000 C 
ENDROOT
BRANCH   1   8
ATOM      8  C   UNL     1       3.046   2.967  17.105  0.00  0.00    +0.000 C 
BRANCH   8  10
ATOM      9  C   UNL     1       4.816   4.452  16.137  0.00  0.00    +0.000 C 
ATOM     10  C   UNL     1       4.453   3.281  16.684  0.00  0.00    +0.000 C 
BRANCH   9  11
ATOM     11  C   UNL     1       6.221   4.787  15.727  0.00  0.00    +0.000 C 
BRANCH  11  12
ATOM     12  C   UNL     1       6.899   5.734  16.720  0.00  0.00    +0.000 C 
BRANCH  12  13
ATOM     13  C   UNL     1       7.234   5.053  18.049  0.00  0.00    +0.000 C 
BRANCH  13  15
ATOM     14  O   UNL     1       8.239   7.136  18.787  0.00  0.00    +0.000 OA
ATOM     15  C   UNL     1       7.853   6.005  19.038  0.00  0.00    +0.000 C 
BRANCH  15  16
ATOM     16  O   UNL     1       7.938   5.470  20.279  0.00  0.00    +0.000 OA
ATOM     17  H   UNL     1       7.231   5.764  20.885  0.00  0.00    +0.000 HD
ENDBRANCH  15  16
ENDBRANCH  13  15
ENDBRANCH  12  13
ENDBRANCH  11  12
ENDBRANCH   9  11
ENDBRANCH   8  10
ENDBRANCH   1   8
BRANCH   7  18
ATOM     18  C   UNL     1       4.004   5.364  19.615  0.00  0.00    +0.000 C 
BRANCH  18  19
ATOM     19  N   UNL     1       3.068   6.455  19.745  0.00  0.00    +0.000 N 
ATOM     20  C   UNL     1       2.843   7.417  18.793  0.00  0.00    +0.000 C 
ATOM     21  O   UNL     1       3.378   7.508  17.698  0.00  0.00    +0.000 OA
ATOM     22  H   UNL     1       2.528   6.550  20.606  0.00  0.00    +0.000 HD
BRANCH  20  23
ATOM     23  C   UNL     1       1.781   8.447  19.243  0.00  0.00    +0.000 C 
ATOM     24  O   UNL     1       1.428   8.409  20.416  0.00  0.00    +0.000 OA
ATOM     25  N   UNL     1       1.331   9.268  18.228  0.00  0.00    +0.000 N 
ATOM     26  H   UNL     1       1.683   9.053  17.301  0.00  0.00    +0.000 HD
BRANCH  25  27
ATOM     27  C   UNL     1       0.368  10.288  18.366  0.00  0.00    +0.000 A 
ATOM     28  C   UNL     1      -0.981  10.098  18.059  0.00  0.00    +0.000 A 
ATOM     29  C   UNL     1      -1.901  11.140  18.186  0.00  0.00    +0.000 A 
ATOM     30  C   UNL     1      -1.477  12.390  18.620  0.00  0.00    +0.000 A 
ATOM     31  C   UNL     1      -0.136  12.591  18.946  0.00  0.00    +0.000 A 
ATOM     32  C   UNL     1       0.782  11.541  18.831  0.00  0.00    +0.000 A 
ENDBRANCH  25  27
ENDBRANCH  20  23
ENDBRANCH  18  19
ENDBRANCH   7  18
TORSDOF 11
ENDMDL
MODEL 3
REMARK VINA RESULT:      -7.8      3.077      5.348
REMARK  Name = 
REMARK  11 active torsions:
REMARK  status: ('A' for Active; 'I' for Inactive)
REMARK    1  A    between atoms: C_2  and  O_3
REMARK    2  A    between atoms: C_2  and  C_4
REMARK    3  A    between atoms: C_4  and  C_5
REMARK    4  A    between atoms: C_5  and  C_6
REMARK    5  A    between atoms: C_6  and  C_7
REMARK    6  A    between atoms: C_8  and  C_9
REMARK    7  A    between atoms: C_9  and  C_10
REMARK    8  A    between atoms: C_16  and  C_17
REMARK    9  A    between atoms: C_17  and  N_18
REMARK   10  A    between atoms: C_19  and  C_21
REMARK   11  A    between atoms: N_23  and  C_24
REMARK                            x       y       z     vdW  Elec       q    Type
REMARK                         _______ _______ _______ _____ _____    ______ ____
ROOT
ATOM      1  C   UNL     1       2.068   4.250  18.710  0.00  0.00    +0.000 C 
ATOM      2  C   UNL     1       0.913   4.057  19.710  0.00  0.00    +0.000 C 
ATOM      3  C   UNL     1       1.220   3.075  20.835  0.00  0.00    +0.000 C 
ATOM      4  C   UNL     1       2.299   3.821  21.615  0.00  0.00    +0.000 C 
ATOM      5  C   UNL     1       2.346   5.171  20.894  0.00  0.00    +0.000 C 
ATOM      6  O   UNL     1       0.979   5.308  20.439  0.00  0.00    +0.000 OA
ATOM      7  C   UNL     1       3.098   5.041  19.559  0.00  0.00    +0.000 C 
ENDROOT
BRANCH   1   8
ATOM      8  C   UNL     1       2.658   2.977  18.101  0.00  0.00    +0.000 C 
BRANCH   8  10
ATOM      9  C   UNL     1       4.740   3.788  16.969  0.00  0.00    +0.000 C 
ATOM     10  C   UNL     1       3.508   3.261  16.896  0.00  0.00    +0.000 C 
BRANCH   9  11
ATOM     11  C   UNL     1       5.609   4.061  15.776  0.00  0.00    +0.000 C 
BRANCH  11  12
ATOM     12  C   UNL     1       7.047   4.397  16.177  0.00  0.00    +0.000 C 
BRANCH  12  13
ATOM     13  C   UNL     1       7.141   5.013  17.574  0.00  0.00    +0.000 C 
BRANCH  13  15
ATOM     14  O   UNL     1       6.748   7.254  16.725  0.00  0.00    +0.000 OA
ATOM     15  C   UNL     1       7.291   6.511  17.529  0.00  0.00    +0.000 C 
BRANCH  15  16
ATOM     16  O   UNL     1       8.111   6.974  18.502  0.00  0.00    +0.000 OA
ATOM     17  H   UNL     1       7.945   7.904  18.748  0.00  0.00    +0.000 HD
ENDBRANCH  15  16
ENDBRANCH  13  15
ENDBRANCH  12  13
ENDBRANCH  11  12
ENDBRANCH   9  11
ENDBRANCH   8  10
ENDBRANCH   1   8
BRANCH   7  18
ATOM     18  C   UNL     1       3.391   6.405  18.922  0.00  0.00    +0.000 C 
BRANCH  18  19
ATOM     19  N   UNL     1       2.406   7.401  19.269  0.00  0.00    +0.000 N 
ATOM     20  C   UNL     1       2.043   8.460  18.475  0.00  0.00    +0.000 C 
ATOM     21  O   UNL     1       2.474   8.728  17.363  0.00  0.00    +0.000 OA
ATOM     22  H   UNL     1       1.939   7.348  20.175  0.00  0.00    +0.000 HD
BRANCH  20  23
ATOM     23  C   UNL     1       0.965   9.346  19.140  0.00  0.00    +0.000 C 
ATOM     24  O   UNL     1       0.072   9.775  18.419  0.00  0.00    +0.000 OA
ATOM     25  N   UNL     1       1.178   9.575  20.485  0.00  0.00    +0.000 N 
ATOM     26  H   UNL     1       2.047   9.208  20.861  0.00  0.00    +0.000 HD
BRANCH  25  27
ATOM     27  C   UNL     1       0.350  10.345  21.327  0.00  0.00    +0.000 A 
ATOM     28  C   UNL     1       0.213  11.728  21.187  0.00  0.00    +0.000 A 
ATOM     29  C   UNL     1      -0.599  12.460  22.055  0.00  0.00    +0.000 A 
ATOM     30  C   UNL     1      -1.281  11.813  23.079  0.00  0.00    +0.000 A 
ATOM     31  C   UNL     1      -1.165  10.431  23.221  0.00  0.00    +0.000 A 
ATOM     32  C   UNL     1      -0.362   9.697  22.341  0.00  0.00    +0.000 A 
ENDBRANCH  25  27
ENDBRANCH  20  23
ENDBRANCH  18  19
ENDBRANCH   7  18
TORSDOF 11
ENDMDL
MODEL 4
REMARK VINA RESULT:      -7.8      0.984      1.127
REMARK  Name = 
REMARK  11 active torsions:
REMARK  status: ('A' for Active; 'I' for Inactive)
REMARK    1  A    between atoms: C_2  and  O_3
REMARK    2  A    between atoms: C_2  and  C_4
REMARK    3  A    between atoms: C_4  and  C_5
REMARK    4  A    between atoms: C_5  and  C_6
REMARK    5  A    between atoms: C_6  and  C_7
REMARK    6  A    between atoms: C_8  and  C_9
REMARK    7  A    between atoms: C_9  and  C_10
REMARK    8  A    between atoms: C_16  and  C_17
REMARK    9  A    between atoms: C_17  and  N_18
REMARK   10  A    between atoms: C_19  and  C_21
REMARK   11  A    between atoms: N_23  and  C_24
REMARK                            x       y       z     vdW  Elec       q    Type
REMARK                         _______ _______ _______ _____ _____    ______ ____
ROOT
ATOM      1  C   UNL     1       5.947   6.115  17.545  0.00  0.00    +0.000 C 
ATOM      2  C   UNL     1       5.334   6.063  16.134  0.00  0.00    +0.000 C 
ATOM      3  C   UNL     1       6.160   5.273  15.125  0.00  0.00    +0.000 C 
ATOM      4  C   UNL     1       6.037   3.851  15.664  0.00  0.00    +0.000 C 
ATOM      5  C   UNL     1       5.048   4.027  16.821  0.00  0.00    +0.000 C 
ATOM      6  O   UNL     1       4.242   5.133  16.352  0.00  0.00    +0.000 OA
ATOM      7  C   UNL     1       5.750   4.656  18.036  0.00  0.00    +0.000 C 
ENDROOT
BRANCH   1   8
ATOM      8  C   UNL     1       7.401   6.578  17.636  0.00  0.00    +0.000 C 
BRANCH   8  10
ATOM      9  C   UNL     1       8.587   8.709  18.211  0.00  0.00    +0.000 C 
ATOM     10  C   UNL     1       7.524   8.074  17.693  0.00  0.00    +0.000 C 
BRANCH   9  11
ATOM     11  C   UNL     1       8.731  10.202  18.259  0.00  0.00    +0.000 C 
BRANCH  11  12
ATOM     12  C   UNL     1       9.752  10.647  19.309  0.00  0.00    +0.000 C 
BRANCH  12  13
ATOM     13  C   UNL     1      10.221  12.089  19.101  0.00  0.00    +0.000 C 
BRANCH  13  15
ATOM     14  O   UNL     1      10.601  13.036  16.898  0.00  0.00    +0.000 OA
ATOM     15  C   UNL     1      10.938  12.271  17.790  0.00  0.00    +0.000 C 
BRANCH  15  16
ATOM     16  O   UNL     1      12.035  11.484  17.692  0.00  0.00    +0.000 OA
ATOM     17  H   UNL     1      11.885  10.660  17.189  0.00  0.00    +0.000 HD
ENDBRANCH  15  16
ENDBRANCH  13  15
ENDBRANCH  12  13
ENDBRANCH  11  12
ENDBRANCH   9  11
ENDBRANCH   8  10
ENDBRANCH   1   8
BRANCH   7  18
ATOM     18  C   UNL     1       4.875   4.621  19.295  0.00  0.00    +0.000 C 
BRANCH  18  19
ATOM     19  N   UNL     1       4.017   5.777  19.404  0.00  0.00    +0.000 N 
ATOM     20  C   UNL     1       2.812   5.803  20.061  0.00  0.00    +0.000 C 
ATOM     21  O   UNL     1       2.279   4.879  20.658  0.00  0.00    +0.000 OA
ATOM     22  H   UNL     1       4.295   6.650  18.956  0.00  0.00    +0.000 HD
BRANCH  20  23
ATOM     23  C   UNL     1       2.138   7.192  19.989  0.00  0.00    +0.000 C 
ATOM     24  O   UNL     1       2.252   7.814  18.939  0.00  0.00    +0.000 OA
ATOM     25  N   UNL     1       1.516   7.575  21.161  0.00  0.00    +0.000 N 
ATOM     26  H   UNL     1       1.638   6.947  21.949  0.00  0.00    +0.000 HD
BRANCH  25  27
ATOM     27  C   UNL     1       0.828   8.789  21.365  0.00  0.00    +0.000 A 
ATOM     28  C   UNL     1       0.200   9.105  22.572  0.00  0.00    +0.000 A 
ATOM     29  C   UNL     1      -0.492  10.307  22.728  0.00  0.00    +0.000 A 
ATOM     30  C   UNL     1      -0.565  11.207  21.671  0.00  0.00    +0.000 A 
ATOM     31  C   UNL     1       0.070  10.912  20.466  0.00  0.00    +0.000 A 
ATOM     32  C   UNL     1       0.775   9.713  20.316  0.00  0.00    +0.000 A 
ENDBRANCH  25  27
ENDBRANCH  20  23
ENDBRANCH  18  19
ENDBRANCH   7  18
TORSDOF 11
ENDMDL
MODEL 5
REMARK VINA RESULT:      -7.7      1.104      1.598
REMARK  Name = 
REMARK  11 active torsions:
REMARK  status: ('A' for Active; 'I' for Inactive)
REMARK    1  A    between atoms: C_2  and  O_3
REMARK    2  A    between atoms: C_2  and  C_4
REMARK    3  A    between atoms: C_4  and  C_5
REMARK    4  A    between atoms: C_5  and  C_6
REMARK    5  A    between atoms: C_6  and  C_7
REMARK    6  A    between atoms: C_8  and  C_9
REMARK    7  A    between atoms: C_9  and  C_10
REMARK    8  A    between atoms: C_16  and  C_17
REMARK    9  A    between atoms: C_17  and  N_18
REMARK   10  A    between atoms: C_19  and  C_21
REMARK   11  A    between atoms: N_23  and  C_24
REMARK                            x       y       z     vdW  Elec       q    Type
REMARK                         _______ _______ _______ _____ _____    ______ ____
ROOT
ATOM      1  C   UNL     1       6.049   5.811  18.044  0.00  0.00    +0.000 C 
ATOM      2  C   UNL     1       5.486   6.095  16.640  0.00  0.00    +0.000 C 
ATOM      3  C   UNL     1       6.098   5.237  15.539  0.00  0.00    +0.000 C 
ATOM      4  C   UNL     1       5.579   3.848  15.900  0.00  0.00    +0.000 C 
ATOM      5  C   UNL     1       4.641   4.147  17.074  0.00  0.00    +0.000 C 
ATOM      6  O   UNL     1       4.179   5.479  16.747  0.00  0.00    +0.000 OA
ATOM      7  C   UNL     1       5.452   4.412  18.353  0.00  0.00    +0.000 C 
ENDROOT
BRANCH   1   8
ATOM      8  C   UNL     1       7.572   5.846  18.185  0.00  0.00    +0.000 C 
BRANCH   8  10
ATOM      9  C   UNL     1       7.633   8.298  17.675  0.00  0.00    +0.000 C 
ATOM     10  C   UNL     1       8.098   7.242  18.361  0.00  0.00    +0.000 C 
BRANCH   9  11
ATOM     11  C   UNL     1       8.136   9.702  17.852  0.00  0.00    +0.000 C 
BRANCH  11  12
ATOM     12  C   UNL     1       9.212   9.794  18.937  0.00  0.00    +0.000 C 
BRANCH  12  13
ATOM     13  C   UNL     1       9.653  11.234  19.207  0.00  0.00    +0.000 C 
BRANCH  13  15
ATOM     14  O   UNL     1       9.522  12.924  17.469  0.00  0.00    +0.000 OA
ATOM     15  C   UNL     1      10.076  11.947  17.950  0.00  0.00    +0.000 C 
BRANCH  15  16
ATOM     16  O   UNL     1      11.171  11.385  17.386  0.00  0.00    +0.000 OA
ATOM     17  H   UNL     1      11.428  11.790  16.535  0.00  0.00    +0.000 HD
ENDBRANCH  15  16
ENDBRANCH  13  15
ENDBRANCH  12  13
ENDBRANCH  11  12
ENDBRANCH   9  11
ENDBRANCH   8  10
ENDBRANCH   1   8
BRANCH   7  18
ATOM     18  C   UNL     1       4.563   4.468  19.603  0.00  0.00    +0.000 C 
BRANCH  18  19
ATOM     19  N   UNL     1       3.785   5.681  19.675  0.00  0.00    +0.000 N 
ATOM     20  C   UNL     1       2.486   5.759  20.110  0.00  0.00    +0.000 C 
ATOM     21  O   UNL     1       1.786   4.837  20.507  0.00  0.00    +0.000 OA
ATOM     22  H   UNL     1       4.203   6.562  19.373  0.00  0.00    +0.000 HD
BRANCH  20  23
ATOM     23  C   UNL     1       1.938   7.203  20.061  0.00  0.00    +0.000 C 
ATOM     24  O   UNL     1       2.263   7.891  19.100  0.00  0.00    +0.000 OA
ATOM     25  N   UNL     1       1.169   7.549  21.154  0.00  0.00    +0.000 N 
ATOM     26  H   UNL     1       1.117   6.854  21.892  0.00  0.00    +0.000 HD
BRANCH  25  27
ATOM     27  C   UNL     1       0.552   8.799  21.359  0.00  0.00    +0.000 A 
ATOM     28  C   UNL     1       0.325   9.707  20.321  0.00  0.00    +0.000 A 
ATOM     29  C   UNL     1      -0.268  10.946  20.568  0.00  0.00    +0.000 A 
ATOM     30  C   UNL     1      -0.639  11.293  21.862  0.00  0.00    +0.000 A 
ATOM     31  C   UNL     1      -0.432  10.391  22.905  0.00  0.00    +0.000 A 
ATOM     32  C   UNL     1       0.150   9.144  22.654  0.00  0.00    +0.000 A 
ENDBRANCH  25  27
ENDBRANCH  20  23
ENDBRANCH  18  19
ENDBRANCH   7  18
TORSDOF 11
ENDMDL
MODEL 6
REMARK VINA RESULT:      -7.7      4.326      6.127
REMARK  Name = 
REMARK  11 active torsions:
REMARK  status: ('A' for Active; 'I' for Inactive)
REMARK    1  A    between atoms: C_2  and  O_3
REMARK    2  A    between atoms: C_2  and  C_4
REMARK    3  A    between atoms: C_4  and  C_5
REMARK    4  A    between atoms: C_5  and  C_6
REMARK    5  A    between atoms: C_6  and  C_7
REMARK    6  A    between atoms: C_8  and  C_9
REMARK    7  A    between atoms: C_9  and  C_10
REMARK    8  A    between atoms: C_16  and  C_17
REMARK    9  A    between atoms: C_17  and  N_18
REMARK   10  A    between atoms: C_19  and  C_21
REMARK   11  A    between atoms: N_23  and  C_24
REMARK                            x       y       z     vdW  Elec       q    Type
REMARK                         _______ _______ _______ _____ _____    ______ ____
ROOT
ATOM      1  C   UNL     1       2.368   4.376  18.260  0.00  0.00    +0.000 C 
ATOM      2  C   UNL     1       1.131   4.058  19.120  0.00  0.00    +0.000 C 
ATOM      3  C   UNL     1       1.320   2.883  20.073  0.00  0.00    +0.000 C 
ATOM      4  C   UNL     1       2.351   3.437  21.052  0.00  0.00    +0.000 C 
ATOM      5  C   UNL     1       2.492   4.891  20.587  0.00  0.00    +0.000 C 
ATOM      6  O   UNL     1       1.171   5.159  20.062  0.00  0.00    +0.000 OA
ATOM      7  C   UNL     1       3.347   4.965  19.311  0.00  0.00    +0.000 C 
ENDROOT
BRANCH   1   8
ATOM      8  C   UNL     1       2.971   3.206  17.481  0.00  0.00    +0.000 C 
BRANCH   8  10
ATOM      9  C   UNL     1       5.007   4.142  16.360  0.00  0.00    +0.000 C 
ATOM     10  C   UNL     1       4.455   3.350  17.293  0.00  0.00    +0.000 C 
BRANCH   9  11
ATOM     11  C   UNL     1       6.487   4.309  16.171  0.00  0.00    +0.000 C 
BRANCH  11  12
ATOM     12  C   UNL     1       6.866   4.449  14.695  0.00  0.00    +0.000 C 
BRANCH  12  13
ATOM     13  C   UNL     1       5.778   3.924  13.755  0.00  0.00    +0.000 C 
BRANCH  13  15
ATOM     14  O   UNL     1       7.079   4.084  11.712  0.00  0.00    +0.000 OA
ATOM     15  C   UNL     1       6.340   3.443  12.443  0.00  0.00    +0.000 C 
BRANCH  15  16
ATOM     16  O   UNL     1       5.938   2.185  12.144  0.00  0.00    +0.000 OA
ATOM     17  H   UNL     1       6.661   1.602  11.841  0.00  0.00    +0.000 HD
ENDBRANCH  15  16
ENDBRANCH  13  15
ENDBRANCH  12  13
ENDBRANCH  11  12
ENDBRANCH   9  11
ENDBRANCH   8  10
ENDBRANCH   1   8
BRANCH   7  18
ATOM     18  C   UNL     1       3.726   6.406  18.949  0.00  0.00    +0.000 C 
BRANCH  18  19
ATOM     19  N   UNL     1       2.684   7.351  19.272  0.00  0.00    +0.000 N 
ATOM     20  C   UNL     1       2.179   8.292  18.411  0.00  0.00    +0.000 C 
ATOM     21  O   UNL     1       2.513   8.481  17.250  0.00  0.00    +0.000 OA
ATOM     22  H   UNL     1       2.283   7.351  20.211  0.00  0.00    +0.000 HD
BRANCH  20  23
ATOM     23  C   UNL     1       1.075   9.152  19.067  0.00  0.00    +0.000 C 
ATOM     24  O   UNL     1       0.157   9.526  18.346  0.00  0.00    +0.000 OA
ATOM     25  N   UNL     1       1.295   9.424  20.402  0.00  0.00    +0.000 N 
ATOM     26  H   UNL     1       2.182   9.102  20.776  0.00  0.00    +0.000 HD
BRANCH  25  27
ATOM     27  C   UNL     1       0.447  10.182  21.235  0.00  0.00    +0.000 A 
ATOM     28  C   UNL     1       0.237  11.551  21.049  0.00  0.00    +0.000 A 
ATOM     29  C   UNL     1      -0.592  12.273  21.909  0.00  0.00    +0.000 A 
ATOM     30  C   UNL     1      -1.220  11.630  22.970  0.00  0.00    +0.000 A 
ATOM     31  C   UNL     1      -1.031  10.262  23.158  0.00  0.00    +0.000 A 
ATOM     32  C   UNL     1      -0.211   9.537  22.287  0.00  0.00    +0.000 A 
ENDBRANCH  25  27
ENDBRANCH  20  23
ENDBRANCH  18  19
ENDBRANCH   7  18
TORSDOF 11
ENDMDL
MODEL 7
REMARK VINA RESULT:      -7.6      0.724      1.172
REMARK  Name = 
REMARK  11 active torsions:
REMARK  status: ('A' for Active; 'I' for Inactive)
REMARK    1  A    between atoms: C_2  and  O_3
REMARK    2  A    between atoms: C_2  and  C_4
REMARK    3  A    between atoms: C_4  and  C_5
REMARK    4  A    between atoms: C_5  and  C_6
REMARK    5  A    between atoms: C_6  and  C_7
REMARK    6  A    between atoms: C_8  and  C_9
REMARK    7  A    between atoms: C_9  and  C_10
REMARK    8  A    between atoms: C_16  and  C_17
REMARK    9  A    between atoms: C_17  and  N_18
REMARK   10  A    between atoms: C_19  and  C_21
REMARK   11  A    between atoms: N_23  and  C_24
REMARK                            x       y       z     vdW  Elec       q    Type
REMARK                         _______ _______ _______ _____ _____    ______ ____
ROOT
ATOM      1  C   UNL     1       6.097   6.014  17.766  0.00  0.00    +0.000 C 
ATOM      2  C   UNL     1       5.160   6.379  16.600  0.00  0.00    +0.000 C 
ATOM      3  C   UNL     1       5.584   5.796  15.256  0.00  0.00    +0.000 C 
ATOM      4  C   UNL     1       5.371   4.302  15.482  0.00  0.00    +0.000 C 
ATOM      5  C   UNL     1       4.731   4.272  16.874  0.00  0.00    +0.000 C 
ATOM      6  O   UNL     1       4.021   5.533  16.897  0.00  0.00    +0.000 OA
ATOM      7  C   UNL     1       5.796   4.503  17.959  0.00  0.00    +0.000 C 
ENDROOT
BRANCH   1   8
ATOM      8  C   UNL     1       7.584   6.298  17.557  0.00  0.00    +0.000 C 
BRANCH   8  10
ATOM      9  C   UNL     1       7.947   8.777  17.529  0.00  0.00    +0.000 C 
ATOM     10  C   UNL     1       8.011   7.600  18.172  0.00  0.00    +0.000 C 
BRANCH   9  11
ATOM     11  C   UNL     1       8.352  10.088  18.136  0.00  0.00    +0.000 C 
BRANCH  11  12
ATOM     12  C   UNL     1       9.284   9.902  19.337  0.00  0.00    +0.000 C 
BRANCH  12  13
ATOM     13  C   UNL     1       9.498  11.198  20.122  0.00  0.00    +0.000 C 
BRANCH  13  15
ATOM     14  O   UNL     1      10.528  13.280  19.415  0.00  0.00    +0.000 OA
ATOM     15  C   UNL     1      10.571  12.063  19.515  0.00  0.00    +0.000 C 
BRANCH  15  16
ATOM     16  O   UNL     1      11.628  11.338  19.079  0.00  0.00    +0.000 OA
ATOM     17  H   UNL     1      11.377  10.520  18.607  0.00  0.00    +0.000 HD
ENDBRANCH  15  16
ENDBRANCH  13  15
ENDBRANCH  12  13
ENDBRANCH  11  12
ENDBRANCH   9  11
ENDBRANCH   8  10
ENDBRANCH   1   8
BRANCH   7  18
ATOM     18  C   UNL     1       5.257   4.234  19.369  0.00  0.00    +0.000 C 
BRANCH  18  19
ATOM     19  N   UNL     1       4.088   5.024  19.675  0.00  0.00    +0.000 N 
ATOM     20  C   UNL     1       2.931   4.535  20.228  0.00  0.00    +0.000 C 
ATOM     21  O   UNL     1       2.702   3.379  20.555  0.00  0.00    +0.000 OA
ATOM     22  H   UNL     1       4.088   6.021  19.460  0.00  0.00    +0.000 HD
BRANCH  20  23
ATOM     23  C   UNL     1       1.866   5.639  20.425  0.00  0.00    +0.000 C 
ATOM     24  O   UNL     1       0.711   5.274  20.609  0.00  0.00    +0.000 OA
ATOM     25  N   UNL     1       2.365   6.923  20.324  0.00  0.00    +0.000 N 
ATOM     26  H   UNL     1       3.341   6.995  20.057  0.00  0.00    +0.000 HD
BRANCH  25  27
ATOM     27  C   UNL     1       1.612   8.107  20.462  0.00  0.00    +0.000 A 
ATOM     28  C   UNL     1       1.294   8.929  19.378  0.00  0.00    +0.000 A 
ATOM     29  C   UNL     1       0.567  10.106  19.558  0.00  0.00    +0.000 A 
ATOM     30  C   UNL     1       0.151  10.477  20.832  0.00  0.00    +0.000 A 
ATOM     31  C   UNL     1       0.448   9.659  21.921  0.00  0.00    +0.000 A 
ATOM     32  C   UNL     1       1.165   8.471  21.736  0.00  0.00    +0.000 A 
ENDBRANCH  25  27
ENDBRANCH  20  23
ENDBRANCH  18  19
ENDBRANCH   7  18
TORSDOF 11
ENDMDL
MODEL 8
REMARK VINA RESULT:      -7.6      3.275      4.981
REMARK  Name = 
REMARK  11 active torsions:
REMARK  status: ('A' for Active; 'I' for Inactive)
REMARK    1  A    between atoms: C_2  and  O_3
REMARK    2  A    between atoms: C_2  and  C_4
REMARK    3  A    between atoms: C_4  and  C_5
REMARK    4  A    between atoms: C_5  and  C_6
REMARK    5  A    between atoms: C_6  and  C_7
REMARK    6  A    between atoms: C_8  and  C_9
REMARK    7  A    between atoms: C_9  and  C_10
REMARK    8  A    between atoms: C_16  and  C_17
REMARK    9  A    between atoms: C_17  and  N_18
REMARK   10  A    between atoms: C_19  and  C_21
REMARK   11  A    between atoms: N_23  and  C_24
REMARK                            x       y       z     vdW  Elec       q    Type
REMARK                         _______ _______ _______ _____ _____    ______ ____
ROOT
ATOM      1  C   UNL     1       2.454   4.300  18.136  0.00  0.00    +0.000 C 
ATOM      2  C   UNL     1       1.059   3.756  18.494  0.00  0.00    +0.000 C 
ATOM      3  C   UNL     1       1.006   2.241  18.660  0.00  0.00    +0.000 C 
ATOM      4  C   UNL     1       1.846   2.035  19.918  0.00  0.00    +0.000 C 
ATOM      5  C   UNL     1       2.138   3.475  20.353  0.00  0.00    +0.000 C 
ATOM      6  O   UNL     1       0.959   4.168  19.880  0.00  0.00    +0.000 OA
ATOM      7  C   UNL     1       3.230   4.092  19.464  0.00  0.00    +0.000 C 
ENDROOT
BRANCH   1   8
ATOM      8  C   UNL     1       3.150   3.652  16.939  0.00  0.00    +0.000 C 
BRANCH   8  10
ATOM      9  C   UNL     1       5.488   3.908  16.078  0.00  0.00    +0.000 C 
ATOM     10  C   UNL     1       4.322   4.456  16.453  0.00  0.00    +0.000 C 
BRANCH   9  11
ATOM     11  C   UNL     1       6.662   4.697  15.575  0.00  0.00    +0.000 C 
BRANCH  11  12
ATOM     12  C   UNL     1       7.253   5.603  16.657  0.00  0.00    +0.000 C 
BRANCH  12  13
ATOM     13  C   UNL     1       7.680   4.828  17.906  0.00  0.00    +0.000 C 
BRANCH  13  15
ATOM     14  O   UNL     1       7.338   5.395  20.242  0.00  0.00    +0.000 OA
ATOM     15  C   UNL     1       7.738   5.704  19.129  0.00  0.00    +0.000 C 
BRANCH  15  16
ATOM     16  O   UNL     1       8.299   6.909  18.871  0.00  0.00    +0.000 OA
ATOM     17  H   UNL     1       9.274   6.910  18.931  0.00  0.00    +0.000 HD
ENDBRANCH  15  16
ENDBRANCH  13  15
ENDBRANCH  12  13
ENDBRANCH  11  12
ENDBRANCH   9  11
ENDBRANCH   8  10
ENDBRANCH   1   8
BRANCH   7  18
ATOM     18  C   UNL     1       3.735   5.433  20.012  0.00  0.00    +0.000 C 
BRANCH  18  19
ATOM     19  N   UNL     1       3.063   6.563  19.416  0.00  0.00    +0.000 N 
ATOM     20  C   UNL     1       2.103   7.324  20.035  0.00  0.00    +0.000 C 
ATOM     21  O   UNL     1       1.672   7.184  21.170  0.00  0.00    +0.000 OA
ATOM     22  H   UNL     1       3.288   6.829  18.457  0.00  0.00    +0.000 HD
BRANCH  20  23
ATOM     23  C   UNL     1       1.579   8.457  19.123  0.00  0.00    +0.000 C 
ATOM     24  O   UNL     1       1.832   8.373  17.927  0.00  0.00    +0.000 OA
ATOM     25  N   UNL     1       0.912   9.458  19.800  0.00  0.00    +0.000 N 
ATOM     26  H   UNL     1       0.911   9.379  20.812  0.00  0.00    +0.000 HD
BRANCH  25  27
ATOM     27  C   UNL     1       0.335  10.602  19.211  0.00  0.00    +0.000 A 
ATOM     28  C   UNL     1      -0.950  10.601  18.664  0.00  0.00    +0.000 A 
ATOM     29  C   UNL     1      -1.477  11.748  18.068  0.00  0.00    +0.000 A 
ATOM     30  C   UNL     1      -0.719  12.911  18.010  0.00  0.00    +0.000 A 
ATOM     31  C   UNL     1       0.560  12.931  18.565  0.00  0.00    +0.000 A 
ATOM     32  C   UNL     1       1.082  11.784  19.175  0.00  0.00    +0.000 A 
ENDBRANCH  25  27
ENDBRANCH  20  23
ENDBRANCH  18  19
ENDBRANCH   7  18
TORSDOF 11
ENDMDL
MODEL 9
REMARK VINA RESULT:      -7.6      4.366      6.106
REMARK  Name = 
REMARK  11 active torsions:
REMARK  status: ('A' for Active; 'I' for Inactive)
REMARK    1  A    between atoms: C_2  and  O_3
REMARK    2  A    between atoms: C_2  and  C_4
REMARK    3  A    between atoms: C_4  and  C_5
REMARK    4  A    between atoms: C_5  and  C_6
REMARK    5  A    between atoms: C_6  and  C_7
REMARK    6  A    between atoms: C_8  and  C_9
REMARK    7  A    between atoms: C_9  and  C_10
REMARK    8  A    between atoms: C_16  and  C_17
REMARK    9  A    between atoms: C_17  and  N_18
REMARK   10  A    between atoms: C_19  and  C_21
REMARK   11  A    between atoms: N_23  and  C_24
REMARK                            x       y       z     vdW  Elec       q    Type
REMARK                         _______ _______ _______ _____ _____    ______ ____
ROOT
ATOM      1  C   UNL     1       2.291   4.276  18.396  0.00  0.00    +0.000 C 
ATOM      2  C   UNL     1       0.951   3.916  19.064  0.00  0.00    +0.000 C 
ATOM      3  C   UNL     1       0.906   2.510  19.650  0.00  0.00    +0.000 C 
ATOM      4  C   UNL     1       1.904   2.618  20.799  0.00  0.00    +0.000 C 
ATOM      5  C   UNL     1       2.266   4.107  20.776  0.00  0.00    +0.000 C 
ATOM      6  O   UNL     1       1.041   4.698  20.281  0.00  0.00    +0.000 OA
ATOM      7  C   UNL     1       3.236   4.405  19.621  0.00  0.00    +0.000 C 
ENDROOT
BRANCH   1   8
ATOM      8  C   UNL     1       2.813   3.292  17.349  0.00  0.00    +0.000 C 
BRANCH   8  10
ATOM      9  C   UNL     1       4.905   4.175  16.292  0.00  0.00    +0.000 C 
ATOM     10  C   UNL     1       4.303   3.371  17.182  0.00  0.00    +0.000 C 
BRANCH   9  11
ATOM     11  C   UNL     1       6.394   4.278  16.126  0.00  0.00    +0.000 C 
BRANCH  11  12
ATOM     12  C   UNL     1       6.792   4.574  14.678  0.00  0.00    +0.000 C 
BRANCH  12  13
ATOM     13  C   UNL     1       5.802   3.994  13.665  0.00  0.00    +0.000 C 
BRANCH  13  15
ATOM     14  O   UNL     1       7.274   4.231  11.749  0.00  0.00    +0.000 OA
ATOM     15  C   UNL     1       6.478   3.562  12.391  0.00  0.00    +0.000 C 
BRANCH  15  16
ATOM     16  O   UNL     1       6.110   2.315  12.013  0.00  0.00    +0.000 OA
ATOM     17  H   UNL     1       6.697   1.917  11.341  0.00  0.00    +0.000 HD
ENDBRANCH  15  16
ENDBRANCH  13  15
ENDBRANCH  12  13
ENDBRANCH  11  12
ENDBRANCH   9  11
ENDBRANCH   8  10
ENDBRANCH   1   8
BRANCH   7  18
ATOM     18  C   UNL     1       3.822   5.819  19.705  0.00  0.00    +0.000 C 
BRANCH  18  19
ATOM     19  N   UNL     1       2.807   6.830  19.886  0.00  0.00    +0.000 N 
ATOM     20  C   UNL     1       2.486   7.796  18.967  0.00  0.00    +0.000 C 
ATOM     21  O   UNL     1       2.986   7.957  17.862  0.00  0.00    +0.000 OA
ATOM     22  H   UNL     1       2.283   6.860  20.761  0.00  0.00    +0.000 HD
BRANCH  20  23
ATOM     23  C   UNL     1       1.358   8.727  19.468  0.00  0.00    +0.000 C 
ATOM     24  O   UNL     1       0.963   8.557  20.615  0.00  0.00    +0.000 OA
ATOM     25  N   UNL     1       0.907   9.622  18.519  0.00  0.00    +0.000 N 
ATOM     26  H   UNL     1       1.304   9.516  17.590  0.00  0.00    +0.000 HD
BRANCH  25  27
ATOM     27  C   UNL     1      -0.110  10.580  18.713  0.00  0.00    +0.000 A 
ATOM     28  C   UNL     1      -1.426  10.377  18.291  0.00  0.00    +0.000 A 
ATOM     29  C   UNL     1      -2.400  11.359  18.481  0.00  0.00    +0.000 A 
ATOM     30  C   UNL     1      -2.064  12.560  19.093  0.00  0.00    +0.000 A 
ATOM     31  C   UNL     1      -0.757  12.771  19.532  0.00  0.00    +0.000 A 
ATOM     32  C   UNL     1       0.214  11.780  19.354  0.00  0.00    +0.000 A 
ENDBRANCH  25  27
ENDBRANCH  20  23
ENDBRANCH  18  19
ENDBRANCH   7  18
TORSDOF 11
ENDMDL
