MODEL 1
REMARK VINA RESULT:      -7.0      0.000      0.000
REMARK  Name = 
REMARK  7 active torsions:
REMARK  status: ('A' for Active; 'I' for Inactive)
REMARK    1  A    between atoms: C_1  and  C_2
REMARK    2  A    between atoms: C_2  and  C_3
REMARK    3  A    between atoms: C_2  and  C_4
REMARK    4  A    between atoms: C_2  and  N_5
REMARK    5  A    between atoms: C_6  and  C_8
REMARK    6  A    between atoms: C_8  and  N_9
REMARK    7  A    between atoms: C_12  and  C_13
REMARK                            x       y       z     vdW  Elec       q    Type
REMARK                         _______ _______ _______ _____ _____    ______ ____
ROOT
ATOM      1  N   UNL     1       7.707   7.014  17.944  0.00  0.00    +0.000 N 
ATOM      2  N   UNL     1       6.994   7.741  17.073  0.00  0.00    +0.000 NA
ATOM      3  N   UNL     1       7.387   8.989  17.275  0.00  0.00    +0.000 NA
ATOM      4  C   UNL     1       8.343   8.954  18.265  0.00  0.00    +0.000 A 
ATOM      5  N   UNL     1       8.559   7.708  18.727  0.00  0.00    +0.000 NA
ENDROOT
BRANCH   4   6
ATOM      6  C   UNL     1       9.063  10.135  18.716  0.00  0.00    +0.000 A 
ATOM      7  C   UNL     1       9.628  11.025  17.790  0.00  0.00    +0.000 A 
ATOM      8  C   UNL     1      10.368  12.130  18.226  0.00  0.00    +0.000 A 
ATOM      9  C   UNL     1      10.546  12.350  19.590  0.00  0.00    +0.000 A 
ATOM     10 CL   UNL     1      11.486  13.688  20.126  0.00  0.00    +0.000 Cl
ATOM     11  C   UNL     1       9.977  11.488  20.522  0.00  0.00    +0.000 A 
ATOM     12  C   UNL     1       9.237  10.385  20.087  0.00  0.00    +0.000 A 
ENDBRANCH   4   6
BRANCH   1  13
ATOM     13  C   UNL     1       7.626   5.579  18.006  0.00  0.00    +0.000 C 
BRANCH  13  15
ATOM     14  N   UNL     1       5.264   4.948  18.041  0.00  0.00    +0.000 N 
ATOM     15  C   UNL     1       6.414   5.147  18.785  0.00  0.00    +0.000 C 
ATOM     16  O   UNL     1       6.458   5.048  20.010  0.00  0.00    +0.000 OA
ATOM     17  H   UNL     1       5.334   5.000  17.027  0.00  0.00    +0.000 HD
BRANCH  14  19
ATOM     18  C   UNL     1       2.964   4.212  17.495  0.00  0.00    +0.000 C 
ATOM     19  C   UNL     1       3.985   4.489  18.611  0.00  0.00    +0.000 C 
ATOM     20  C   UNL     1       3.426   5.523  19.603  0.00  0.00    +0.000 C 
ATOM     21  C   UNL     1       4.227   3.174  19.376  0.00  0.00    +0.000 C 
ENDBRANCH  14  19
ENDBRANCH  13  15
ENDBRANCH   1  13
TORSDOF 4
ENDMDL
MODEL 2
REMARK VINA RESULT:      -7.0      5.377      6.734
REMARK  Name = 
REMARK  7 active torsions:
REMARK  status: ('A' for Active; 'I' for Inactive)
REMARK    1  A    between atoms: C_1  and  C_2
REMARK    2  A    between atoms: C_2  and  C_3
REMARK    3  A    between atoms: C_2  and  C_4
REMARK    4  A    between atoms: C_2  and  N_5
REMARK    5  A    between atoms: C_6  and  C_8
REMARK    6  A    between atoms: C_8  and  N_9
REMARK    7  A    between atoms: C_12  and  C_13
REMARK                            x       y       z     vdW  Elec       q    Type
REMARK                         _______ _______ _______ _____ _____    ______ ____
ROOT
ATOM      1  N   UNL     1       3.421   4.598  19.838  0.00  0.00    +0.000 N 
ATOM      2  N   UNL     1       2.369   4.351  20.632  0.00  0.00    +0.000 NA
ATOM      3  N   UNL     1       1.704   5.495  20.674  0.00  0.00    +0.000 NA
ATOM      4  C   UNL     1       2.389   6.389  19.881  0.00  0.00    +0.000 A 
ATOM      5  N   UNL     1       3.501   5.851  19.345  0.00  0.00    +0.000 NA
ENDROOT
BRANCH   4   6
ATOM      6  C   UNL     1       1.923   7.742  19.624  0.00  0.00    +0.000 A 
ATOM      7  C   UNL     1       1.246   8.467  20.617  0.00  0.00    +0.000 A 
ATOM      8  C   UNL     1       0.750   9.747  20.349  0.00  0.00    +0.000 A 
ATOM      9  C   UNL     1       0.928  10.310  19.088  0.00  0.00    +0.000 A 
ATOM     10 CL   UNL     1       0.287  11.869  18.747  0.00  0.00    +0.000 Cl
ATOM     11  C   UNL     1       1.613   9.613  18.096  0.00  0.00    +0.000 A 
ATOM     12  C   UNL     1       2.110   8.334  18.364  0.00  0.00    +0.000 A 
ENDBRANCH   4   6
BRANCH   1  13
ATOM     13  C   UNL     1       4.373   3.583  19.476  0.00  0.00    +0.000 C 
BRANCH  13  15
ATOM     14  N   UNL     1       4.956   4.294  17.209  0.00  0.00    +0.000 N 
ATOM     15  C   UNL     1       5.392   4.128  18.512  0.00  0.00    +0.000 C 
ATOM     16  O   UNL     1       6.548   4.340  18.875  0.00  0.00    +0.000 OA
ATOM     17  H   UNL     1       3.969   4.144  17.011  0.00  0.00    +0.000 HD
BRANCH  14  19
ATOM     18  C   UNL     1       5.411   4.216  14.777  0.00  0.00    +0.000 C 
ATOM     19  C   UNL     1       5.789   4.847  16.127  0.00  0.00    +0.000 C 
ATOM     20  C   UNL     1       7.283   4.627  16.420  0.00  0.00    +0.000 C 
ATOM     21  C   UNL     1       5.538   6.364  16.034  0.00  0.00    +0.000 C 
ENDBRANCH  14  19
ENDBRANCH  13  15
ENDBRANCH   1  13
TORSDOF 4
ENDMDL
MODEL 3
REMARK VINA RESULT:      -6.9      4.672      6.766
REMARK  Name = 
REMARK  7 active torsions:
REMARK  status: ('A' for Active; 'I' for Inactive)
REMARK    1  A    between atoms: C_1  and  C_2
REMARK    2  A    between atoms: C_2  and  C_3
REMARK    3  A    between atoms: C_2  and  C_4
REMARK    4  A    between atoms: C_2  and  N_5
REMARK    5  A    between atoms: C_6  and  C_8
REMARK    6  A    between atoms: C_8  and  N_9
REMARK    7  A    between atoms: C_12  and  C_13
REMARK                            x       y       z     vdW  Elec       q    Type
REMARK                         _______ _______ _______ _____ _____    ______ ____
ROOT
ATOM      1  N   UNL     1       3.605   4.548  19.708  0.00  0.00    +0.000 N 
ATOM      2  N   UNL     1       2.452   4.114  20.235  0.00  0.00    +0.000 NA
ATOM      3  N   UNL     1       1.706   5.202  20.353  0.00  0.00    +0.000 NA
ATOM      4  C   UNL     1       2.451   6.255  19.872  0.00  0.00    +0.000 A 
ATOM      5  N   UNL     1       3.678   5.873  19.468  0.00  0.00    +0.000 NA
ENDROOT
BRANCH   4   6
ATOM      6  C   UNL     1       1.939   7.613  19.775  0.00  0.00    +0.000 A 
ATOM      7  C   UNL     1       1.320   8.224  20.876  0.00  0.00    +0.000 A 
ATOM      8  C   UNL     1       0.778   9.509  20.764  0.00  0.00    +0.000 A 
ATOM      9  C   UNL     1       0.851  10.189  19.551  0.00  0.00    +0.000 A 
ATOM     10 CL   UNL     1       0.154  11.754  19.402  0.00  0.00    +0.000 Cl
ATOM     11  C   UNL     1       1.478   9.605  18.454  0.00  0.00    +0.000 A 
ATOM     12  C   UNL     1       2.021   8.322  18.566  0.00  0.00    +0.000 A 
ENDBRANCH   4   6
BRANCH   1  13
ATOM     13  C   UNL     1       4.679   3.659  19.357  0.00  0.00    +0.000 C 
BRANCH  13  15
ATOM     14  N   UNL     1       5.297   4.829  17.300  0.00  0.00    +0.000 N 
ATOM     15  C   UNL     1       5.718   4.374  18.537  0.00  0.00    +0.000 C 
ATOM     16  O   UNL     1       6.875   4.475  18.941  0.00  0.00    +0.000 OA
ATOM     17  H   UNL     1       4.308   4.749  17.072  0.00  0.00    +0.000 HD
BRANCH  14  19
ATOM     18  C   UNL     1       7.087   6.530  17.134  0.00  0.00    +0.000 C 
ATOM     19  C   UNL     1       6.151   5.583  16.366  0.00  0.00    +0.000 C 
ATOM     20  C   UNL     1       5.297   6.374  15.362  0.00  0.00    +0.000 C 
ATOM     21  C   UNL     1       7.021   4.587  15.575  0.00  0.00    +0.000 C 
ENDBRANCH  14  19
ENDBRANCH  13  15
ENDBRANCH   1  13
TORSDOF 4
ENDMDL
MODEL 4
REMARK VINA RESULT:      -6.9      4.737      6.632
REMARK  Name = 
REMARK  7 active torsions:
REMARK  status: ('A' for Active; 'I' for Inactive)
REMARK    1  A    between atoms: C_1  and  C_2
REMARK    2  A    between atoms: C_2  and  C_3
REMARK    3  A    between atoms: C_2  and  C_4
REMARK    4  A    between atoms: C_2  and  N_5
REMARK    5  A    between atoms: C_6  and  C_8
REMARK    6  A    between atoms: C_8  and  N_9
REMARK    7  A    between atoms: C_12  and  C_13
REMARK                            x       y       z     vdW  Elec       q    Type
REMARK                         _______ _______ _______ _____ _____    ______ ____
ROOT
ATOM      1  N   UNL     1       3.201   4.922  19.883  0.00  0.00    +0.000 N 
ATOM      2  N   UNL     1       2.239   4.765  20.802  0.00  0.00    +0.000 NA
ATOM      3  N   UNL     1       1.605   5.927  20.828  0.00  0.00    +0.000 NA
ATOM      4  C   UNL     1       2.216   6.739  19.899  0.00  0.00    +0.000 A 
ATOM      5  N   UNL     1       3.252   6.132  19.289  0.00  0.00    +0.000 NA
ENDROOT
BRANCH   4   6
ATOM      6  C   UNL     1       1.752   8.082  19.590  0.00  0.00    +0.000 A 
ATOM      7  C   UNL     1       2.032   8.667  18.345  0.00  0.00    +0.000 A 
ATOM      8  C   UNL     1       1.632   9.980  18.071  0.00  0.00    +0.000 A 
ATOM      9  C   UNL     1       0.952  10.715  19.039  0.00  0.00    +0.000 A 
ATOM     10 CL   UNL     1       0.493  12.340  18.715  0.00  0.00    +0.000 Cl
ATOM     11  C   UNL     1       0.650  10.144  20.272  0.00  0.00    +0.000 A 
ATOM     12  C   UNL     1       1.047   8.832  20.546  0.00  0.00    +0.000 A 
ENDBRANCH   4   6
BRANCH   1  13
ATOM     13  C   UNL     1       4.087   3.857  19.499  0.00  0.00    +0.000 C 
BRANCH  13  15
ATOM     14  N   UNL     1       5.097   4.736  17.452  0.00  0.00    +0.000 N 
ATOM     15  C   UNL     1       5.293   4.398  18.780  0.00  0.00    +0.000 C 
ATOM     16  O   UNL     1       6.383   4.463  19.345  0.00  0.00    +0.000 OA
ATOM     17  H   UNL     1       4.149   4.701  17.084  0.00  0.00    +0.000 HD
BRANCH  14  19
ATOM     18  C   UNL     1       5.653   5.397  15.133  0.00  0.00    +0.000 C 
ATOM     19  C   UNL     1       6.140   5.315  16.588  0.00  0.00    +0.000 C 
ATOM     20  C   UNL     1       7.438   4.494  16.673  0.00  0.00    +0.000 C 
ATOM     21  C   UNL     1       6.446   6.746  17.072  0.00  0.00    +0.000 C 
ENDBRANCH  14  19
ENDBRANCH  13  15
ENDBRANCH   1  13
TORSDOF 4
ENDMDL
MODEL 5
REMARK VINA RESULT:      -6.9      4.555      6.851
REMARK  Name = 
REMARK  7 active torsions:
REMARK  status: ('A' for Active; 'I' for Inactive)
REMARK    1  A    between atoms: C_1  and  C_2
REMARK    2  A    between atoms: C_2  and  C_3
REMARK    3  A    between atoms: C_2  and  C_4
REMARK    4  A    between atoms: C_2  and  N_5
REMARK    5  A    between atoms: C_6  and  C_8
REMARK    6  A    between atoms: C_8  and  N_9
REMARK    7  A    between atoms: C_12  and  C_13
REMARK                            x       y       z     vdW  Elec       q    Type
REMARK                         _______ _______ _______ _____ _____    ______ ____
ROOT
ATOM      1  N   UNL     1       3.276   4.723  19.817  0.00  0.00    +0.000 N 
ATOM      2  N   UNL     1       2.287   4.500  20.693  0.00  0.00    +0.000 NA
ATOM      3  N   UNL     1       1.644   5.655  20.775  0.00  0.00    +0.000 NA
ATOM      4  C   UNL     1       2.278   6.530  19.922  0.00  0.00    +0.000 A 
ATOM      5  N   UNL     1       3.337   5.970  19.307  0.00  0.00    +0.000 NA
ENDROOT
BRANCH   4   6
ATOM      6  C   UNL     1       1.815   7.889  19.689  0.00  0.00    +0.000 A 
ATOM      7  C   UNL     1       1.162   8.606  20.703  0.00  0.00    +0.000 A 
ATOM      8  C   UNL     1       0.667   9.892  20.458  0.00  0.00    +0.000 A 
ATOM      9  C   UNL     1       0.822  10.467  19.199  0.00  0.00    +0.000 A 
ATOM     10 CL   UNL     1       0.183  12.033  18.888  0.00  0.00    +0.000 Cl
ATOM     11  C   UNL     1       1.483   9.777  18.187  0.00  0.00    +0.000 A 
ATOM     12  C   UNL     1       1.979   8.493  18.431  0.00  0.00    +0.000 A 
ENDBRANCH   4   6
BRANCH   1  13
ATOM     13  C   UNL     1       4.182   3.690  19.391  0.00  0.00    +0.000 C 
BRANCH  13  15
ATOM     14  N   UNL     1       5.677   5.083  18.048  0.00  0.00    +0.000 N 
ATOM     15  C   UNL     1       4.784   4.026  18.054  0.00  0.00    +0.000 C 
ATOM     16  O   UNL     1       4.435   3.424  17.041  0.00  0.00    +0.000 OA
ATOM     17  H   UNL     1       5.948   5.487  18.942  0.00  0.00    +0.000 HD
BRANCH  14  19
ATOM     18  C   UNL     1       5.417   6.091  15.803  0.00  0.00    +0.000 C 
ATOM     19  C   UNL     1       6.400   5.542  16.849  0.00  0.00    +0.000 C 
ATOM     20  C   UNL     1       7.240   4.403  16.248  0.00  0.00    +0.000 C 
ATOM     21  C   UNL     1       7.356   6.681  17.252  0.00  0.00    +0.000 C 
ENDBRANCH  14  19
ENDBRANCH  13  15
ENDBRANCH   1  13
TORSDOF 4
ENDMDL
MODEL 6
REMARK VINA RESULT:      -6.9      0.876      1.099
REMARK  Name = 
REMARK  7 active torsions:
REMARK  status: ('A' for Active; 'I' for Inactive)
REMARK    1  A    between atoms: C_1  and  C_2
REMARK    2  A    between atoms: C_2  and  C_3
REMARK    3  A    between atoms: C_2  and  C_4
REMARK    4  A    between atoms: C_2  and  N_5
REMARK    5  A    between atoms: C_6  and  C_8
REMARK    6  A    between atoms: C_8  and  N_9
REMARK    7  A    between atoms: C_12  and  C_13
REMARK                            x       y       z     vdW  Elec       q    Type
REMARK                         _______ _______ _______ _____ _____    ______ ____
ROOT
ATOM      1  N   UNL     1       7.787   6.908  18.208  0.00  0.00    +0.000 N 
ATOM      2  N   UNL     1       7.142   7.546  17.221  0.00  0.00    +0.000 NA
ATOM      3  N   UNL     1       7.527   8.809  17.330  0.00  0.00    +0.000 NA
ATOM      4  C   UNL     1       8.409   8.871  18.385  0.00  0.00    +0.000 A 
ATOM      5  N   UNL     1       8.584   7.675  18.979  0.00  0.00    +0.000 NA
ENDROOT
BRANCH   4   6
ATOM      6  C   UNL     1       9.102  10.090  18.771  0.00  0.00    +0.000 A 
ATOM      7  C   UNL     1       9.623  10.956  17.797  0.00  0.00    +0.000 A 
ATOM      8  C   UNL     1      10.337  12.099  18.171  0.00  0.00    +0.000 A 
ATOM      9  C   UNL     1      10.535  12.383  19.520  0.00  0.00    +0.000 A 
ATOM     10 CL   UNL     1      11.444  13.769  19.980  0.00  0.00    +0.000 Cl
ATOM     11  C   UNL     1      10.009  11.545  20.500  0.00  0.00    +0.000 A 
ATOM     12  C   UNL     1       9.294  10.404  20.126  0.00  0.00    +0.000 A 
ENDBRANCH   4   6
BRANCH   1  13
ATOM     13  C   UNL     1       7.693   5.486  18.401  0.00  0.00    +0.000 C 
BRANCH  13  15
ATOM     14  N   UNL     1       5.329   5.243  18.979  0.00  0.00    +0.000 N 
ATOM     15  C   UNL     1       6.319   4.989  18.046  0.00  0.00    +0.000 C 
ATOM     16  O   UNL     1       6.132   4.344  17.016  0.00  0.00    +0.000 OA
ATOM     17  H   UNL     1       5.563   5.831  19.777  0.00  0.00    +0.000 HD
BRANCH  14  19
ATOM     18  C   UNL     1       3.780   3.358  18.564  0.00  0.00    +0.000 C 
ATOM     19  C   UNL     1       3.915   4.871  18.801  0.00  0.00    +0.000 C 
ATOM     20  C   UNL     1       3.286   5.653  17.636  0.00  0.00    +0.000 C 
ATOM     21  C   UNL     1       3.144   5.224  20.088  0.00  0.00    +0.000 C 
ENDBRANCH  14  19
ENDBRANCH  13  15
ENDBRANCH   1  13
TORSDOF 4
ENDMDL
MODEL 7
REMARK VINA RESULT:      -6.9      6.245      7.425
REMARK  Name = 
REMARK  7 active torsions:
REMARK  status: ('A' for Active; 'I' for Inactive)
REMARK    1  A    between atoms: C_1  and  C_2
REMARK    2  A    between atoms: C_2  and  C_3
REMARK    3  A    between atoms: C_2  and  C_4
REMARK    4  A    between atoms: C_2  and  N_5
REMARK    5  A    between atoms: C_6  and  C_8
REMARK    6  A    between atoms: C_8  and  N_9
REMARK    7  A    between atoms: C_12  and  C_13
REMARK                            x       y       z     vdW  Elec       q    Type
REMARK                         _______ _______ _______ _____ _____    ______ ____
ROOT
ATOM      1  N   UNL     1       2.775   7.417  18.364  0.00  0.00    +0.000 N 
ATOM      2  N   UNL     1       2.552   8.382  17.461  0.00  0.00    +0.000 NA
ATOM      3  N   UNL     1       1.747   9.237  18.073  0.00  0.00    +0.000 NA
ATOM      4  C   UNL     1       1.529   8.746  19.341  0.00  0.00    +0.000 A 
ATOM      5  N   UNL     1       2.159   7.575  19.554  0.00  0.00    +0.000 NA
ENDROOT
BRANCH   4   6
ATOM      6  C   UNL     1       0.743   9.451  20.342  0.00  0.00    +0.000 A 
ATOM      7  C   UNL     1       0.593   8.925  21.634  0.00  0.00    +0.000 A 
ATOM      8  C   UNL     1      -0.209   9.577  22.577  0.00  0.00    +0.000 A 
ATOM      9  C   UNL     1      -0.865  10.757  22.234  0.00  0.00    +0.000 A 
ATOM     10 CL   UNL     1      -1.879  11.538  23.382  0.00  0.00    +0.000 Cl
ATOM     11  C   UNL     1      -0.712  11.302  20.962  0.00  0.00    +0.000 A 
ATOM     12  C   UNL     1       0.090  10.653  20.020  0.00  0.00    +0.000 A 
ENDBRANCH   4   6
BRANCH   1  13
ATOM     13  C   UNL     1       3.663   6.314  18.116  0.00  0.00    +0.000 C 
BRANCH  13  15
ATOM     14  N   UNL     1       2.927   4.530  19.619  0.00  0.00    +0.000 N 
ATOM     15  C   UNL     1       2.954   5.003  18.319  0.00  0.00    +0.000 C 
ATOM     16  O   UNL     1       2.496   4.383  17.360  0.00  0.00    +0.000 OA
ATOM     17  H   UNL     1       3.284   5.135  20.356  0.00  0.00    +0.000 HD
BRANCH  14  19
ATOM     18  C   UNL     1       2.851   2.078  19.291  0.00  0.00    +0.000 C 
ATOM     19  C   UNL     1       2.252   3.286  20.029  0.00  0.00    +0.000 C 
ATOM     20  C   UNL     1       0.739   3.375  19.771  0.00  0.00    +0.000 C 
ATOM     21  C   UNL     1       2.469   3.079  21.540  0.00  0.00    +0.000 C 
ENDBRANCH  14  19
ENDBRANCH  13  15
ENDBRANCH   1  13
TORSDOF 4
ENDMDL
MODEL 8
REMARK VINA RESULT:      -6.8      4.759      7.278
REMARK  Name = 
REMARK  7 active torsions:
REMARK  status: ('A' for Active; 'I' for Inactive)
REMARK    1  A    between atoms: C_1  and  C_2
REMARK    2  A    between atoms: C_2  and  C_3
REMARK    3  A    between atoms: C_2  and  C_4
REMARK    4  A    between atoms: C_2  and  N_5
REMARK    5  A    between atoms: C_6  and  C_8
REMARK    6  A    between atoms: C_8  and  N_9
REMARK    7  A    between atoms: C_12  and  C_13
REMARK                            x       y       z     vdW  Elec       q    Type
REMARK                         _______ _______ _______ _____ _____    ______ ____
ROOT
ATOM      1  N   UNL     1       2.929   6.198  19.239  0.00  0.00    +0.000 N 
ATOM      2  N   UNL     1       2.997   7.045  18.203  0.00  0.00    +0.000 NA
ATOM      3  N   UNL     1       2.290   8.099  18.584  0.00  0.00    +0.000 NA
ATOM      4  C   UNL     1       1.835   7.838  19.856  0.00  0.00    +0.000 A 
ATOM      5  N   UNL     1       2.212   6.623  20.298  0.00  0.00    +0.000 NA
ENDROOT
BRANCH   4   6
ATOM      6  C   UNL     1       1.073   8.798  20.640  0.00  0.00    +0.000 A 
ATOM      7  C   UNL     1       0.838   8.581  22.006  0.00  0.00    +0.000 A 
ATOM      8  C   UNL     1       0.058   9.478  22.744  0.00  0.00    +0.000 A 
ATOM      9  C   UNL     1      -0.491  10.596  22.121  0.00  0.00    +0.000 A 
ATOM     10 CL   UNL     1      -1.479  11.679  23.020  0.00  0.00    +0.000 Cl
ATOM     11  C   UNL     1      -0.253  10.837  20.771  0.00  0.00    +0.000 A 
ATOM     12  C   UNL     1       0.528   9.942  20.033  0.00  0.00    +0.000 A 
ENDBRANCH   4   6
BRANCH   1  13
ATOM     13  C   UNL     1       3.627   4.940  19.257  0.00  0.00    +0.000 C 
BRANCH  13  15
ATOM     14  N   UNL     1       5.372   5.251  17.572  0.00  0.00    +0.000 N 
ATOM     15  C   UNL     1       5.081   5.131  18.920  0.00  0.00    +0.000 C 
ATOM     16  O   UNL     1       5.937   5.112  19.802  0.00  0.00    +0.000 OA
ATOM     17  H   UNL     1       4.595   5.310  16.917  0.00  0.00    +0.000 HD
BRANCH  14  19
ATOM     18  C   UNL     1       7.729   4.502  17.674  0.00  0.00    +0.000 C 
ATOM     19  C   UNL     1       6.727   5.481  17.041  0.00  0.00    +0.000 C 
ATOM     20  C   UNL     1       7.171   6.933  17.284  0.00  0.00    +0.000 C 
ATOM     21  C   UNL     1       6.712   5.233  15.520  0.00  0.00    +0.000 C 
ENDBRANCH  14  19
ENDBRANCH  13  15
ENDBRANCH   1  13
TORSDOF 4
ENDMDL
MODEL 9
REMARK VINA RESULT:      -6.8      6.178      7.310
REMARK  Name = 
REMARK  7 active torsions:
REMARK  status: ('A' for Active; 'I' for Inactive)
REMARK    1  A    between atoms: C_1  and  C_2
REMARK    2  A    between atoms: C_2  and  C_3
REMARK    3  A    between atoms: C_2  and  C_4
REMARK    4  A    between atoms: C_2  and  N_5
REMARK    5  A    between atoms: C_6  and  C_8
REMARK    6  A    between atoms: C_8  and  N_9
REMARK    7  A    between atoms: C_12  and  C_13
REMARK                            x       y       z     vdW  Elec       q    Type
REMARK                         _______ _______ _______ _____ _____    ______ ____
ROOT
ATOM      1  N   UNL     1       2.880   7.289  18.495  0.00  0.00    +0.000 N 
ATOM      2  N   UNL     1       2.699   8.246  17.575  0.00  0.00    +0.000 NA
ATOM      3  N   UNL     1       1.862   9.102  18.140  0.00  0.00    +0.000 NA
ATOM      4  C   UNL     1       1.584   8.620  19.399  0.00  0.00    +0.000 A 
ATOM      5  N   UNL     1       2.206   7.452  19.651  0.00  0.00    +0.000 NA
ENDROOT
BRANCH   4   6
ATOM      6  C   UNL     1       0.747   9.329  20.355  0.00  0.00    +0.000 A 
ATOM      7  C   UNL     1       0.001  10.449  19.959  0.00  0.00    +0.000 A 
ATOM      8  C   UNL     1      -0.759  11.163  20.892  0.00  0.00    +0.000 A 
ATOM      9  C   UNL     1      -0.777  10.761  22.226  0.00  0.00    +0.000 A 
ATOM     10 CL   UNL     1      -1.681  11.659  23.380  0.00  0.00    +0.000 Cl
ATOM     11  C   UNL     1      -0.056   9.642  22.633  0.00  0.00    +0.000 A 
ATOM     12  C   UNL     1       0.702   8.927  21.700  0.00  0.00    +0.000 A 
ENDBRANCH   4   6
BRANCH   1  13
ATOM     13  C   UNL     1       3.783   6.186  18.298  0.00  0.00    +0.000 C 
BRANCH  13  15
ATOM     14  N   UNL     1       2.966   4.346  19.686  0.00  0.00    +0.000 N 
ATOM     15  C   UNL     1       3.055   4.874  18.411  0.00  0.00    +0.000 C 
ATOM     16  O   UNL     1       2.636   4.302  17.406  0.00  0.00    +0.000 OA
ATOM     17  H   UNL     1       3.293   4.914  20.465  0.00  0.00    +0.000 HD
BRANCH  14  19
ATOM     18  C   UNL     1       2.856   1.919  19.213  0.00  0.00    +0.000 C 
ATOM     19  C   UNL     1       2.263   3.092  20.010  0.00  0.00    +0.000 C 
ATOM     20  C   UNL     1       0.756   3.222  19.731  0.00  0.00    +0.000 C 
ATOM     21  C   UNL     1       2.448   2.793  21.510  0.00  0.00    +0.000 C 
ENDBRANCH  14  19
ENDBRANCH  13  15
ENDBRANCH   1  13
TORSDOF 4
ENDMDL
