MODEL 1
REMARK VINA RESULT:      -7.0      0.000      0.000
REMARK  Name = 
REMARK  8 active torsions:
REMARK  status: ('A' for Active; 'I' for Inactive)
REMARK    1  A    between atoms: C_1  and  C_2
REMARK    2  A    between atoms: C_2  and  C_3
REMARK    3  A    between atoms: C_3  and  C_4
REMARK    4  A    between atoms: C_4  and  O_6
REMARK    5  A    between atoms: O_6  and  C_7
REMARK    6  A    between atoms: C_12  and  O_13
REMARK    7  A    between atoms: C_15  and  O_16
REMARK    8  A    between atoms: C_17  and  O_18
REMARK                            x       y       z     vdW  Elec       q    Type
REMARK                         _______ _______ _______ _____ _____    ______ ____
ROOT
ATOM      1  C   UNL     1       4.160   5.058  18.077  0.00  0.00    +0.000 C 
ATOM      2  C   UNL     1       2.629   4.936  18.262  0.00  0.00    +0.000 C 
ATOM      3  N   UNL     1       2.353   4.387  19.595  0.00  0.00    +0.000 NA
ATOM      4  C   UNL     1       0.941   4.289  20.010  0.00  0.00    +0.000 C 
ATOM      5  C   UNL     1       0.784   2.897  20.645  0.00  0.00    +0.000 C 
ATOM      6  C   UNL     1       2.217   2.512  21.009  0.00  0.00    +0.000 C 
ATOM      7  C   UNL     1       2.914   3.046  19.761  0.00  0.00    +0.000 C 
ATOM      8  C   UNL     1       4.445   3.126  19.751  0.00  0.00    +0.000 C 
ATOM      9  C   UNL     1       4.868   3.711  18.377  0.00  0.00    +0.000 C 
ENDROOT
BRANCH   6  10
ATOM     10  O   UNL     1       2.645   3.151  22.194  0.00  0.00    +0.000 OA
ATOM     11  H   UNL     1       3.410   3.748  21.998  0.00  0.00    +0.000 HD
ENDBRANCH   6  10
BRANCH   8  12
ATOM     12  O   UNL     1       5.024   1.863  19.968  0.00  0.00    +0.000 OA
ATOM     13  H   UNL     1       5.765   1.753  19.316  0.00  0.00    +0.000 HD
ENDBRANCH   8  12
BRANCH   9  14
ATOM     14  O   UNL     1       6.264   3.849  18.297  0.00  0.00    +0.000 OA
ATOM     15  H   UNL     1       6.558   3.407  17.457  0.00  0.00    +0.000 HD
ENDBRANCH   9  14
BRANCH   1  16
ATOM     16  O   UNL     1       4.421   5.403  16.765  0.00  0.00    +0.000 OA
BRANCH  16  17
ATOM     17  C   UNL     1       5.289   6.339  16.315  0.00  0.00    +0.000 C 
ATOM     18  O   UNL     1       5.568   6.429  15.128  0.00  0.00    +0.000 OA
BRANCH  17  19
ATOM     19  C   UNL     1       5.891   7.284  17.314  0.00  0.00    +0.000 C 
BRANCH  19  21
ATOM     20  C   UNL     1       8.091   8.392  17.837  0.00  0.00    +0.000 C 
ATOM     21  C   UNL     1       7.407   7.092  17.419  0.00  0.00    +0.000 C 
ENDBRANCH  19  21
ENDBRANCH  17  19
ENDBRANCH  16  17
ENDBRANCH   1  16
TORSDOF 7
ENDMDL
MODEL 2
REMARK VINA RESULT:      -6.9      2.867      3.850
REMARK  Name = 
REMARK  8 active torsions:
REMARK  status: ('A' for Active; 'I' for Inactive)
REMARK    1  A    between atoms: C_1  and  C_2
REMARK    2  A    between atoms: C_2  and  C_3
REMARK    3  A    between atoms: C_3  and  C_4
REMARK    4  A    between atoms: C_4  and  O_6
REMARK    5  A    between atoms: O_6  and  C_7
REMARK    6  A    between atoms: C_12  and  O_13
REMARK    7  A    between atoms: C_15  and  O_16
REMARK    8  A    between atoms: C_17  and  O_18
REMARK                            x       y       z     vdW  Elec       q    Type
REMARK                         _______ _______ _______ _____ _____    ______ ____
ROOT
ATOM      1  C   UNL     1       5.674   4.765  16.133  0.00  0.00    +0.000 C 
ATOM      2  C   UNL     1       4.303   4.087  16.366  0.00  0.00    +0.000 C 
ATOM      3  N   UNL     1       3.675   4.679  17.554  0.00  0.00    +0.000 NA
ATOM      4  C   UNL     1       2.308   4.240  17.887  0.00  0.00    +0.000 C 
ATOM      5  C   UNL     1       2.305   3.989  19.406  0.00  0.00    +0.000 C 
ATOM      6  C   UNL     1       3.510   4.790  19.897  0.00  0.00    +0.000 C 
ATOM      7  C   UNL     1       4.473   4.462  18.760  0.00  0.00    +0.000 C 
ATOM      8  C   UNL     1       5.784   5.249  18.657  0.00  0.00    +0.000 C 
ATOM      9  C   UNL     1       6.547   4.716  17.415  0.00  0.00    +0.000 C 
ENDROOT
BRANCH   6  10
ATOM     10  O   UNL     1       3.218   6.168  19.990  0.00  0.00    +0.000 OA
ATOM     11  H   UNL     1       3.248   6.582  19.091  0.00  0.00    +0.000 HD
ENDBRANCH   6  10
BRANCH   8  12
ATOM     12  O   UNL     1       6.555   5.114  19.825  0.00  0.00    +0.000 OA
ATOM     13  H   UNL     1       6.532   4.159  20.096  0.00  0.00    +0.000 HD
ENDBRANCH   8  12
BRANCH   9  14
ATOM     14  O   UNL     1       7.753   5.412  17.227  0.00  0.00    +0.000 OA
ATOM     15  H   UNL     1       8.054   5.730  18.120  0.00  0.00    +0.000 HD
ENDBRANCH   9  14
BRANCH   1  16
ATOM     16  O   UNL     1       6.339   4.086  15.130  0.00  0.00    +0.000 OA
BRANCH  16  17
ATOM     17  C   UNL     1       6.961   4.614  14.049  0.00  0.00    +0.000 C 
ATOM     18  O   UNL     1       7.783   5.512  14.164  0.00  0.00    +0.000 OA
BRANCH  17  19
ATOM     19  C   UNL     1       6.627   4.053  12.697  0.00  0.00    +0.000 C 
BRANCH  19  21
ATOM     20  C   UNL     1       4.511   3.379  11.510  0.00  0.00    +0.000 C 
ATOM     21  C   UNL     1       5.376   3.172  12.751  0.00  0.00    +0.000 C 
ENDBRANCH  19  21
ENDBRANCH  17  19
ENDBRANCH  16  17
ENDBRANCH   1  16
TORSDOF 7
ENDMDL
MODEL 3
REMARK VINA RESULT:      -6.7      1.747      2.098
REMARK  Name = 
REMARK  8 active torsions:
REMARK  status: ('A' for Active; 'I' for Inactive)
REMARK    1  A    between atoms: C_1  and  C_2
REMARK    2  A    between atoms: C_2  and  C_3
REMARK    3  A    between atoms: C_3  and  C_4
REMARK    4  A    between atoms: C_4  and  O_6
REMARK    5  A    between atoms: O_6  and  C_7
REMARK    6  A    between atoms: C_12  and  O_13
REMARK    7  A    between atoms: C_15  and  O_16
REMARK    8  A    between atoms: C_17  and  O_18
REMARK                            x       y       z     vdW  Elec       q    Type
REMARK                         _______ _______ _______ _____ _____    ______ ____
ROOT
ATOM      1  C   UNL     1       5.116   4.340  18.335  0.00  0.00    +0.000 C 
ATOM      2  C   UNL     1       4.244   5.253  19.228  0.00  0.00    +0.000 C 
ATOM      3  N   UNL     1       3.231   4.432  19.903  0.00  0.00    +0.000 NA
ATOM      4  C   UNL     1       2.360   5.101  20.885  0.00  0.00    +0.000 C 
ATOM      5  C   UNL     1       0.933   4.603  20.593  0.00  0.00    +0.000 C 
ATOM      6  C   UNL     1       1.166   3.310  19.813  0.00  0.00    +0.000 C 
ATOM      7  C   UNL     1       2.334   3.777  18.950  0.00  0.00    +0.000 C 
ATOM      8  C   UNL     1       3.115   2.735  18.143  0.00  0.00    +0.000 C 
ATOM      9  C   UNL     1       4.239   3.487  17.381  0.00  0.00    +0.000 C 
ENDROOT
BRANCH   6  10
ATOM     10  O   UNL     1       1.507   2.239  20.667  0.00  0.00    +0.000 OA
ATOM     11  H   UNL     1       1.648   2.573  21.589  0.00  0.00    +0.000 HD
ENDBRANCH   6  10
BRANCH   8  12
ATOM     12  O   UNL     1       2.275   2.040  17.255  0.00  0.00    +0.000 OA
ATOM     13  H   UNL     1       1.381   1.961  17.681  0.00  0.00    +0.000 HD
ENDBRANCH   8  12
BRANCH   9  14
ATOM     14  O   UNL     1       5.028   2.594  16.637  0.00  0.00    +0.000 OA
ATOM     15  H   UNL     1       4.681   2.596  15.706  0.00  0.00    +0.000 HD
ENDBRANCH   9  14
BRANCH   1  16
ATOM     16  O   UNL     1       5.947   5.134  17.567  0.00  0.00    +0.000 OA
BRANCH  16  17
ATOM     17  C   UNL     1       7.286   5.286  17.689  0.00  0.00    +0.000 C 
ATOM     18  O   UNL     1       8.063   4.448  17.254  0.00  0.00    +0.000 OA
BRANCH  17  19
ATOM     19  C   UNL     1       7.799   6.528  18.359  0.00  0.00    +0.000 C 
BRANCH  19  21
ATOM     20  C   UNL     1       8.288   8.982  18.084  0.00  0.00    +0.000 C 
ATOM     21  C   UNL     1       7.603   7.761  17.474  0.00  0.00    +0.000 C 
ENDBRANCH  19  21
ENDBRANCH  17  19
ENDBRANCH  16  17
ENDBRANCH   1  16
TORSDOF 7
ENDMDL
MODEL 4
REMARK VINA RESULT:      -6.7      1.376      1.629
REMARK  Name = 
REMARK  8 active torsions:
REMARK  status: ('A' for Active; 'I' for Inactive)
REMARK    1  A    between atoms: C_1  and  C_2
REMARK    2  A    between atoms: C_2  and  C_3
REMARK    3  A    between atoms: C_3  and  C_4
REMARK    4  A    between atoms: C_4  and  O_6
REMARK    5  A    between atoms: O_6  and  C_7
REMARK    6  A    between atoms: C_12  and  O_13
REMARK    7  A    between atoms: C_15  and  O_16
REMARK    8  A    between atoms: C_17  and  O_18
REMARK                            x       y       z     vdW  Elec       q    Type
REMARK                         _______ _______ _______ _____ _____    ______ ____
ROOT
ATOM      1  C   UNL     1       5.205   5.555  18.405  0.00  0.00    +0.000 C 
ATOM      2  C   UNL     1       3.875   6.080  18.998  0.00  0.00    +0.000 C 
ATOM      3  N   UNL     1       3.259   5.015  19.799  0.00  0.00    +0.000 NA
ATOM      4  C   UNL     1       2.029   5.349  20.539  0.00  0.00    +0.000 C 
ATOM      5  C   UNL     1       1.063   4.174  20.303  0.00  0.00    +0.000 C 
ATOM      6  C   UNL     1       1.990   3.036  19.879  0.00  0.00    +0.000 C 
ATOM      7  C   UNL     1       2.936   3.839  18.991  0.00  0.00    +0.000 C 
ATOM      8  C   UNL     1       4.231   3.176  18.508  0.00  0.00    +0.000 C 
ATOM      9  C   UNL     1       4.990   4.220  17.645  0.00  0.00    +0.000 C 
ENDROOT
BRANCH   6  10
ATOM     10  O   UNL     1       2.640   2.452  20.988  0.00  0.00    +0.000 OA
ATOM     11  H   UNL     1       2.251   1.561  21.177  0.00  0.00    +0.000 HD
ENDBRANCH   6  10
BRANCH   8  12
ATOM     12  O   UNL     1       3.964   2.007  17.775  0.00  0.00    +0.000 OA
ATOM     13  H   UNL     1       4.740   1.839  17.178  0.00  0.00    +0.000 HD
ENDBRANCH   8  12
BRANCH   9  14
ATOM     14  O   UNL     1       6.213   3.701  17.187  0.00  0.00    +0.000 OA
ATOM     15  H   UNL     1       6.624   4.388  16.598  0.00  0.00    +0.000 HD
ENDBRANCH   9  14
BRANCH   1  16
ATOM     16  O   UNL     1       5.690   6.490  17.511  0.00  0.00    +0.000 OA
BRANCH  16  17
ATOM     17  C   UNL     1       6.980   6.708  17.163  0.00  0.00    +0.000 C 
ATOM     18  O   UNL     1       7.424   6.320  16.092  0.00  0.00    +0.000 OA
BRANCH  17  19
ATOM     19  C   UNL     1       7.854   7.461  18.125  0.00  0.00    +0.000 C 
BRANCH  19  21
ATOM     20  C   UNL     1       8.904   9.678  18.691  0.00  0.00    +0.000 C 
ATOM     21  C   UNL     1       7.995   8.930  17.718  0.00  0.00    +0.000 C 
ENDBRANCH  19  21
ENDBRANCH  17  19
ENDBRANCH  16  17
ENDBRANCH   1  16
TORSDOF 7
ENDMDL
MODEL 5
REMARK VINA RESULT:      -6.7      1.759      2.383
REMARK  Name = 
REMARK  8 active torsions:
REMARK  status: ('A' for Active; 'I' for Inactive)
REMARK    1  A    between atoms: C_1  and  C_2
REMARK    2  A    between atoms: C_2  and  C_3
REMARK    3  A    between atoms: C_3  and  C_4
REMARK    4  A    between atoms: C_4  and  O_6
REMARK    5  A    between atoms: O_6  and  C_7
REMARK    6  A    between atoms: C_12  and  O_13
REMARK    7  A    between atoms: C_15  and  O_16
REMARK    8  A    between atoms: C_17  and  O_18
REMARK                            x       y       z     vdW  Elec       q    Type
REMARK                         _______ _______ _______ _____ _____    ______ ____
ROOT
ATOM      1  C   UNL     1       4.652   5.618  18.370  0.00  0.00    +0.000 C 
ATOM      2  C   UNL     1       3.290   5.269  17.724  0.00  0.00    +0.000 C 
ATOM      3  N   UNL     1       2.562   4.356  18.613  0.00  0.00    +0.000 NA
ATOM      4  C   UNL     1       1.189   3.984  18.226  0.00  0.00    +0.000 C 
ATOM      5  C   UNL     1       1.087   2.464  18.444  0.00  0.00    +0.000 C 
ATOM      6  C   UNL     1       2.228   2.171  19.416  0.00  0.00    +0.000 C 
ATOM      7  C   UNL     1       3.279   3.097  18.811  0.00  0.00    +0.000 C 
ATOM      8  C   UNL     1       4.568   3.358  19.597  0.00  0.00    +0.000 C 
ATOM      9  C   UNL     1       5.433   4.334  18.754  0.00  0.00    +0.000 C 
ENDROOT
BRANCH   6  10
ATOM     10  O   UNL     1       1.888   2.518  20.742  0.00  0.00    +0.000 OA
ATOM     11  H   UNL     1       2.367   1.930  21.379  0.00  0.00    +0.000 HD
ENDBRANCH   6  10
BRANCH   8  12
ATOM     12  O   UNL     1       5.259   2.162  19.860  0.00  0.00    +0.000 OA
ATOM     13  H   UNL     1       4.632   1.544  20.318  0.00  0.00    +0.000 HD
ENDBRANCH   8  12
BRANCH   9  14
ATOM     14  O   UNL     1       6.627   4.654  19.422  0.00  0.00    +0.000 OA
ATOM     15  H   UNL     1       7.235   5.074  18.758  0.00  0.00    +0.000 HD
ENDBRANCH   9  14
BRANCH   1  16
ATOM     16  O   UNL     1       5.407   6.327  17.455  0.00  0.00    +0.000 OA
BRANCH  16  17
ATOM     17  C   UNL     1       6.220   5.830  16.494  0.00  0.00    +0.000 C 
ATOM     18  O   UNL     1       7.425   5.724  16.673  0.00  0.00    +0.000 OA
BRANCH  17  19
ATOM     19  C   UNL     1       5.599   5.391  15.199  0.00  0.00    +0.000 C 
BRANCH  19  21
ATOM     20  C   UNL     1       6.192   3.786  13.352  0.00  0.00    +0.000 C 
ATOM     21  C   UNL     1       5.985   3.950  14.856  0.00  0.00    +0.000 C 
ENDBRANCH  19  21
ENDBRANCH  17  19
ENDBRANCH  16  17
ENDBRANCH   1  16
TORSDOF 7
ENDMDL
MODEL 6
REMARK VINA RESULT:      -6.7      2.182      3.305
REMARK  Name = 
REMARK  8 active torsions:
REMARK  status: ('A' for Active; 'I' for Inactive)
REMARK    1  A    between atoms: C_1  and  C_2
REMARK    2  A    between atoms: C_2  and  C_3
REMARK    3  A    between atoms: C_3  and  C_4
REMARK    4  A    between atoms: C_4  and  O_6
REMARK    5  A    between atoms: O_6  and  C_7
REMARK    6  A    between atoms: C_12  and  O_13
REMARK    7  A    between atoms: C_15  and  O_16
REMARK    8  A    between atoms: C_17  and  O_18
REMARK                            x       y       z     vdW  Elec       q    Type
REMARK                         _______ _______ _______ _____ _____    ______ ____
ROOT
ATOM      1  C   UNL     1       4.260   5.073  17.575  0.00  0.00    +0.000 C 
ATOM      2  C   UNL     1       4.393   3.789  18.427  0.00  0.00    +0.000 C 
ATOM      3  N   UNL     1       3.152   3.590  19.185  0.00  0.00    +0.000 NA
ATOM      4  C   UNL     1       3.036   2.356  19.984  0.00  0.00    +0.000 C 
ATOM      5  C   UNL     1       2.464   2.789  21.346  0.00  0.00    +0.000 C 
ATOM      6  C   UNL     1       1.820   4.141  21.043  0.00  0.00    +0.000 C 
ATOM      7  C   UNL     1       2.892   4.694  20.108  0.00  0.00    +0.000 C 
ATOM      8  C   UNL     1       2.588   5.968  19.313  0.00  0.00    +0.000 C 
ATOM      9  C   UNL     1       3.839   6.283  18.450  0.00  0.00    +0.000 C 
ENDROOT
BRANCH   6  10
ATOM     10  O   UNL     1       0.565   3.993  20.413  0.00  0.00    +0.000 OA
ATOM     11  H   UNL     1       0.675   3.532  19.544  0.00  0.00    +0.000 HD
ENDBRANCH   6  10
BRANCH   8  12
ATOM     12  O   UNL     1       2.274   7.041  20.166  0.00  0.00    +0.000 OA
ATOM     13  H   UNL     1       3.051   7.659  20.176  0.00  0.00    +0.000 HD
ENDBRANCH   8  12
BRANCH   9  14
ATOM     14  O   UNL     1       3.631   7.425  17.659  0.00  0.00    +0.000 OA
ATOM     15  H   UNL     1       3.018   8.026  18.161  0.00  0.00    +0.000 HD
ENDBRANCH   9  14
BRANCH   1  16
ATOM     16  O   UNL     1       5.487   5.356  17.005  0.00  0.00    +0.000 OA
BRANCH  16  17
ATOM     17  C   UNL     1       5.743   5.683  15.717  0.00  0.00    +0.000 C 
ATOM     18  O   UNL     1       5.274   6.694  15.213  0.00  0.00    +0.000 OA
BRANCH  17  19
ATOM     19  C   UNL     1       6.637   4.776  14.921  0.00  0.00    +0.000 C 
BRANCH  19  21
ATOM     20  C   UNL     1       6.359   3.719  12.653  0.00  0.00    +0.000 C 
ATOM     21  C   UNL     1       5.823   3.788  14.081  0.00  0.00    +0.000 C 
ENDBRANCH  19  21
ENDBRANCH  17  19
ENDBRANCH  16  17
ENDBRANCH   1  16
TORSDOF 7
ENDMDL
MODEL 7
REMARK VINA RESULT:      -6.6      2.220      3.359
REMARK  Name = 
REMARK  8 active torsions:
REMARK  status: ('A' for Active; 'I' for Inactive)
REMARK    1  A    between atoms: C_1  and  C_2
REMARK    2  A    between atoms: C_2  and  C_3
REMARK    3  A    between atoms: C_3  and  C_4
REMARK    4  A    between atoms: C_4  and  O_6
REMARK    5  A    between atoms: O_6  and  C_7
REMARK    6  A    between atoms: C_12  and  O_13
REMARK    7  A    between atoms: C_15  and  O_16
REMARK    8  A    between atoms: C_17  and  O_18
REMARK                            x       y       z     vdW  Elec       q    Type
REMARK                         _______ _______ _______ _____ _____    ______ ____
ROOT
ATOM      1  C   UNL     1       4.824   4.442  18.090  0.00  0.00    +0.000 C 
ATOM      2  C   UNL     1       4.662   3.328  19.151  0.00  0.00    +0.000 C 
ATOM      3  N   UNL     1       3.281   3.340  19.647  0.00  0.00    +0.000 NA
ATOM      4  C   UNL     1       2.891   2.280  20.596  0.00  0.00    +0.000 C 
ATOM      5  C   UNL     1       2.100   2.984  21.712  0.00  0.00    +0.000 C 
ATOM      6  C   UNL     1       1.659   4.293  21.058  0.00  0.00    +0.000 C 
ATOM      7  C   UNL     1       2.944   4.606  20.298  0.00  0.00    +0.000 C 
ATOM      8  C   UNL     1       2.927   5.730  19.256  0.00  0.00    +0.000 C 
ATOM      9  C   UNL     1       4.350   5.812  18.641  0.00  0.00    +0.000 C 
ENDROOT
BRANCH   6  10
ATOM     10  O   UNL     1       0.548   4.105  20.207  0.00  0.00    +0.000 OA
ATOM     11  H   UNL     1      -0.161   3.604  20.684  0.00  0.00    +0.000 HD
ENDBRANCH   6  10
BRANCH   8  12
ATOM     12  O   UNL     1       2.549   6.955  19.831  0.00  0.00    +0.000 OA
ATOM     13  H   UNL     1       3.311   7.283  20.377  0.00  0.00    +0.000 HD
ENDBRANCH   8  12
BRANCH   9  14
ATOM     14  O   UNL     1       4.412   6.802  17.646  0.00  0.00    +0.000 OA
ATOM     15  H   UNL     1       4.027   6.413  16.816  0.00  0.00    +0.000 HD
ENDBRANCH   9  14
BRANCH   1  16
ATOM     16  O   UNL     1       6.161   4.546  17.758  0.00  0.00    +0.000 OA
BRANCH  16  17
ATOM     17  C   UNL     1       6.720   4.408  16.533  0.00  0.00    +0.000 C 
ATOM     18  O   UNL     1       7.925   4.540  16.366  0.00  0.00    +0.000 OA
BRANCH  17  19
ATOM     19  C   UNL     1       5.822   4.069  15.379  0.00  0.00    +0.000 C 
BRANCH  19  21
ATOM     20  C   UNL     1       5.848   3.568  12.911  0.00  0.00    +0.000 C 
ATOM     21  C   UNL     1       6.499   4.366  14.039  0.00  0.00    +0.000 C 
ENDBRANCH  19  21
ENDBRANCH  17  19
ENDBRANCH  16  17
ENDBRANCH   1  16
TORSDOF 7
ENDMDL
MODEL 8
REMARK VINA RESULT:      -6.6      0.996      1.059
REMARK  Name = 
REMARK  8 active torsions:
REMARK  status: ('A' for Active; 'I' for Inactive)
REMARK    1  A    between atoms: C_1  and  C_2
REMARK    2  A    between atoms: C_2  and  C_3
REMARK    3  A    between atoms: C_3  and  C_4
REMARK    4  A    between atoms: C_4  and  O_6
REMARK    5  A    between atoms: O_6  and  C_7
REMARK    6  A    between atoms: C_12  and  O_13
REMARK    7  A    between atoms: C_15  and  O_16
REMARK    8  A    between atoms: C_17  and  O_18
REMARK                            x       y       z     vdW  Elec       q    Type
REMARK                         _______ _______ _______ _____ _____    ______ ____
ROOT
ATOM      1  C   UNL     1       4.206   5.138  17.963  0.00  0.00    +0.000 C 
ATOM      2  C   UNL     1       2.888   5.442  18.714  0.00  0.00    +0.000 C 
ATOM      3  N   UNL     1       2.768   4.524  19.854  0.00  0.00    +0.000 NA
ATOM      4  C   UNL     1       1.626   4.719  20.764  0.00  0.00    +0.000 C 
ATOM      5  C   UNL     1       1.051   3.316  21.027  0.00  0.00    +0.000 C 
ATOM      6  C   UNL     1       2.211   2.389  20.666  0.00  0.00    +0.000 C 
ATOM      7  C   UNL     1       2.708   3.127  19.426  0.00  0.00    +0.000 C 
ATOM      8  C   UNL     1       4.054   2.717  18.818  0.00  0.00    +0.000 C 
ATOM      9  C   UNL     1       4.304   3.636  17.592  0.00  0.00    +0.000 C 
ENDROOT
BRANCH   6  10
ATOM     10  O   UNL     1       3.175   2.332  21.696  0.00  0.00    +0.000 OA
ATOM     11  H   UNL     1       3.232   3.208  22.154  0.00  0.00    +0.000 HD
ENDBRANCH   6  10
BRANCH   8  12
ATOM     12  O   UNL     1       4.057   1.361  18.448  0.00  0.00    +0.000 OA
ATOM     13  H   UNL     1       4.796   1.225  17.799  0.00  0.00    +0.000 HD
ENDBRANCH   8  12
BRANCH   9  14
ATOM     14  O   UNL     1       5.542   3.347  16.991  0.00  0.00    +0.000 OA
ATOM     15  H   UNL     1       5.377   3.217  16.020  0.00  0.00    +0.000 HD
ENDBRANCH   9  14
BRANCH   1  16
ATOM     16  O   UNL     1       4.229   5.876  16.794  0.00  0.00    +0.000 OA
BRANCH  16  17
ATOM     17  C   UNL     1       5.245   6.630  16.315  0.00  0.00    +0.000 C 
ATOM     18  O   UNL     1       5.370   6.841  15.117  0.00  0.00    +0.000 OA
BRANCH  17  19
ATOM     19  C   UNL     1       6.213   7.222  17.299  0.00  0.00    +0.000 C 
BRANCH  19  21
ATOM     20  C   UNL     1       7.745   5.989  18.872  0.00  0.00    +0.000 C 
ATOM     21  C   UNL     1       7.479   6.368  17.417  0.00  0.00    +0.000 C 
ENDBRANCH  19  21
ENDBRANCH  17  19
ENDBRANCH  16  17
ENDBRANCH   1  16
TORSDOF 7
ENDMDL
MODEL 9
REMARK VINA RESULT:      -6.5      1.510      2.190
REMARK  Name = 
REMARK  8 active torsions:
REMARK  status: ('A' for Active; 'I' for Inactive)
REMARK    1  A    between atoms: C_1  and  C_2
REMARK    2  A    between atoms: C_2  and  C_3
REMARK    3  A    between atoms: C_3  and  C_4
REMARK    4  A    between atoms: C_4  and  O_6
REMARK    5  A    between atoms: O_6  and  C_7
REMARK    6  A    between atoms: C_12  and  O_13
REMARK    7  A    between atoms: C_15  and  O_16
REMARK    8  A    between atoms: C_17  and  O_18
REMARK                            x       y       z     vdW  Elec       q    Type
REMARK                         _______ _______ _______ _____ _____    ______ ____
ROOT
ATOM      1  C   UNL     1       4.703   5.468  18.562  0.00  0.00    +0.000 C 
ATOM      2  C   UNL     1       3.160   5.524  18.642  0.00  0.00    +0.000 C 
ATOM      3  N   UNL     1       2.714   4.736  19.798  0.00  0.00    +0.000 NA
ATOM      4  C   UNL     1       1.274   4.747  20.112  0.00  0.00    +0.000 C 
ATOM      5  C   UNL     1       0.893   3.284  20.400  0.00  0.00    +0.000 C 
ATOM      6  C   UNL     1       2.234   2.632  20.732  0.00  0.00    +0.000 C 
ATOM      7  C   UNL     1       3.088   3.327  19.675  0.00  0.00    +0.000 C 
ATOM      8  C   UNL     1       4.612   3.191  19.756  0.00  0.00    +0.000 C 
ATOM      9  C   UNL     1       5.211   4.002  18.576  0.00  0.00    +0.000 C 
ENDROOT
BRANCH   6  10
ATOM     10  O   UNL     1       2.645   2.924  22.051  0.00  0.00    +0.000 OA
ATOM     11  H   UNL     1       1.859   2.954  22.651  0.00  0.00    +0.000 HD
ENDBRANCH   6  10
BRANCH   8  12
ATOM     12  O   UNL     1       5.009   1.843  19.702  0.00  0.00    +0.000 OA
ATOM     13  H   UNL     1       4.273   1.294  20.080  0.00  0.00    +0.000 HD
ENDBRANCH   8  12
BRANCH   9  14
ATOM     14  O   UNL     1       6.615   3.957  18.595  0.00  0.00    +0.000 OA
ATOM     15  H   UNL     1       6.943   4.888  18.477  0.00  0.00    +0.000 HD
ENDBRANCH   9  14
BRANCH   1  16
ATOM     16  O   UNL     1       5.107   6.055  17.379  0.00  0.00    +0.000 OA
BRANCH  16  17
ATOM     17  C   UNL     1       6.010   5.582  16.488  0.00  0.00    +0.000 C 
ATOM     18  O   UNL     1       7.208   5.784  16.629  0.00  0.00    +0.000 OA
BRANCH  17  19
ATOM     19  C   UNL     1       5.503   4.780  15.324  0.00  0.00    +0.000 C 
BRANCH  19  21
ATOM     20  C   UNL     1       6.094   3.700  13.128  0.00  0.00    +0.000 C 
ATOM     21  C   UNL     1       6.581   4.614  14.250  0.00  0.00    +0.000 C 
ENDBRANCH  19  21
ENDBRANCH  17  19
ENDBRANCH  16  17
ENDBRANCH   1  16
TORSDOF 7
ENDMDL
