MODEL 1
REMARK VINA RESULT:      -7.3      0.000      0.000
REMARK  Name = 
REMARK  5 active torsions:
REMARK  status: ('A' for Active; 'I' for Inactive)
REMARK    1  A    between atoms: C_1  and  C_2
REMARK    2  A    between atoms: C_12  and  C_13
REMARK    3  A    between atoms: C_20  and  C_21
REMARK    4  A    between atoms: C_25  and  C_26
REMARK    5  A    between atoms: C_25  and  C_27
REMARK                            x       y       z     vdW  Elec       q    Type
REMARK                         _______ _______ _______ _____ _____    ______ ____
ROOT
ATOM      1  C   UNL     1      -0.078  13.996  18.260  0.00  0.00    +0.000 C 
ATOM      2  C   UNL     1      -0.730  13.196  19.332  0.00  0.00    +0.000 A 
ATOM      3  C   UNL     1      -0.126  12.142  20.081  0.00  0.00    +0.000 A 
ATOM      4  C   UNL     1      -1.078  11.703  21.002  0.00  0.00    +0.000 A 
ATOM      5  N   UNL     1      -2.170  12.558  20.822  0.00  0.00    +0.000 N 
ATOM      6  C   UNL     1      -2.072  12.787  19.439  0.00  0.00    +0.000 A 
ATOM      7  C   UNL     1      -2.777  11.839  18.439  0.00  0.00    +0.000 C 
ATOM      8  C   UNL     1      -4.102  11.269  18.940  0.00  0.00    +0.000 C 
ATOM      9  C   UNL     1      -5.208  11.058  17.921  0.00  0.00    +0.000 C 
ATOM     10  N   UNL     1      -6.054  12.263  17.843  0.00  0.00    +0.000 NA
ATOM     11  C   UNL     1      -7.135  12.292  18.856  0.00  0.00    +0.000 C 
ATOM     12  C   UNL     1      -7.347  13.568  19.744  0.00  0.00    +0.000 C 
ATOM     13  C   UNL     1      -6.992  14.905  19.119  0.00  0.00    +0.000 C 
ATOM     14  N   UNL     1      -6.927  13.493  21.155  0.00  0.00    +0.000 N 
ATOM     15  C   UNL     1      -5.705  13.262  21.776  0.00  0.00    +0.000 A 
ATOM     16  C   UNL     1      -4.460  13.448  21.156  0.00  0.00    +0.000 A 
ATOM     17  C   UNL     1      -3.283  12.858  21.681  0.00  0.00    +0.000 A 
ATOM     18  C   UNL     1      -3.264  12.490  23.020  0.00  0.00    +0.000 A 
ATOM     19  C   UNL     1      -4.448  12.537  23.763  0.00  0.00    +0.000 A 
ATOM     20  C   UNL     1      -5.669  12.865  23.143  0.00  0.00    +0.000 A 
ATOM     21  C   UNL     1      -1.101  10.351  21.642  0.00  0.00    +0.000 C 
ATOM     22  C   UNL     1       0.186   9.518  21.304  0.00  0.00    +0.000 C 
ATOM     23  C   UNL     1      -0.160   8.018  21.356  0.00  0.00    +0.000 C 
ATOM     24  C   UNL     1       1.285   9.808  22.343  0.00  0.00    +0.000 C 
ATOM     25  C   UNL     1       0.755   9.832  19.897  0.00  0.00    +0.000 C 
ATOM     26  C   UNL     1       1.021  11.321  19.721  0.00  0.00    +0.000 C 
ATOM     27  O   UNL     1       2.029  11.755  19.174  0.00  0.00    +0.000 OA
ATOM     28  H   UNL     1      -5.480  13.100  17.920  0.00  0.00    +0.000 HD
ATOM     29  H   UNL     1      -7.687  13.077  21.720  0.00  0.00    +0.000 HD
ENDROOT
BRANCH  20  30
ATOM     30  C   UNL     1      -6.940  12.704  23.920  0.00  0.00    +0.000 C 
ATOM     31  N   UNL     1      -7.376  13.757  24.656  0.00  0.00    +0.000 N 
ATOM     32  O   UNL     1      -7.598  11.661  23.868  0.00  0.00    +0.000 OA
ATOM     33  H   UNL     1      -7.033  14.693  24.497  0.00  0.00    +0.000 HD
ATOM     34  H   UNL     1      -8.306  13.674  25.050  0.00  0.00    +0.000 HD
ENDBRANCH  20  30
TORSDOF 1
ENDMDL
MODEL 2
REMARK VINA RESULT:      -6.8      3.246      5.891
REMARK  Name = 
REMARK  5 active torsions:
REMARK  status: ('A' for Active; 'I' for Inactive)
REMARK    1  A    between atoms: C_1  and  C_2
REMARK    2  A    between atoms: C_12  and  C_13
REMARK    3  A    between atoms: C_20  and  C_21
REMARK    4  A    between atoms: C_25  and  C_26
REMARK    5  A    between atoms: C_25  and  C_27
REMARK                            x       y       z     vdW  Elec       q    Type
REMARK                         _______ _______ _______ _____ _____    ______ ____
ROOT
ATOM      1  C   UNL     1       0.082   9.968  17.797  0.00  0.00    +0.000 C 
ATOM      2  C   UNL     1      -0.876  10.784  18.588  0.00  0.00    +0.000 A 
ATOM      3  C   UNL     1      -2.296  10.781  18.454  0.00  0.00    +0.000 A 
ATOM      4  C   UNL     1      -2.797  11.658  19.417  0.00  0.00    +0.000 A 
ATOM      5  N   UNL     1      -1.672  12.080  20.133  0.00  0.00    +0.000 N 
ATOM      6  C   UNL     1      -0.717  12.084  19.103  0.00  0.00    +0.000 A 
ATOM      7  C   UNL     1      -0.514  13.347  18.231  0.00  0.00    +0.000 C 
ATOM      8  C   UNL     1      -0.711  14.665  18.977  0.00  0.00    +0.000 C 
ATOM      9  C   UNL     1       0.174  15.835  18.587  0.00  0.00    +0.000 C 
ATOM     10  N   UNL     1       1.390  15.845  19.421  0.00  0.00    +0.000 NA
ATOM     11  C   UNL     1       1.212  16.545  20.714  0.00  0.00    +0.000 C 
ATOM     12  C   UNL     1       1.656  15.854  22.051  0.00  0.00    +0.000 C 
ATOM     13  C   UNL     1       2.836  14.902  21.972  0.00  0.00    +0.000 C 
ATOM     14  N   UNL     1       0.595  15.339  22.936  0.00  0.00    +0.000 N 
ATOM     15  C   UNL     1      -0.406  14.387  22.775  0.00  0.00    +0.000 A 
ATOM     16  C   UNL     1      -0.375  13.372  21.807  0.00  0.00    +0.000 A 
ATOM     17  C   UNL     1      -1.554  12.677  21.437  0.00  0.00    +0.000 A 
ATOM     18  C   UNL     1      -2.625  12.665  22.321  0.00  0.00    +0.000 A 
ATOM     19  C   UNL     1      -2.588  13.479  23.456  0.00  0.00    +0.000 A 
ATOM     20  C   UNL     1      -1.520  14.374  23.661  0.00  0.00    +0.000 A 
ATOM     21  C   UNL     1      -4.122  12.347  19.353  0.00  0.00    +0.000 C 
ATOM     22  C   UNL     1      -4.994  11.833  18.153  0.00  0.00    +0.000 C 
ATOM     23  C   UNL     1      -5.948  12.958  17.709  0.00  0.00    +0.000 C 
ATOM     24  C   UNL     1      -5.834  10.620  18.596  0.00  0.00    +0.000 C 
ATOM     25  C   UNL     1      -4.144  11.412  16.927  0.00  0.00    +0.000 C 
ATOM     26  C   UNL     1      -3.093  10.376  17.305  0.00  0.00    +0.000 C 
ATOM     27  O   UNL     1      -2.843   9.400  16.607  0.00  0.00    +0.000 OA
ATOM     28  H   UNL     1       1.713  14.893  19.580  0.00  0.00    +0.000 HD
ATOM     29  H   UNL     1       0.252  16.102  23.544  0.00  0.00    +0.000 HD
ENDROOT
BRANCH  20  30
ATOM     30  C   UNL     1      -1.616  15.373  24.773  0.00  0.00    +0.000 C 
ATOM     31  N   UNL     1      -2.773  16.070  24.906  0.00  0.00    +0.000 N 
ATOM     32  O   UNL     1      -0.691  15.538  25.573  0.00  0.00    +0.000 OA
ATOM     33  H   UNL     1      -3.630  15.764  24.468  0.00  0.00    +0.000 HD
ATOM     34  H   UNL     1      -2.866  16.627  25.748  0.00  0.00    +0.000 HD
ENDBRANCH  20  30
TORSDOF 1
ENDMDL
MODEL 3
REMARK VINA RESULT:      -6.8      9.283     11.621
REMARK  Name = 
REMARK  5 active torsions:
REMARK  status: ('A' for Active; 'I' for Inactive)
REMARK    1  A    between atoms: C_1  and  C_2
REMARK    2  A    between atoms: C_12  and  C_13
REMARK    3  A    between atoms: C_20  and  C_21
REMARK    4  A    between atoms: C_25  and  C_26
REMARK    5  A    between atoms: C_25  and  C_27
REMARK                            x       y       z     vdW  Elec       q    Type
REMARK                         _______ _______ _______ _____ _____    ______ ____
ROOT
ATOM      1  C   UNL     1      10.586  17.181  17.565  0.00  0.00    +0.000 C 
ATOM      2  C   UNL     1      10.073  16.122  18.474  0.00  0.00    +0.000 A 
ATOM      3  C   UNL     1      10.561  14.784  18.569  0.00  0.00    +0.000 A 
ATOM      4  C   UNL     1       9.824  14.153  19.572  0.00  0.00    +0.000 A 
ATOM      5  N   UNL     1       8.992  15.153  20.084  0.00  0.00    +0.000 N 
ATOM      6  C   UNL     1       8.756  15.896  18.915  0.00  0.00    +0.000 A 
ATOM      7  C   UNL     1       7.575  15.529  17.984  0.00  0.00    +0.000 C 
ATOM      8  C   UNL     1       6.341  14.999  18.710  0.00  0.00    +0.000 C 
ATOM      9  C   UNL     1       4.980  15.365  18.147  0.00  0.00    +0.000 C 
ATOM     10  N   UNL     1       4.495  16.608  18.775  0.00  0.00    +0.000 NA
ATOM     11  C   UNL     1       3.789  16.383  20.058  0.00  0.00    +0.000 C 
ATOM     12  C   UNL     1       4.177  17.219  21.327  0.00  0.00    +0.000 C 
ATOM     13  C   UNL     1       4.684  18.630  21.090  0.00  0.00    +0.000 C 
ATOM     14  N   UNL     1       4.941  16.533  22.386  0.00  0.00    +0.000 N 
ATOM     15  C   UNL     1       6.182  15.907  22.416  0.00  0.00    +0.000 A 
ATOM     16  C   UNL     1       7.206  16.148  21.488  0.00  0.00    +0.000 A 
ATOM     17  C   UNL     1       8.283  15.240  21.333  0.00  0.00    +0.000 A 
ATOM     18  C   UNL     1       8.578  14.373  22.377  0.00  0.00    +0.000 A 
ATOM     19  C   UNL     1       7.705  14.287  23.466  0.00  0.00    +0.000 A 
ATOM     20  C   UNL     1       6.492  15.000  23.469  0.00  0.00    +0.000 A 
ATOM     21  C   UNL     1       9.625  12.677  19.698  0.00  0.00    +0.000 C 
ATOM     22  C   UNL     1      10.499  11.875  18.669  0.00  0.00    +0.000 C 
ATOM     23  C   UNL     1       9.799  10.541  18.349  0.00  0.00    +0.000 C 
ATOM     24  C   UNL     1      11.881  11.573  19.279  0.00  0.00    +0.000 C 
ATOM     25  C   UNL     1      10.714  12.638  17.337  0.00  0.00    +0.000 C 
ATOM     26  C   UNL     1      11.303  14.022  17.575  0.00  0.00    +0.000 C 
ATOM     27  O   UNL     1      12.195  14.492  16.877  0.00  0.00    +0.000 OA
ATOM     28  H   UNL     1       5.268  17.257  18.910  0.00  0.00    +0.000 HD
ATOM     29  H   UNL     1       4.287  16.038  23.017  0.00  0.00    +0.000 HD
ENDROOT
BRANCH  20  30
ATOM     30  C   UNL     1       5.493  14.723  24.551  0.00  0.00    +0.000 C 
ATOM     31  N   UNL     1       5.493  13.491  25.119  0.00  0.00    +0.000 N 
ATOM     32  O   UNL     1       4.714  15.595  24.947  0.00  0.00    +0.000 OA
ATOM     33  H   UNL     1       6.280  12.866  25.030  0.00  0.00    +0.000 HD
ATOM     34  H   UNL     1       4.912  13.377  25.942  0.00  0.00    +0.000 HD
ENDBRANCH  20  30
TORSDOF 1
ENDMDL
MODEL 4
REMARK VINA RESULT:      -6.6      9.118     11.570
REMARK  Name = 
REMARK  5 active torsions:
REMARK  status: ('A' for Active; 'I' for Inactive)
REMARK    1  A    between atoms: C_1  and  C_2
REMARK    2  A    between atoms: C_12  and  C_13
REMARK    3  A    between atoms: C_20  and  C_21
REMARK    4  A    between atoms: C_25  and  C_26
REMARK    5  A    between atoms: C_25  and  C_27
REMARK                            x       y       z     vdW  Elec       q    Type
REMARK                         _______ _______ _______ _____ _____    ______ ____
ROOT
ATOM      1  C   UNL     1       9.998  17.233  18.002  0.00  0.00    +0.000 C 
ATOM      2  C   UNL     1       9.628  16.104  18.896  0.00  0.00    +0.000 A 
ATOM      3  C   UNL     1      10.099  14.760  18.794  0.00  0.00    +0.000 A 
ATOM      4  C   UNL     1       9.534  14.051  19.855  0.00  0.00    +0.000 A 
ATOM      5  N   UNL     1       8.823  15.009  20.585  0.00  0.00    +0.000 N 
ATOM      6  C   UNL     1       8.404  15.848  19.539  0.00  0.00    +0.000 A 
ATOM      7  C   UNL     1       7.073  15.568  18.801  0.00  0.00    +0.000 C 
ATOM      8  C   UNL     1       5.972  14.985  19.684  0.00  0.00    +0.000 C 
ATOM      9  C   UNL     1       4.542  15.405  19.399  0.00  0.00    +0.000 C 
ATOM     10  N   UNL     1       4.198  16.593  20.201  0.00  0.00    +0.000 NA
ATOM     11  C   UNL     1       3.720  16.265  21.565  0.00  0.00    +0.000 C 
ATOM     12  C   UNL     1       4.338  16.989  22.812  0.00  0.00    +0.000 C 
ATOM     13  C   UNL     1       4.825  18.413  22.607  0.00  0.00    +0.000 C 
ATOM     14  N   UNL     1       5.259  16.212  23.662  0.00  0.00    +0.000 N 
ATOM     15  C   UNL     1       6.474  15.579  23.424  0.00  0.00    +0.000 A 
ATOM     16  C   UNL     1       7.327  15.892  22.355  0.00  0.00    +0.000 A 
ATOM     17  C   UNL     1       8.343  14.994  21.941  0.00  0.00    +0.000 A 
ATOM     18  C   UNL     1       8.796  14.040  22.843  0.00  0.00    +0.000 A 
ATOM     19  C   UNL     1       8.124  13.868  24.056  0.00  0.00    +0.000 A 
ATOM     20  C   UNL     1       6.943  14.585  24.329  0.00  0.00    +0.000 A 
ATOM     21  C   UNL     1       9.330  12.570  19.892  0.00  0.00    +0.000 C 
ATOM     22  C   UNL     1       9.997  11.854  18.665  0.00  0.00    +0.000 C 
ATOM     23  C   UNL     1       9.225  10.555  18.363  0.00  0.00    +0.000 C 
ATOM     24  C   UNL     1      11.457  11.493  18.998  0.00  0.00    +0.000 C 
ATOM     25  C   UNL     1       9.993  12.724  17.383  0.00  0.00    +0.000 C 
ATOM     26  C   UNL     1      10.643  14.080  17.627  0.00  0.00    +0.000 C 
ATOM     27  O   UNL     1      11.409  14.603  16.826  0.00  0.00    +0.000 OA
ATOM     28  H   UNL     1       4.995  17.225  20.253  0.00  0.00    +0.000 HD
ATOM     29  H   UNL     1       4.715  15.670  24.354  0.00  0.00    +0.000 HD
ENDROOT
BRANCH  20  30
ATOM     30  C   UNL     1       6.141  14.224  25.542  0.00  0.00    +0.000 C 
ATOM     31  N   UNL     1       6.752  14.285  26.751  0.00  0.00    +0.000 N 
ATOM     32  O   UNL     1       4.949  13.915  25.457  0.00  0.00    +0.000 OA
ATOM     33  H   UNL     1       7.610  14.797  26.887  0.00  0.00    +0.000 HD
ATOM     34  H   UNL     1       6.152  14.180  27.562  0.00  0.00    +0.000 HD
ENDBRANCH  20  30
TORSDOF 1
ENDMDL
MODEL 5
REMARK VINA RESULT:      -6.5      2.969      7.482
REMARK  Name = 
REMARK  5 active torsions:
REMARK  status: ('A' for Active; 'I' for Inactive)
REMARK    1  A    between atoms: C_1  and  C_2
REMARK    2  A    between atoms: C_12  and  C_13
REMARK    3  A    between atoms: C_20  and  C_21
REMARK    4  A    between atoms: C_25  and  C_26
REMARK    5  A    between atoms: C_25  and  C_27
REMARK                            x       y       z     vdW  Elec       q    Type
REMARK                         _______ _______ _______ _____ _____    ______ ____
ROOT
ATOM      1  C   UNL     1      -3.260  17.484  20.109  0.00  0.00    +0.000 C 
ATOM      2  C   UNL     1      -2.992  16.055  20.418  0.00  0.00    +0.000 A 
ATOM      3  C   UNL     1      -3.790  15.208  21.245  0.00  0.00    +0.000 A 
ATOM      4  C   UNL     1      -3.197  13.945  21.223  0.00  0.00    +0.000 A 
ATOM      5  N   UNL     1      -2.129  14.068  20.329  0.00  0.00    +0.000 N 
ATOM      6  C   UNL     1      -1.758  15.400  20.577  0.00  0.00    +0.000 A 
ATOM      7  C   UNL     1      -0.733  15.729  21.689  0.00  0.00    +0.000 C 
ATOM      8  C   UNL     1       0.357  14.676  21.874  0.00  0.00    +0.000 C 
ATOM      9  C   UNL     1       1.747  15.158  22.247  0.00  0.00    +0.000 C 
ATOM     10  N   UNL     1       2.542  15.390  21.026  0.00  0.00    +0.000 NA
ATOM     11  C   UNL     1       3.213  14.171  20.519  0.00  0.00    +0.000 C 
ATOM     12  C   UNL     1       3.082  13.771  19.007  0.00  0.00    +0.000 C 
ATOM     13  C   UNL     1       2.928  14.905  18.009  0.00  0.00    +0.000 C 
ATOM     14  N   UNL     1       2.209  12.629  18.678  0.00  0.00    +0.000 N 
ATOM     15  C   UNL     1       0.854  12.378  18.864  0.00  0.00    +0.000 A 
ATOM     16  C   UNL     1      -0.109  13.377  19.066  0.00  0.00    +0.000 A 
ATOM     17  C   UNL     1      -1.381  13.070  19.612  0.00  0.00    +0.000 A 
ATOM     18  C   UNL     1      -1.844  11.763  19.525  0.00  0.00    +0.000 A 
ATOM     19  C   UNL     1      -0.984  10.758  19.074  0.00  0.00    +0.000 A 
ATOM     20  C   UNL     1       0.366  11.042  18.797  0.00  0.00    +0.000 A 
ATOM     21  C   UNL     1      -3.361  12.896  22.277  0.00  0.00    +0.000 C 
ATOM     22  C   UNL     1      -4.438  13.299  23.346  0.00  0.00    +0.000 C 
ATOM     23  C   UNL     1      -4.095  12.616  24.683  0.00  0.00    +0.000 C 
ATOM     24  C   UNL     1      -5.831  12.825  22.891  0.00  0.00    +0.000 C 
ATOM     25  C   UNL     1      -4.502  14.829  23.589  0.00  0.00    +0.000 C 
ATOM     26  C   UNL     1      -4.727  15.592  22.290  0.00  0.00    +0.000 C 
ATOM     27  O   UNL     1      -5.499  16.540  22.203  0.00  0.00    +0.000 OA
ATOM     28  H   UNL     1       1.956  15.795  20.299  0.00  0.00    +0.000 HD
ATOM     29  H   UNL     1       2.742  11.748  18.777  0.00  0.00    +0.000 HD
ENDROOT
BRANCH  20  30
ATOM     30  C   UNL     1       1.302   9.906  18.517  0.00  0.00    +0.000 C 
ATOM     31  N   UNL     1       1.382   8.906  19.431  0.00  0.00    +0.000 N 
ATOM     32  O   UNL     1       1.956   9.853  17.472  0.00  0.00    +0.000 OA
ATOM     33  H   UNL     1       0.670   8.772  20.134  0.00  0.00    +0.000 HD
ATOM     34  H   UNL     1       1.906   8.085  19.151  0.00  0.00    +0.000 HD
ENDBRANCH  20  30
TORSDOF 1
ENDMDL
MODEL 6
REMARK VINA RESULT:      -6.5      2.453      7.033
REMARK  Name = 
REMARK  5 active torsions:
REMARK  status: ('A' for Active; 'I' for Inactive)
REMARK    1  A    between atoms: C_1  and  C_2
REMARK    2  A    between atoms: C_12  and  C_13
REMARK    3  A    between atoms: C_20  and  C_21
REMARK    4  A    between atoms: C_25  and  C_26
REMARK    5  A    between atoms: C_25  and  C_27
REMARK                            x       y       z     vdW  Elec       q    Type
REMARK                         _______ _______ _______ _____ _____    ______ ____
ROOT
ATOM      1  C   UNL     1      -2.472  16.344  23.141  0.00  0.00    +0.000 C 
ATOM      2  C   UNL     1      -3.138  15.211  22.445  0.00  0.00    +0.000 A 
ATOM      3  C   UNL     1      -4.494  14.799  22.613  0.00  0.00    +0.000 A 
ATOM      4  C   UNL     1      -4.705  13.731  21.740  0.00  0.00    +0.000 A 
ATOM      5  N   UNL     1      -3.503  13.604  21.037  0.00  0.00    +0.000 N 
ATOM      6  C   UNL     1      -2.594  13.978  22.040  0.00  0.00    +0.000 A 
ATOM      7  C   UNL     1      -2.022  12.916  23.010  0.00  0.00    +0.000 C 
ATOM      8  C   UNL     1      -1.811  11.540  22.384  0.00  0.00    +0.000 C 
ATOM      9  C   UNL     1      -0.616  10.729  22.851  0.00  0.00    +0.000 C 
ATOM     10  N   UNL     1       0.548  11.010  21.992  0.00  0.00    +0.000 NA
ATOM     11  C   UNL     1       0.593  10.178  20.767  0.00  0.00    +0.000 C 
ATOM     12  C   UNL     1       0.811  10.849  19.366  0.00  0.00    +0.000 C 
ATOM     13  C   UNL     1       1.650  12.115  19.335  0.00  0.00    +0.000 C 
ATOM     14  N   UNL     1      -0.353  10.941  18.466  0.00  0.00    +0.000 N 
ATOM     15  C   UNL     1      -1.595  11.559  18.571  0.00  0.00    +0.000 A 
ATOM     16  C   UNL     1      -1.874  12.618  19.448  0.00  0.00    +0.000 A 
ATOM     17  C   UNL     1      -3.208  12.958  19.786  0.00  0.00    +0.000 A 
ATOM     18  C   UNL     1      -4.231  12.569  18.930  0.00  0.00    +0.000 A 
ATOM     19  C   UNL     1      -3.947  11.706  17.867  0.00  0.00    +0.000 A 
ATOM     20  C   UNL     1      -2.659  11.158  17.714  0.00  0.00    +0.000 A 
ATOM     21  C   UNL     1      -5.761  12.684  21.896  0.00  0.00    +0.000 C 
ATOM     22  C   UNL     1      -6.750  13.017  23.069  0.00  0.00    +0.000 C 
ATOM     23  C   UNL     1      -7.323  11.701  23.629  0.00  0.00    +0.000 C 
ATOM     24  C   UNL     1      -7.915  13.877  22.544  0.00  0.00    +0.000 C 
ATOM     25  C   UNL     1      -6.070  13.780  24.233  0.00  0.00    +0.000 C 
ATOM     26  C   UNL     1      -5.379  15.045  23.743  0.00  0.00    +0.000 C 
ATOM     27  O   UNL     1      -5.435  16.110  24.349  0.00  0.00    +0.000 OA
ATOM     28  H   UNL     1       0.570  11.998  21.744  0.00  0.00    +0.000 HD
ATOM     29  H   UNL     1      -0.449  10.060  17.934  0.00  0.00    +0.000 HD
ENDROOT
BRANCH  20  30
ATOM     30  C   UNL     1      -2.447  10.082  16.693  0.00  0.00    +0.000 C 
ATOM     31  N   UNL     1      -3.300  10.028  15.639  0.00  0.00    +0.000 N 
ATOM     32  O   UNL     1      -1.506   9.289  16.780  0.00  0.00    +0.000 OA
ATOM     33  H   UNL     1      -3.883  10.811  15.386  0.00  0.00    +0.000 HD
ATOM     34  H   UNL     1      -3.048   9.389  14.893  0.00  0.00    +0.000 HD
ENDBRANCH  20  30
TORSDOF 1
ENDMDL
MODEL 7
REMARK VINA RESULT:      -6.5      9.850     12.200
REMARK  Name = 
REMARK  5 active torsions:
REMARK  status: ('A' for Active; 'I' for Inactive)
REMARK    1  A    between atoms: C_1  and  C_2
REMARK    2  A    between atoms: C_12  and  C_13
REMARK    3  A    between atoms: C_20  and  C_21
REMARK    4  A    between atoms: C_25  and  C_26
REMARK    5  A    between atoms: C_25  and  C_27
REMARK                            x       y       z     vdW  Elec       q    Type
REMARK                         _______ _______ _______ _____ _____    ______ ____
ROOT
ATOM      1  C   UNL     1      11.273  17.051  21.041  0.00  0.00    +0.000 C 
ATOM      2  C   UNL     1      10.606  15.730  21.190  0.00  0.00    +0.000 A 
ATOM      3  C   UNL     1      10.842  14.572  20.390  0.00  0.00    +0.000 A 
ATOM      4  C   UNL     1      10.039  13.553  20.903  0.00  0.00    +0.000 A 
ATOM      5  N   UNL     1       9.425  14.116  22.027  0.00  0.00    +0.000 N 
ATOM      6  C   UNL     1       9.288  15.444  21.589  0.00  0.00    +0.000 A 
ATOM      7  C   UNL     1       8.026  15.880  20.805  0.00  0.00    +0.000 C 
ATOM      8  C   UNL     1       6.743  15.171  21.232  0.00  0.00    +0.000 C 
ATOM      9  C   UNL     1       5.453  15.971  21.205  0.00  0.00    +0.000 C 
ATOM     10  N   UNL     1       5.230  16.608  22.516  0.00  0.00    +0.000 NA
ATOM     11  C   UNL     1       4.542  15.729  23.489  0.00  0.00    +0.000 C 
ATOM     12  C   UNL     1       5.124  15.546  24.934  0.00  0.00    +0.000 C 
ATOM     13  C   UNL     1       5.874  16.727  25.525  0.00  0.00    +0.000 C 
ATOM     14  N   UNL     1       5.786  14.266  25.245  0.00  0.00    +0.000 N 
ATOM     15  C   UNL     1       6.890  13.608  24.714  0.00  0.00    +0.000 A 
ATOM     16  C   UNL     1       7.906  14.242  23.984  0.00  0.00    +0.000 A 
ATOM     17  C   UNL     1       8.791  13.500  23.162  0.00  0.00    +0.000 A 
ATOM     18  C   UNL     1       8.958  12.145  23.418  0.00  0.00    +0.000 A 
ATOM     19  C   UNL     1       8.126  11.513  24.346  0.00  0.00    +0.000 A 
ATOM     20  C   UNL     1       7.066  12.215  24.951  0.00  0.00    +0.000 A 
ATOM     21  C   UNL     1       9.575  12.353  20.142  0.00  0.00    +0.000 C 
ATOM     22  C   UNL     1      10.247  12.258  18.727  0.00  0.00    +0.000 C 
ATOM     23  C   UNL     1       9.300  11.506  17.772  0.00  0.00    +0.000 C 
ATOM     24  C   UNL     1      11.570  11.476  18.827  0.00  0.00    +0.000 C 
ATOM     25  C   UNL     1      10.550  13.646  18.109  0.00  0.00    +0.000 C 
ATOM     26  C   UNL     1      11.393  14.502  19.045  0.00  0.00    +0.000 C 
ATOM     27  O   UNL     1      12.330  15.189  18.652  0.00  0.00    +0.000 OA
ATOM     28  H   UNL     1       6.114  16.934  22.902  0.00  0.00    +0.000 HD
ATOM     29  H   UNL     1       5.076  13.572  25.535  0.00  0.00    +0.000 HD
ENDROOT
BRANCH  20  30
ATOM     30  C   UNL     1       6.073  11.455  25.777  0.00  0.00    +0.000 C 
ATOM     31  N   UNL     1       6.383  11.203  27.074  0.00  0.00    +0.000 N 
ATOM     32  O   UNL     1       4.987  11.098  25.312  0.00  0.00    +0.000 OA
ATOM     33  H   UNL     1       7.107  11.715  27.556  0.00  0.00    +0.000 HD
ATOM     34  H   UNL     1       5.639  10.820  27.646  0.00  0.00    +0.000 HD
ENDBRANCH  20  30
TORSDOF 1
ENDMDL
MODEL 8
REMARK VINA RESULT:      -6.4      3.714      5.599
REMARK  Name = 
REMARK  5 active torsions:
REMARK  status: ('A' for Active; 'I' for Inactive)
REMARK    1  A    between atoms: C_1  and  C_2
REMARK    2  A    between atoms: C_12  and  C_13
REMARK    3  A    between atoms: C_20  and  C_21
REMARK    4  A    between atoms: C_25  and  C_26
REMARK    5  A    between atoms: C_25  and  C_27
REMARK                            x       y       z     vdW  Elec       q    Type
REMARK                         _______ _______ _______ _____ _____    ______ ____
ROOT
ATOM      1  C   UNL     1       2.944  16.310  17.013  0.00  0.00    +0.000 C 
ATOM      2  C   UNL     1       2.477  15.869  18.354  0.00  0.00    +0.000 A 
ATOM      3  C   UNL     1       3.101  16.167  19.602  0.00  0.00    +0.000 A 
ATOM      4  C   UNL     1       2.310  15.594  20.598  0.00  0.00    +0.000 A 
ATOM      5  N   UNL     1       1.215  15.054  19.916  0.00  0.00    +0.000 N 
ATOM      6  C   UNL     1       1.841  14.669  18.719  0.00  0.00    +0.000 A 
ATOM      7  C   UNL     1       2.485  13.267  18.592  0.00  0.00    +0.000 C 
ATOM      8  C   UNL     1       1.755  12.166  19.360  0.00  0.00    +0.000 C 
ATOM      9  C   UNL     1       1.719  10.781  18.741  0.00  0.00    +0.000 C 
ATOM     10  N   UNL     1       0.513  10.637  17.904  0.00  0.00    +0.000 NA
ATOM     11  C   UNL     1      -0.686  10.216  18.665  0.00  0.00    +0.000 C 
ATOM     12  C   UNL     1      -2.036  11.000  18.505  0.00  0.00    +0.000 C 
ATOM     13  C   UNL     1      -2.302  11.638  17.154  0.00  0.00    +0.000 C 
ATOM     14  N   UNL     1      -2.450  11.876  19.616  0.00  0.00    +0.000 N 
ATOM     15  C   UNL     1      -1.874  12.987  20.222  0.00  0.00    +0.000 A 
ATOM     16  C   UNL     1      -0.903  13.797  19.615  0.00  0.00    +0.000 A 
ATOM     17  C   UNL     1      -0.090  14.668  20.384  0.00  0.00    +0.000 A 
ATOM     18  C   UNL     1      -0.539  15.063  21.638  0.00  0.00    +0.000 A 
ATOM     19  C   UNL     1      -1.675  14.458  22.183  0.00  0.00    +0.000 A 
ATOM     20  C   UNL     1      -2.309  13.394  21.515  0.00  0.00    +0.000 A 
ATOM     21  C   UNL     1       2.782  15.217  21.966  0.00  0.00    +0.000 C 
ATOM     22  C   UNL     1       4.247  15.708  22.239  0.00  0.00    +0.000 C 
ATOM     23  C   UNL     1       4.908  14.767  23.264  0.00  0.00    +0.000 C 
ATOM     24  C   UNL     1       4.222  17.134  22.822  0.00  0.00    +0.000 C 
ATOM     25  C   UNL     1       5.126  15.723  20.963  0.00  0.00    +0.000 C 
ATOM     26  C   UNL     1       4.484  16.545  19.853  0.00  0.00    +0.000 C 
ATOM     27  O   UNL     1       5.124  17.313  19.142  0.00  0.00    +0.000 OA
ATOM     28  H   UNL     1       0.325  11.506  17.408  0.00  0.00    +0.000 HD
ATOM     29  H   UNL     1      -2.956  11.319  20.325  0.00  0.00    +0.000 HD
ENDROOT
BRANCH  20  30
ATOM     30  C   UNL     1      -3.391  12.638  22.224  0.00  0.00    +0.000 C 
ATOM     31  N   UNL     1      -3.077  12.018  23.390  0.00  0.00    +0.000 N 
ATOM     32  O   UNL     1      -4.545  12.605  21.788  0.00  0.00    +0.000 OA
ATOM     33  H   UNL     1      -2.247  12.257  23.911  0.00  0.00    +0.000 HD
ATOM     34  H   UNL     1      -3.855  11.641  23.920  0.00  0.00    +0.000 HD
ENDBRANCH  20  30
TORSDOF 1
ENDMDL
MODEL 9
REMARK VINA RESULT:      -6.3      2.773      6.752
REMARK  Name = 
REMARK  5 active torsions:
REMARK  status: ('A' for Active; 'I' for Inactive)
REMARK    1  A    between atoms: C_1  and  C_2
REMARK    2  A    between atoms: C_12  and  C_13
REMARK    3  A    between atoms: C_20  and  C_21
REMARK    4  A    between atoms: C_25  and  C_26
REMARK    5  A    between atoms: C_25  and  C_27
REMARK                            x       y       z     vdW  Elec       q    Type
REMARK                         _______ _______ _______ _____ _____    ______ ____
ROOT
ATOM      1  C   UNL     1      -0.491  15.629  23.197  0.00  0.00    +0.000 C 
ATOM      2  C   UNL     1      -1.501  14.731  22.576  0.00  0.00    +0.000 A 
ATOM      3  C   UNL     1      -2.861  14.586  22.981  0.00  0.00    +0.000 A 
ATOM      4  C   UNL     1      -3.452  13.678  22.101  0.00  0.00    +0.000 A 
ATOM      5  N   UNL     1      -2.452  13.385  21.168  0.00  0.00    +0.000 N 
ATOM      6  C   UNL     1      -1.319  13.463  21.995  0.00  0.00    +0.000 A 
ATOM      7  C   UNL     1      -0.827  12.214  22.765  0.00  0.00    +0.000 C 
ATOM      8  C   UNL     1      -1.036  10.895  22.025  0.00  0.00    +0.000 C 
ATOM      9  C   UNL     1       0.018   9.816  22.196  0.00  0.00    +0.000 C 
ATOM     10  N   UNL     1       1.043   9.944  21.144  0.00  0.00    +0.000 NA
ATOM     11  C   UNL     1       0.686   9.250  19.885  0.00  0.00    +0.000 C 
ATOM     12  C   UNL     1       0.790  10.004  18.513  0.00  0.00    +0.000 C 
ATOM     13  C   UNL     1       1.865  11.071  18.398  0.00  0.00    +0.000 C 
ATOM     14  N   UNL     1      -0.468  10.421  17.867  0.00  0.00    +0.000 N 
ATOM     15  C   UNL     1      -1.506  11.262  18.252  0.00  0.00    +0.000 A 
ATOM     16  C   UNL     1      -1.387  12.259  19.231  0.00  0.00    +0.000 A 
ATOM     17  C   UNL     1      -2.533  12.825  19.846  0.00  0.00    +0.000 A 
ATOM     18  C   UNL     1      -3.752  12.740  19.185  0.00  0.00    +0.000 A 
ATOM     19  C   UNL     1      -3.857  11.952  18.035  0.00  0.00    +0.000 A 
ATOM     20  C   UNL     1      -2.768  11.175  17.598  0.00  0.00    +0.000 A 
ATOM     21  C   UNL     1      -4.665  12.855  22.395  0.00  0.00    +0.000 C 
ATOM     22  C   UNL     1      -5.332  13.258  23.758  0.00  0.00    +0.000 C 
ATOM     23  C   UNL     1      -6.067  12.033  24.337  0.00  0.00    +0.000 C 
ATOM     24  C   UNL     1      -6.357  14.385  23.528  0.00  0.00    +0.000 C 
ATOM     25  C   UNL     1      -4.305  13.744  24.812  0.00  0.00    +0.000 C 
ATOM     26  C   UNL     1      -3.455  14.888  24.275  0.00  0.00    +0.000 C 
ATOM     27  O   UNL     1      -3.169  15.874  24.946  0.00  0.00    +0.000 OA
ATOM     28  H   UNL     1       1.234  10.927  20.959  0.00  0.00    +0.000 HD
ATOM     29  H   UNL     1      -0.846   9.637  17.310  0.00  0.00    +0.000 HD
ENDROOT
BRANCH  20  30
ATOM     30  C   UNL     1      -2.981  10.189  16.490  0.00  0.00    +0.000 C 
ATOM     31  N   UNL     1      -3.080  10.665  15.223  0.00  0.00    +0.000 N 
ATOM     32  O   UNL     1      -3.028   8.975  16.708  0.00  0.00    +0.000 OA
ATOM     33  H   UNL     1      -2.764  11.592  14.978  0.00  0.00    +0.000 HD
ATOM     34  H   UNL     1      -3.076   9.973  14.483  0.00  0.00    +0.000 HD
ENDBRANCH  20  30
TORSDOF 1
ENDMDL
