MODEL 1
REMARK VINA RESULT:      -6.8      0.000      0.000
REMARK  Name = 
REMARK  5 active torsions:
REMARK  status: ('A' for Active; 'I' for Inactive)
REMARK    1  A    between atoms: C_1  and  O_2
REMARK    2  A    between atoms: O_2  and  C_3
REMARK    3  A    between atoms: C_3  and  C_4
REMARK    4  A    between atoms: N_13  and  C_14
REMARK    5  A    between atoms: C_14  and  C_15
REMARK                            x       y       z     vdW  Elec       q    Type
REMARK                         _______ _______ _______ _____ _____    ______ ____
ROOT
ATOM      1  C   UNL     1       6.987   4.421  16.474  0.00  0.00    +0.000 C 
ATOM      2  O   UNL     1       8.085   4.532  17.026  0.00  0.00    +0.000 OA
ATOM      3  N   UNL     1       5.810   4.241  17.189  0.00  0.00    +0.000 N 
ATOM      4  C   UNL     1       5.834   4.385  18.638  0.00  0.00    +0.000 C 
ATOM      5  C   UNL     1       4.781   5.401  19.076  0.00  0.00    +0.000 C 
ATOM      6  C   UNL     1       3.355   5.010  18.596  0.00  0.00    +0.000 C 
ATOM      7  C   UNL     1       2.841   3.724  19.286  0.00  0.00    +0.000 C 
ATOM      8  C   UNL     1       2.654   3.935  20.785  0.00  0.00    +0.000 C 
ATOM      9  C   UNL     1       1.770   5.148  21.073  0.00  0.00    +0.000 C 
ATOM     10  N   UNL     1       2.228   6.369  20.388  0.00  0.00    +0.000 NA
ATOM     11  C   UNL     1       2.353   6.145  18.934  0.00  0.00    +0.000 C 
ATOM     12  C   UNL     1       3.407   4.821  17.057  0.00  0.00    +0.000 C 
ATOM     13  C   UNL     1       4.516   3.866  16.610  0.00  0.00    +0.000 C 
ENDROOT
BRANCH   1  14
ATOM     14  C   UNL     1       6.884   4.545  14.949  0.00  0.00    +0.000 C 
BRANCH  14  16
ATOM     15  C   UNL     1       7.900   5.258  12.936  0.00  0.00    +0.000 C 
ATOM     16  O   UNL     1       7.813   5.440  14.345  0.00  0.00    +0.000 OA
ENDBRANCH  14  16
ENDBRANCH   1  14
BRANCH  10  17
ATOM     17  C   UNL     1       1.277   7.472  20.683  0.00  0.00    +0.000 C 
BRANCH  17  18
ATOM     18  C   UNL     1       1.381   8.653  19.746  0.00  0.00    +0.000 A 
ATOM     19  N   UNL     1       2.008   8.619  18.584  0.00  0.00    +0.000 NA
ATOM     20  C   UNL     1       1.966   9.866  17.995  0.00  0.00    +0.000 A 
ATOM     21  C   UNL     1       1.278  10.831  18.697  0.00  0.00    +0.000 A 
ATOM     22  S   UNL     1       0.672  10.167  20.156  0.00  0.00    +0.000 S 
ENDBRANCH  17  18
ENDBRANCH  10  17
TORSDOF 4
ENDMDL
MODEL 2
REMARK VINA RESULT:      -6.6      1.623      2.061
REMARK  Name = 
REMARK  5 active torsions:
REMARK  status: ('A' for Active; 'I' for Inactive)
REMARK    1  A    between atoms: C_1  and  O_2
REMARK    2  A    between atoms: O_2  and  C_3
REMARK    3  A    between atoms: C_3  and  C_4
REMARK    4  A    between atoms: N_13  and  C_14
REMARK    5  A    between atoms: C_14  and  C_15
REMARK                            x       y       z     vdW  Elec       q    Type
REMARK                         _______ _______ _______ _____ _____    ______ ____
ROOT
ATOM      1  C   UNL     1       6.972   4.275  17.263  0.00  0.00    +0.000 C 
ATOM      2  O   UNL     1       7.978   4.315  17.976  0.00  0.00    +0.000 OA
ATOM      3  N   UNL     1       5.689   4.405  17.778  0.00  0.00    +0.000 N 
ATOM      4  C   UNL     1       5.524   4.800  19.169  0.00  0.00    +0.000 C 
ATOM      5  C   UNL     1       4.615   6.024  19.256  0.00  0.00    +0.000 C 
ATOM      6  C   UNL     1       3.229   5.775  18.597  0.00  0.00    +0.000 C 
ATOM      7  C   UNL     1       2.398   4.725  19.371  0.00  0.00    +0.000 C 
ATOM      8  C   UNL     1       2.030   5.226  20.765  0.00  0.00    +0.000 C 
ATOM      9  C   UNL     1       1.345   6.590  20.705  0.00  0.00    +0.000 C 
ATOM     10  N   UNL     1       2.110   7.586  19.936  0.00  0.00    +0.000 NA
ATOM     11  C   UNL     1       2.408   7.090  18.577  0.00  0.00    +0.000 C 
ATOM     12  C   UNL     1       3.476   5.309  17.137  0.00  0.00    +0.000 C 
ATOM     13  C   UNL     1       4.451   4.133  17.042  0.00  0.00    +0.000 C 
ENDROOT
BRANCH   1  14
ATOM     14  C   UNL     1       7.121   4.139  15.742  0.00  0.00    +0.000 C 
BRANCH  14  16
ATOM     15  C   UNL     1       7.537   5.243  13.692  0.00  0.00    +0.000 C 
ATOM     16  O   UNL     1       7.001   5.353  15.006  0.00  0.00    +0.000 OA
ENDBRANCH  14  16
ENDBRANCH   1  14
BRANCH  10  17
ATOM     17  C   UNL     1       1.337   8.855  19.888  0.00  0.00    +0.000 C 
BRANCH  17  18
ATOM     18  C   UNL     1       0.733   9.267  21.211  0.00  0.00    +0.000 A 
ATOM     19  N   UNL     1       1.303   9.048  22.382  0.00  0.00    +0.000 NA
ATOM     20  C   UNL     1       0.478   9.497  23.392  0.00  0.00    +0.000 A 
ATOM     21  C   UNL     1      -0.698  10.084  22.982  0.00  0.00    +0.000 A 
ATOM     22  S   UNL     1      -0.791  10.065  21.272  0.00  0.00    +0.000 S 
ENDBRANCH  17  18
ENDBRANCH  10  17
TORSDOF 4
ENDMDL
MODEL 3
REMARK VINA RESULT:      -6.5      2.692      4.217
REMARK  Name = 
REMARK  5 active torsions:
REMARK  status: ('A' for Active; 'I' for Inactive)
REMARK    1  A    between atoms: C_1  and  O_2
REMARK    2  A    between atoms: O_2  and  C_3
REMARK    3  A    between atoms: C_3  and  C_4
REMARK    4  A    between atoms: N_13  and  C_14
REMARK    5  A    between atoms: C_14  and  C_15
REMARK                            x       y       z     vdW  Elec       q    Type
REMARK                         _______ _______ _______ _____ _____    ______ ____
ROOT
ATOM      1  C   UNL     1       7.353   4.974  13.051  0.00  0.00    +0.000 C 
ATOM      2  O   UNL     1       7.854   6.034  12.667  0.00  0.00    +0.000 OA
ATOM      3  N   UNL     1       7.025   4.744  14.381  0.00  0.00    +0.000 N 
ATOM      4  C   UNL     1       7.085   5.851  15.324  0.00  0.00    +0.000 C 
ATOM      5  C   UNL     1       5.747   5.988  16.048  0.00  0.00    +0.000 C 
ATOM      6  C   UNL     1       5.339   4.678  16.779  0.00  0.00    +0.000 C 
ATOM      7  C   UNL     1       6.288   4.347  17.954  0.00  0.00    +0.000 C 
ATOM      8  C   UNL     1       6.194   5.399  19.056  0.00  0.00    +0.000 C 
ATOM      9  C   UNL     1       4.749   5.606  19.509  0.00  0.00    +0.000 C 
ATOM     10  N   UNL     1       3.830   5.882  18.391  0.00  0.00    +0.000 NA
ATOM     11  C   UNL     1       3.911   4.822  17.366  0.00  0.00    +0.000 C 
ATOM     12  C   UNL     1       5.344   3.531  15.733  0.00  0.00    +0.000 C 
ATOM     13  C   UNL     1       6.655   3.444  14.949  0.00  0.00    +0.000 C 
ENDROOT
BRANCH   1  14
ATOM     14  C   UNL     1       7.013   3.879  12.032  0.00  0.00    +0.000 C 
BRANCH  14  16
ATOM     15  C   UNL     1       5.445   2.183  11.523  0.00  0.00    +0.000 C 
ATOM     16  O   UNL     1       5.635   3.527  11.950  0.00  0.00    +0.000 OA
ENDBRANCH  14  16
ENDBRANCH   1  14
BRANCH  10  17
ATOM     17  C   UNL     1       2.448   6.011  18.924  0.00  0.00    +0.000 C 
BRANCH  17  18
ATOM     18  C   UNL     1       1.874   4.731  19.485  0.00  0.00    +0.000 A 
ATOM     19  N   UNL     1       1.216   3.841  18.766  0.00  0.00    +0.000 NA
ATOM     20  C   UNL     1       0.781   2.815  19.578  0.00  0.00    +0.000 A 
ATOM     21  C   UNL     1       1.141   2.913  20.904  0.00  0.00    +0.000 A 
ATOM     22  S   UNL     1       2.043   4.348  21.155  0.00  0.00    +0.000 S 
ENDBRANCH  17  18
ENDBRANCH  10  17
TORSDOF 4
ENDMDL
MODEL 4
REMARK VINA RESULT:      -6.5      1.795      2.706
REMARK  Name = 
REMARK  5 active torsions:
REMARK  status: ('A' for Active; 'I' for Inactive)
REMARK    1  A    between atoms: C_1  and  O_2
REMARK    2  A    between atoms: O_2  and  C_3
REMARK    3  A    between atoms: C_3  and  C_4
REMARK    4  A    between atoms: N_13  and  C_14
REMARK    5  A    between atoms: C_14  and  C_15
REMARK                            x       y       z     vdW  Elec       q    Type
REMARK                         _______ _______ _______ _____ _____    ______ ____
ROOT
ATOM      1  C   UNL     1       7.099   4.719  13.288  0.00  0.00    +0.000 C 
ATOM      2  O   UNL     1       7.853   5.642  12.967  0.00  0.00    +0.000 OA
ATOM      3  N   UNL     1       6.659   4.538  14.593  0.00  0.00    +0.000 N 
ATOM      4  C   UNL     1       6.927   5.575  15.579  0.00  0.00    +0.000 C 
ATOM      5  C   UNL     1       5.623   6.003  16.249  0.00  0.00    +0.000 C 
ATOM      6  C   UNL     1       4.883   4.807  16.911  0.00  0.00    +0.000 C 
ATOM      7  C   UNL     1       5.668   4.231  18.114  0.00  0.00    +0.000 C 
ATOM      8  C   UNL     1       5.765   5.246  19.250  0.00  0.00    +0.000 C 
ATOM      9  C   UNL     1       4.387   5.775  19.646  0.00  0.00    +0.000 C 
ATOM     10  N   UNL     1       3.617   6.288  18.500  0.00  0.00    +0.000 NA
ATOM     11  C   UNL     1       3.501   5.267  17.441  0.00  0.00    +0.000 C 
ATOM     12  C   UNL     1       4.675   3.719  15.824  0.00  0.00    +0.000 C 
ATOM     13  C   UNL     1       5.967   3.347  15.095  0.00  0.00    +0.000 C 
ENDROOT
BRANCH   1  14
ATOM     14  C   UNL     1       6.566   3.762  12.216  0.00  0.00    +0.000 C 
BRANCH  14  16
ATOM     15  C   UNL     1       6.893   1.703  11.098  0.00  0.00    +0.000 C 
ATOM     16  O   UNL     1       7.515   2.833  11.700  0.00  0.00    +0.000 OA
ENDBRANCH  14  16
ENDBRANCH   1  14
BRANCH  10  17
ATOM     17  C   UNL     1       2.278   6.724  18.977  0.00  0.00    +0.000 C 
BRANCH  17  18
ATOM     18  C   UNL     1       1.989   8.193  18.767  0.00  0.00    +0.000 A 
ATOM     19  N   UNL     1       2.357   8.870  17.695  0.00  0.00    +0.000 NA
ATOM     20  C   UNL     1       1.988  10.192  17.830  0.00  0.00    +0.000 A 
ATOM     21  C   UNL     1       1.311  10.505  18.989  0.00  0.00    +0.000 A 
ATOM     22  S   UNL     1       1.141   9.102  19.957  0.00  0.00    +0.000 S 
ENDBRANCH  17  18
ENDBRANCH  10  17
TORSDOF 4
ENDMDL
MODEL 5
REMARK VINA RESULT:      -6.5      1.865      2.762
REMARK  Name = 
REMARK  5 active torsions:
REMARK  status: ('A' for Active; 'I' for Inactive)
REMARK    1  A    between atoms: C_1  and  O_2
REMARK    2  A    between atoms: O_2  and  C_3
REMARK    3  A    between atoms: C_3  and  C_4
REMARK    4  A    between atoms: N_13  and  C_14
REMARK    5  A    between atoms: C_14  and  C_15
REMARK                            x       y       z     vdW  Elec       q    Type
REMARK                         _______ _______ _______ _____ _____    ______ ____
ROOT
ATOM      1  C   UNL     1       7.257   4.805  13.471  0.00  0.00    +0.000 C 
ATOM      2  O   UNL     1       7.943   5.785  13.167  0.00  0.00    +0.000 OA
ATOM      3  N   UNL     1       6.789   4.596  14.762  0.00  0.00    +0.000 N 
ATOM      4  C   UNL     1       6.938   5.656  15.747  0.00  0.00    +0.000 C 
ATOM      5  C   UNL     1       5.581   5.980  16.370  0.00  0.00    +0.000 C 
ATOM      6  C   UNL     1       4.919   4.731  17.017  0.00  0.00    +0.000 C 
ATOM      7  C   UNL     1       5.707   4.229  18.250  0.00  0.00    +0.000 C 
ATOM      8  C   UNL     1       5.682   5.254  19.379  0.00  0.00    +0.000 C 
ATOM      9  C   UNL     1       4.253   5.671  19.725  0.00  0.00    +0.000 C 
ATOM     10  N   UNL     1       3.483   6.113  18.550  0.00  0.00    +0.000 NA
ATOM     11  C   UNL     1       3.486   5.080  17.496  0.00  0.00    +0.000 C 
ATOM     12  C   UNL     1       4.837   3.624  15.932  0.00  0.00    +0.000 C 
ATOM     13  C   UNL     1       6.179   3.355  15.250  0.00  0.00    +0.000 C 
ENDROOT
BRANCH   1  14
ATOM     14  C   UNL     1       6.840   3.801  12.389  0.00  0.00    +0.000 C 
BRANCH  14  16
ATOM     15  C   UNL     1       5.005   2.573  11.543  0.00  0.00    +0.000 C 
ATOM     16  O   UNL     1       5.462   3.830  12.027  0.00  0.00    +0.000 OA
ENDBRANCH  14  16
ENDBRANCH   1  14
BRANCH  10  17
ATOM     17  C   UNL     1       2.098   6.441  18.979  0.00  0.00    +0.000 C 
BRANCH  17  18
ATOM     18  C   UNL     1       1.812   7.921  19.085  0.00  0.00    +0.000 A 
ATOM     19  N   UNL     1       1.364   8.509  20.179  0.00  0.00    +0.000 NA
ATOM     20  C   UNL     1       1.158   9.851  19.937  0.00  0.00    +0.000 A 
ATOM     21  C   UNL     1       1.482  10.282  18.670  0.00  0.00    +0.000 A 
ATOM     22  S   UNL     1       2.052   8.963  17.736  0.00  0.00    +0.000 S 
ENDBRANCH  17  18
ENDBRANCH  10  17
TORSDOF 4
ENDMDL
MODEL 6
REMARK VINA RESULT:      -6.3      4.120      7.264
REMARK  Name = 
REMARK  5 active torsions:
REMARK  status: ('A' for Active; 'I' for Inactive)
REMARK    1  A    between atoms: C_1  and  O_2
REMARK    2  A    between atoms: O_2  and  C_3
REMARK    3  A    between atoms: C_3  and  C_4
REMARK    4  A    between atoms: N_13  and  C_14
REMARK    5  A    between atoms: C_14  and  C_15
REMARK                            x       y       z     vdW  Elec       q    Type
REMARK                         _______ _______ _______ _____ _____    ______ ____
ROOT
ATOM      1  C   UNL     1       0.887  10.272  19.896  0.00  0.00    +0.000 C 
ATOM      2  O   UNL     1       0.579  11.036  18.977  0.00  0.00    +0.000 OA
ATOM      3  N   UNL     1       1.059   8.908  19.705  0.00  0.00    +0.000 N 
ATOM      4  C   UNL     1       1.073   8.382  18.347  0.00  0.00    +0.000 C 
ATOM      5  C   UNL     1       2.347   7.570  18.119  0.00  0.00    +0.000 C 
ATOM      6  C   UNL     1       2.497   6.414  19.147  0.00  0.00    +0.000 C 
ATOM      7  C   UNL     1       1.409   5.329  18.967  0.00  0.00    +0.000 C 
ATOM      8  C   UNL     1       1.554   4.617  17.625  0.00  0.00    +0.000 C 
ATOM      9  C   UNL     1       2.967   4.068  17.433  0.00  0.00    +0.000 C 
ATOM     10  N   UNL     1       4.012   5.085  17.643  0.00  0.00    +0.000 NA
ATOM     11  C   UNL     1       3.873   5.721  18.968  0.00  0.00    +0.000 C 
ATOM     12  C   UNL     1       2.422   7.032  20.569  0.00  0.00    +0.000 C 
ATOM     13  C   UNL     1       1.188   7.912  20.773  0.00  0.00    +0.000 C 
ENDROOT
BRANCH   1  14
ATOM     14  C   UNL     1       1.157  10.836  21.297  0.00  0.00    +0.000 C 
BRANCH  14  16
ATOM     15  C   UNL     1      -0.619  10.519  22.827  0.00  0.00    +0.000 C 
ATOM     16  O   UNL     1       0.033  11.425  21.945  0.00  0.00    +0.000 OA
ENDBRANCH  14  16
ENDBRANCH   1  14
BRANCH  10  17
ATOM     17  C   UNL     1       5.345   4.444  17.490  0.00  0.00    +0.000 C 
BRANCH  17  18
ATOM     18  C   UNL     1       6.487   5.229  18.092  0.00  0.00    +0.000 A 
ATOM     19  N   UNL     1       7.145   4.860  19.176  0.00  0.00    +0.000 NA
ATOM     20  C   UNL     1       8.090   5.812  19.494  0.00  0.00    +0.000 A 
ATOM     21  C   UNL     1       8.169   6.883  18.631  0.00  0.00    +0.000 A 
ATOM     22  S   UNL     1       7.009   6.708  17.382  0.00  0.00    +0.000 S 
ENDBRANCH  17  18
ENDBRANCH  10  17
TORSDOF 4
ENDMDL
MODEL 7
REMARK VINA RESULT:      -6.2      3.982      6.783
REMARK  Name = 
REMARK  5 active torsions:
REMARK  status: ('A' for Active; 'I' for Inactive)
REMARK    1  A    between atoms: C_1  and  O_2
REMARK    2  A    between atoms: O_2  and  C_3
REMARK    3  A    between atoms: C_3  and  C_4
REMARK    4  A    between atoms: N_13  and  C_14
REMARK    5  A    between atoms: C_14  and  C_15
REMARK                            x       y       z     vdW  Elec       q    Type
REMARK                         _______ _______ _______ _____ _____    ______ ____
ROOT
ATOM      1  C   UNL     1       2.373   6.177  19.344  0.00  0.00    +0.000 C 
ATOM      2  O   UNL     1       2.812   5.945  18.215  0.00  0.00    +0.000 OA
ATOM      3  N   UNL     1       2.073   7.462  19.776  0.00  0.00    +0.000 N 
ATOM      4  C   UNL     1       2.083   8.552  18.811  0.00  0.00    +0.000 C 
ATOM      5  C   UNL     1       0.748   9.293  18.851  0.00  0.00    +0.000 C 
ATOM      6  C   UNL     1       0.419   9.833  20.271  0.00  0.00    +0.000 C 
ATOM      7  C   UNL     1       1.398  10.947  20.710  0.00  0.00    +0.000 C 
ATOM      8  C   UNL     1       1.259  12.187  19.831  0.00  0.00    +0.000 C 
ATOM      9  C   UNL     1      -0.190  12.668  19.769  0.00  0.00    +0.000 C 
ATOM     10  N   UNL     1      -1.135  11.604  19.390  0.00  0.00    +0.000 NA
ATOM     11  C   UNL     1      -1.008  10.439  20.289  0.00  0.00    +0.000 C 
ATOM     12  C   UNL     1       0.475   8.636  21.258  0.00  0.00    +0.000 C 
ATOM     13  C   UNL     1       1.780   7.843  21.161  0.00  0.00    +0.000 C 
ENDROOT
BRANCH   1  14
ATOM     14  C   UNL     1       2.082   5.016  20.303  0.00  0.00    +0.000 C 
BRANCH  14  16
ATOM     15  C   UNL     1       0.985   3.040  19.606  0.00  0.00    +0.000 C 
ATOM     16  O   UNL     1       0.831   4.362  20.108  0.00  0.00    +0.000 OA
ENDBRANCH  14  16
ENDBRANCH   1  14
BRANCH  10  17
ATOM     17  C   UNL     1      -2.515  12.154  19.413  0.00  0.00    +0.000 C 
BRANCH  17  18
ATOM     18  C   UNL     1      -3.349  11.799  18.204  0.00  0.00    +0.000 A 
ATOM     19  N   UNL     1      -4.647  12.022  18.112  0.00  0.00    +0.000 NA
ATOM     20  C   UNL     1      -5.118  11.539  16.909  0.00  0.00    +0.000 A 
ATOM     21  C   UNL     1      -4.170  10.984  16.079  0.00  0.00    +0.000 A 
ATOM     22  S   UNL     1      -2.632  11.048  16.830  0.00  0.00    +0.000 S 
ENDBRANCH  17  18
ENDBRANCH  10  17
TORSDOF 4
ENDMDL
MODEL 8
REMARK VINA RESULT:      -6.1      1.218      1.284
REMARK  Name = 
REMARK  5 active torsions:
REMARK  status: ('A' for Active; 'I' for Inactive)
REMARK    1  A    between atoms: C_1  and  O_2
REMARK    2  A    between atoms: O_2  and  C_3
REMARK    3  A    between atoms: C_3  and  C_4
REMARK    4  A    between atoms: N_13  and  C_14
REMARK    5  A    between atoms: C_14  and  C_15
REMARK                            x       y       z     vdW  Elec       q    Type
REMARK                         _______ _______ _______ _____ _____    ______ ____
ROOT
ATOM      1  C   UNL     1       6.568   4.823  15.922  0.00  0.00    +0.000 C 
ATOM      2  O   UNL     1       7.653   5.300  16.264  0.00  0.00    +0.000 OA
ATOM      3  N   UNL     1       5.629   4.374  16.841  0.00  0.00    +0.000 N 
ATOM      4  C   UNL     1       5.837   4.652  18.255  0.00  0.00    +0.000 C 
ATOM      5  C   UNL     1       4.607   5.351  18.832  0.00  0.00    +0.000 C 
ATOM      6  C   UNL     1       3.310   4.519  18.630  0.00  0.00    +0.000 C 
ATOM      7  C   UNL     1       3.327   3.208  19.451  0.00  0.00    +0.000 C 
ATOM      8  C   UNL     1       3.323   3.493  20.951  0.00  0.00    +0.000 C 
ATOM      9  C   UNL     1       2.169   4.416  21.341  0.00  0.00    +0.000 C 
ATOM     10  N   UNL     1       2.121   5.649  20.537  0.00  0.00    +0.000 NA
ATOM     11  C   UNL     1       2.078   5.338  19.094  0.00  0.00    +0.000 C 
ATOM     12  C   UNL     1       3.175   4.212  17.114  0.00  0.00    +0.000 C 
ATOM     13  C   UNL     1       4.436   3.586  16.517  0.00  0.00    +0.000 C 
ENDROOT
BRANCH   1  14
ATOM     14  C   UNL     1       6.194   4.770  14.435  0.00  0.00    +0.000 C 
BRANCH  14  16
ATOM     15  C   UNL     1       5.996   3.518  12.439  0.00  0.00    +0.000 C 
ATOM     16  O   UNL     1       6.479   3.539  13.777  0.00  0.00    +0.000 OA
ENDBRANCH  14  16
ENDBRANCH   1  14
BRANCH  10  17
ATOM     17  C   UNL     1       0.939   6.449  20.951  0.00  0.00    +0.000 C 
BRANCH  17  18
ATOM     18  C   UNL     1       1.071   7.933  20.700  0.00  0.00    +0.000 A 
ATOM     19  N   UNL     1       1.488   8.455  19.561  0.00  0.00    +0.000 NA
ATOM     20  C   UNL     1       1.544   9.828  19.670  0.00  0.00    +0.000 A 
ATOM     21  C   UNL     1       1.137  10.345  20.880  0.00  0.00    +0.000 A 
ATOM     22  S   UNL     1       0.681   9.072  21.932  0.00  0.00    +0.000 S 
ENDBRANCH  17  18
ENDBRANCH  10  17
TORSDOF 4
ENDMDL
MODEL 9
REMARK VINA RESULT:      -6.0      1.067      1.141
REMARK  Name = 
REMARK  5 active torsions:
REMARK  status: ('A' for Active; 'I' for Inactive)
REMARK    1  A    between atoms: C_1  and  O_2
REMARK    2  A    between atoms: O_2  and  C_3
REMARK    3  A    between atoms: C_3  and  C_4
REMARK    4  A    between atoms: N_13  and  C_14
REMARK    5  A    between atoms: C_14  and  C_15
REMARK                            x       y       z     vdW  Elec       q    Type
REMARK                         _______ _______ _______ _____ _____    ______ ____
ROOT
ATOM      1  C   UNL     1       7.000   4.475  16.581  0.00  0.00    +0.000 C 
ATOM      2  O   UNL     1       8.081   4.552  17.171  0.00  0.00    +0.000 OA
ATOM      3  N   UNL     1       5.797   4.296  17.252  0.00  0.00    +0.000 N 
ATOM      4  C   UNL     1       5.777   4.398  18.704  0.00  0.00    +0.000 C 
ATOM      5  C   UNL     1       4.726   5.419  19.137  0.00  0.00    +0.000 C 
ATOM      6  C   UNL     1       3.310   5.067  18.601  0.00  0.00    +0.000 C 
ATOM      7  C   UNL     1       2.754   3.771  19.236  0.00  0.00    +0.000 C 
ATOM      8  C   UNL     1       2.521   3.943  20.734  0.00  0.00    +0.000 C 
ATOM      9  C   UNL     1       1.648   5.162  21.028  0.00  0.00    +0.000 C 
ATOM     10  N   UNL     1       2.148   6.394  20.394  0.00  0.00    +0.000 NA
ATOM     11  C   UNL     1       2.317   6.209  18.938  0.00  0.00    +0.000 C 
ATOM     12  C   UNL     1       3.411   4.920  17.059  0.00  0.00    +0.000 C 
ATOM     13  C   UNL     1       4.518   3.960  16.621  0.00  0.00    +0.000 C 
ENDROOT
BRANCH   1  14
ATOM     14  C   UNL     1       6.949   4.644  15.058  0.00  0.00    +0.000 C 
BRANCH  14  16
ATOM     15  C   UNL     1       5.948   3.796  13.090  0.00  0.00    +0.000 C 
ATOM     16  O   UNL     1       6.577   3.479  14.327  0.00  0.00    +0.000 OA
ENDBRANCH  14  16
ENDBRANCH   1  14
BRANCH  10  17
ATOM     17  C   UNL     1       1.206   7.504  20.690  0.00  0.00    +0.000 C 
BRANCH  17  18
ATOM     18  C   UNL     1       1.386   8.724  19.816  0.00  0.00    +0.000 A 
ATOM     19  N   UNL     1       1.057   9.949  20.183  0.00  0.00    +0.000 NA
ATOM     20  C   UNL     1       1.297  10.827  19.147  0.00  0.00    +0.000 A 
ATOM     21  C   UNL     1       1.839  10.269  18.010  0.00  0.00    +0.000 A 
ATOM     22  S   UNL     1       2.043   8.582  18.231  0.00  0.00    +0.000 S 
ENDBRANCH  17  18
ENDBRANCH  10  17
TORSDOF 4
ENDMDL
