MODEL 1
REMARK VINA RESULT:      -7.8      0.000      0.000
REMARK  Name = 
REMARK  9 active torsions:
REMARK  status: ('A' for Active; 'I' for Inactive)
REMARK    1  A    between atoms: C_1  and  O_2
REMARK    2  A    between atoms: O_2  and  C_3
REMARK    3  A    between atoms: C_6  and  C_7
REMARK    4  A    between atoms: C_7  and  C_8
REMARK    5  A    between atoms: C_7  and  C_12
REMARK    6  A    between atoms: C_7  and  C_18
REMARK    7  A    between atoms: C_8  and  C_9
REMARK    8  A    between atoms: C_9  and  C_10
REMARK    9  A    between atoms: C_10  and  N_11
REMARK                            x       y       z     vdW  Elec       q    Type
REMARK                         _______ _______ _______ _____ _____    ______ ____
ROOT
ATOM      1  C   UNL     1       3.849   5.349  18.411  0.00  0.00    +0.000 C 
ENDROOT
BRANCH   1   5
ATOM      2  C   UNL     1       5.890   4.676  14.568  0.00  0.00    +0.000 A 
ATOM      3  C   UNL     1       5.343   3.604  15.262  0.00  0.00    +0.000 A 
ATOM      4  C   UNL     1       4.600   3.815  16.427  0.00  0.00    +0.000 A 
ATOM      5  C   UNL     1       4.448   5.098  16.982  0.00  0.00    +0.000 A 
ATOM      6  C   UNL     1       4.933   6.175  16.210  0.00  0.00    +0.000 A 
ATOM      7  C   UNL     1       5.662   5.968  15.029  0.00  0.00    +0.000 A 
BRANCH   2   9
ATOM      8  C   UNL     1       6.030   3.495  12.535  0.00  0.00    +0.000 C 
ATOM      9  O   UNL     1       6.659   4.339  13.491  0.00  0.00    +0.000 OA
ENDBRANCH   2   9
ENDBRANCH   1   5
BRANCH   1  10
ATOM     10  C   UNL     1       3.056   6.712  18.519  0.00  0.00    +0.000 A 
ATOM     11  C   UNL     1       3.001   7.661  17.479  0.00  0.00    +0.000 A 
ATOM     12  C   UNL     1       2.280   8.852  17.611  0.00  0.00    +0.000 A 
ATOM     13  C   UNL     1       1.630   9.149  18.803  0.00  0.00    +0.000 A 
ATOM     14  C   UNL     1       1.692   8.250  19.861  0.00  0.00    +0.000 A 
ATOM     15  C   UNL     1       2.387   7.045  19.719  0.00  0.00    +0.000 A 
ENDBRANCH   1  10
BRANCH   1  16
ATOM     16  C   UNL     1       2.916   4.129  18.769  0.00  0.00    +0.000 A 
ATOM     17  C   UNL     1       3.202   3.259  19.840  0.00  0.00    +0.000 A 
ATOM     18  C   UNL     1       2.346   2.202  20.174  0.00  0.00    +0.000 A 
ATOM     19  C   UNL     1       1.197   1.966  19.430  0.00  0.00    +0.000 A 
ATOM     20  C   UNL     1       0.907   2.782  18.343  0.00  0.00    +0.000 A 
ATOM     21  C   UNL     1       1.756   3.846  18.014  0.00  0.00    +0.000 A 
ENDBRANCH   1  16
BRANCH   1  22
ATOM     22  C   UNL     1       4.985   5.451  19.517  0.00  0.00    +0.000 C 
BRANCH  22  23
ATOM     23  C   UNL     1       6.358   4.816  19.185  0.00  0.00    +0.000 C 
BRANCH  23  24
ATOM     24  C   UNL     1       7.517   5.736  19.579  0.00  0.00    +0.000 C 
BRANCH  24  25
ATOM     25  N   UNL     1       8.121   5.309  20.834  0.00  0.00    +0.000 NA
ATOM     26  H   UNL     1       9.080   5.006  20.661  0.00  0.00    +0.000 HD
ATOM     27  H   UNL     1       7.623   4.496  21.192  0.00  0.00    +0.000 HD
ENDBRANCH  24  25
ENDBRANCH  23  24
ENDBRANCH  22  23
ENDBRANCH   1  22
TORSDOF 8
ENDMDL
MODEL 2
REMARK VINA RESULT:      -7.7      0.273      1.369
REMARK  Name = 
REMARK  9 active torsions:
REMARK  status: ('A' for Active; 'I' for Inactive)
REMARK    1  A    between atoms: C_1  and  O_2
REMARK    2  A    between atoms: O_2  and  C_3
REMARK    3  A    between atoms: C_6  and  C_7
REMARK    4  A    between atoms: C_7  and  C_8
REMARK    5  A    between atoms: C_7  and  C_12
REMARK    6  A    between atoms: C_7  and  C_18
REMARK    7  A    between atoms: C_8  and  C_9
REMARK    8  A    between atoms: C_9  and  C_10
REMARK    9  A    between atoms: C_10  and  N_11
REMARK                            x       y       z     vdW  Elec       q    Type
REMARK                         _______ _______ _______ _____ _____    ______ ____
ROOT
ATOM      1  C   UNL     1       3.765   5.457  18.433  0.00  0.00    +0.000 C 
ENDROOT
BRANCH   1   5
ATOM      2  C   UNL     1       5.892   4.980  14.606  0.00  0.00    +0.000 A 
ATOM      3  C   UNL     1       5.220   3.902  15.167  0.00  0.00    +0.000 A 
ATOM      4  C   UNL     1       4.452   4.066  16.324  0.00  0.00    +0.000 A 
ATOM      5  C   UNL     1       4.397   5.295  17.005  0.00  0.00    +0.000 A 
ATOM      6  C   UNL     1       5.012   6.392  16.364  0.00  0.00    +0.000 A 
ATOM      7  C   UNL     1       5.767   6.235  15.193  0.00  0.00    +0.000 A 
BRANCH   2   9
ATOM      8  C   UNL     1       6.218   3.589  12.734  0.00  0.00    +0.000 C 
ATOM      9  O   UNL     1       6.670   4.681  13.525  0.00  0.00    +0.000 OA
ENDBRANCH   2   9
ENDBRANCH   1   5
BRANCH   1  10
ATOM     10  C   UNL     1       2.948   6.800  18.598  0.00  0.00    +0.000 A 
ATOM     11  C   UNL     1       2.320   7.182  19.800  0.00  0.00    +0.000 A 
ATOM     12  C   UNL     1       1.613   8.384  19.908  0.00  0.00    +0.000 A 
ATOM     13  C   UNL     1       1.477   9.218  18.804  0.00  0.00    +0.000 A 
ATOM     14  C   UNL     1       2.055   8.855  17.594  0.00  0.00    +0.000 A 
ATOM     15  C   UNL     1       2.789   7.668  17.494  0.00  0.00    +0.000 A 
ENDBRANCH   1  10
BRANCH   1  16
ATOM     16  C   UNL     1       2.845   4.205  18.703  0.00  0.00    +0.000 A 
ATOM     17  C   UNL     1       1.537   4.114  18.185  0.00  0.00    +0.000 A 
ATOM     18  C   UNL     1       0.742   2.981  18.398  0.00  0.00    +0.000 A 
ATOM     19  C   UNL     1       1.219   1.921  19.159  0.00  0.00    +0.000 A 
ATOM     20  C   UNL     1       2.489   1.997  19.717  0.00  0.00    +0.000 A 
ATOM     21  C   UNL     1       3.290   3.125  19.496  0.00  0.00    +0.000 A 
ENDBRANCH   1  16
BRANCH   1  22
ATOM     22  C   UNL     1       4.877   5.515  19.566  0.00  0.00    +0.000 C 
BRANCH  22  23
ATOM     23  C   UNL     1       6.214   4.786  19.287  0.00  0.00    +0.000 C 
BRANCH  23  24
ATOM     24  C   UNL     1       7.413   5.729  19.421  0.00  0.00    +0.000 C 
BRANCH  24  25
ATOM     25  N   UNL     1       8.237   5.368  20.567  0.00  0.00    +0.000 NA
ATOM     26  H   UNL     1       9.185   5.163  20.249  0.00  0.00    +0.000 HD
ATOM     27  H   UNL     1       7.882   4.509  20.984  0.00  0.00    +0.000 HD
ENDBRANCH  24  25
ENDBRANCH  23  24
ENDBRANCH  22  23
ENDBRANCH   1  22
TORSDOF 8
ENDMDL
MODEL 3
REMARK VINA RESULT:      -7.5      2.639      5.369
REMARK  Name = 
REMARK  9 active torsions:
REMARK  status: ('A' for Active; 'I' for Inactive)
REMARK    1  A    between atoms: C_1  and  O_2
REMARK    2  A    between atoms: O_2  and  C_3
REMARK    3  A    between atoms: C_6  and  C_7
REMARK    4  A    between atoms: C_7  and  C_8
REMARK    5  A    between atoms: C_7  and  C_12
REMARK    6  A    between atoms: C_7  and  C_18
REMARK    7  A    between atoms: C_8  and  C_9
REMARK    8  A    between atoms: C_9  and  C_10
REMARK    9  A    between atoms: C_10  and  N_11
REMARK                            x       y       z     vdW  Elec       q    Type
REMARK                         _______ _______ _______ _____ _____    ______ ____
ROOT
ATOM      1  C   UNL     1       4.361   5.675  17.580  0.00  0.00    +0.000 C 
ENDROOT
BRANCH   1   5
ATOM      2  C   UNL     1       1.609   8.748  19.121  0.00  0.00    +0.000 A 
ATOM      3  C   UNL     1       2.053   8.809  17.807  0.00  0.00    +0.000 A 
ATOM      4  C   UNL     1       2.839   7.784  17.273  0.00  0.00    +0.000 A 
ATOM      5  C   UNL     1       3.276   6.704  18.060  0.00  0.00    +0.000 A 
ATOM      6  C   UNL     1       2.735   6.619  19.360  0.00  0.00    +0.000 A 
ATOM      7  C   UNL     1       1.930   7.637  19.893  0.00  0.00    +0.000 A 
BRANCH   2   9
ATOM      8  C   UNL     1       0.689   9.906  20.954  0.00  0.00    +0.000 C 
ATOM      9  O   UNL     1       0.915   9.843  19.551  0.00  0.00    +0.000 OA
ENDBRANCH   2   9
ENDBRANCH   1   5
BRANCH   1  10
ATOM     10  C   UNL     1       5.812   6.016  18.106  0.00  0.00    +0.000 A 
ATOM     11  C   UNL     1       6.428   5.336  19.174  0.00  0.00    +0.000 A 
ATOM     12  C   UNL     1       7.718   5.663  19.605  0.00  0.00    +0.000 A 
ATOM     13  C   UNL     1       8.412   6.709  19.007  0.00  0.00    +0.000 A 
ATOM     14  C   UNL     1       7.819   7.423  17.973  0.00  0.00    +0.000 A 
ATOM     15  C   UNL     1       6.541   7.077  17.521  0.00  0.00    +0.000 A 
ENDBRANCH   1  10
BRANCH   1  16
ATOM     16  C   UNL     1       3.916   4.239  18.058  0.00  0.00    +0.000 A 
ATOM     17  C   UNL     1       4.566   3.568  19.113  0.00  0.00    +0.000 A 
ATOM     18  C   UNL     1       4.138   2.311  19.555  0.00  0.00    +0.000 A 
ATOM     19  C   UNL     1       3.069   1.675  18.938  0.00  0.00    +0.000 A 
ATOM     20  C   UNL     1       2.431   2.292  17.869  0.00  0.00    +0.000 A 
ATOM     21  C   UNL     1       2.851   3.555  17.432  0.00  0.00    +0.000 A 
ENDBRANCH   1  16
BRANCH   1  22
ATOM     22  C   UNL     1       4.495   5.656  15.997  0.00  0.00    +0.000 C 
BRANCH  22  23
ATOM     23  C   UNL     1       5.343   4.523  15.370  0.00  0.00    +0.000 C 
BRANCH  23  24
ATOM     24  C   UNL     1       6.281   5.053  14.281  0.00  0.00    +0.000 C 
BRANCH  24  25
ATOM     25  N   UNL     1       7.641   5.191  14.784  0.00  0.00    +0.000 NA
ATOM     26  H   UNL     1       8.300   4.919  14.053  0.00  0.00    +0.000 HD
ATOM     27  H   UNL     1       7.786   4.543  15.557  0.00  0.00    +0.000 HD
ENDBRANCH  24  25
ENDBRANCH  23  24
ENDBRANCH  22  23
ENDBRANCH   1  22
TORSDOF 8
ENDMDL
MODEL 4
REMARK VINA RESULT:      -7.5      2.628      5.401
REMARK  Name = 
REMARK  9 active torsions:
REMARK  status: ('A' for Active; 'I' for Inactive)
REMARK    1  A    between atoms: C_1  and  O_2
REMARK    2  A    between atoms: O_2  and  C_3
REMARK    3  A    between atoms: C_6  and  C_7
REMARK    4  A    between atoms: C_7  and  C_8
REMARK    5  A    between atoms: C_7  and  C_12
REMARK    6  A    between atoms: C_7  and  C_18
REMARK    7  A    between atoms: C_8  and  C_9
REMARK    8  A    between atoms: C_9  and  C_10
REMARK    9  A    between atoms: C_10  and  N_11
REMARK                            x       y       z     vdW  Elec       q    Type
REMARK                         _______ _______ _______ _____ _____    ______ ____
ROOT
ATOM      1  C   UNL     1       4.394   5.697  17.576  0.00  0.00    +0.000 C 
ENDROOT
BRANCH   1   5
ATOM      2  C   UNL     1       1.669   8.804  19.095  0.00  0.00    +0.000 A 
ATOM      3  C   UNL     1       2.158   8.883  17.798  0.00  0.00    +0.000 A 
ATOM      4  C   UNL     1       2.936   7.849  17.267  0.00  0.00    +0.000 A 
ATOM      5  C   UNL     1       3.319   6.742  18.043  0.00  0.00    +0.000 A 
ATOM      6  C   UNL     1       2.734   6.643  19.323  0.00  0.00    +0.000 A 
ATOM      7  C   UNL     1       1.936   7.669  19.852  0.00  0.00    +0.000 A 
BRANCH   2   9
ATOM      8  C   UNL     1      -0.321  10.061  18.994  0.00  0.00    +0.000 C 
ATOM      9  O   UNL     1       0.988   9.907  19.527  0.00  0.00    +0.000 OA
ENDBRANCH   2   9
ENDBRANCH   1   5
BRANCH   1  10
ATOM     10  C   UNL     1       5.839   6.004  18.135  0.00  0.00    +0.000 A 
ATOM     11  C   UNL     1       6.416   5.310  19.217  0.00  0.00    +0.000 A 
ATOM     12  C   UNL     1       7.704   5.607  19.676  0.00  0.00    +0.000 A 
ATOM     13  C   UNL     1       8.434   6.637  19.096  0.00  0.00    +0.000 A 
ATOM     14  C   UNL     1       7.881   7.366  18.049  0.00  0.00    +0.000 A 
ATOM     15  C   UNL     1       6.606   7.048  17.569  0.00  0.00    +0.000 A 
ENDBRANCH   1  10
BRANCH   1  16
ATOM     16  C   UNL     1       3.911   4.265  18.031  0.00  0.00    +0.000 A 
ATOM     17  C   UNL     1       2.800   3.629  17.440  0.00  0.00    +0.000 A 
ATOM     18  C   UNL     1       2.404   2.342  17.824  0.00  0.00    +0.000 A 
ATOM     19  C   UNL     1       3.085   1.667  18.829  0.00  0.00    +0.000 A 
ATOM     20  C   UNL     1       4.160   2.283  19.459  0.00  0.00    +0.000 A 
ATOM     21  C   UNL     1       4.565   3.566  19.069  0.00  0.00    +0.000 A 
ENDBRANCH   1  16
BRANCH   1  22
ATOM     22  C   UNL     1       4.561   5.689  15.996  0.00  0.00    +0.000 C 
BRANCH  22  23
ATOM     23  C   UNL     1       5.311   4.490  15.367  0.00  0.00    +0.000 C 
BRANCH  23  24
ATOM     24  C   UNL     1       6.275   4.940  14.265  0.00  0.00    +0.000 C 
BRANCH  24  25
ATOM     25  N   UNL     1       7.591   5.242  14.814  0.00  0.00    +0.000 NA
ATOM     26  H   UNL     1       7.519   6.048  15.437  0.00  0.00    +0.000 HD
ATOM     27  H   UNL     1       8.219   5.516  14.061  0.00  0.00    +0.000 HD
ENDBRANCH  24  25
ENDBRANCH  23  24
ENDBRANCH  22  23
ENDBRANCH   1  22
TORSDOF 8
ENDMDL
MODEL 5
REMARK VINA RESULT:      -7.3      2.107      5.598
REMARK  Name = 
REMARK  9 active torsions:
REMARK  status: ('A' for Active; 'I' for Inactive)
REMARK    1  A    between atoms: C_1  and  O_2
REMARK    2  A    between atoms: O_2  and  C_3
REMARK    3  A    between atoms: C_6  and  C_7
REMARK    4  A    between atoms: C_7  and  C_8
REMARK    5  A    between atoms: C_7  and  C_12
REMARK    6  A    between atoms: C_7  and  C_18
REMARK    7  A    between atoms: C_8  and  C_9
REMARK    8  A    between atoms: C_9  and  C_10
REMARK    9  A    between atoms: C_10  and  N_11
REMARK                            x       y       z     vdW  Elec       q    Type
REMARK                         _______ _______ _______ _____ _____    ______ ____
ROOT
ATOM      1  C   UNL     1       3.658   5.461  18.541  0.00  0.00    +0.000 C 
ENDROOT
BRANCH   1   5
ATOM      2  C   UNL     1       1.579   9.323  18.925  0.00  0.00    +0.000 A 
ATOM      3  C   UNL     1       2.036   8.901  17.684  0.00  0.00    +0.000 A 
ATOM      4  C   UNL     1       2.601   7.631  17.528  0.00  0.00    +0.000 A 
ATOM      5  C   UNL     1       2.802   6.774  18.624  0.00  0.00    +0.000 A 
ATOM      6  C   UNL     1       2.246   7.190  19.853  0.00  0.00    +0.000 A 
ATOM      7  C   UNL     1       1.661   8.455  20.008  0.00  0.00    +0.000 A 
BRANCH   2   9
ATOM      8  C   UNL     1      -0.249  10.777  18.625  0.00  0.00    +0.000 C 
ATOM      9  O   UNL     1       1.120  10.608  18.969  0.00  0.00    +0.000 OA
ENDBRANCH   2   9
ENDBRANCH   1   5
BRANCH   1  10
ATOM     10  C   UNL     1       2.807   4.151  18.784  0.00  0.00    +0.000 A 
ATOM     11  C   UNL     1       1.517   3.956  18.254  0.00  0.00    +0.000 A 
ATOM     12  C   UNL     1       0.799   2.778  18.485  0.00  0.00    +0.000 A 
ATOM     13  C   UNL     1       1.334   1.779  19.290  0.00  0.00    +0.000 A 
ATOM     14  C   UNL     1       2.591   1.954  19.857  0.00  0.00    +0.000 A 
ATOM     15  C   UNL     1       3.322   3.119  19.601  0.00  0.00    +0.000 A 
ENDBRANCH   1  10
BRANCH   1  16
ATOM     16  C   UNL     1       4.353   5.422  17.125  0.00  0.00    +0.000 A 
ATOM     17  C   UNL     1       4.850   6.586  16.505  0.00  0.00    +0.000 A 
ATOM     18  C   UNL     1       5.501   6.535  15.266  0.00  0.00    +0.000 A 
ATOM     19  C   UNL     1       5.646   5.326  14.598  0.00  0.00    +0.000 A 
ATOM     20  C   UNL     1       5.131   4.166  15.164  0.00  0.00    +0.000 A 
ATOM     21  C   UNL     1       4.490   4.213  16.408  0.00  0.00    +0.000 A 
ENDBRANCH   1  16
BRANCH   1  22
ATOM     22  C   UNL     1       4.790   5.424  19.655  0.00  0.00    +0.000 C 
BRANCH  22  23
ATOM     23  C   UNL     1       6.154   4.806  19.261  0.00  0.00    +0.000 C 
BRANCH  23  24
ATOM     24  C   UNL     1       7.301   5.805  19.437  0.00  0.00    +0.000 C 
BRANCH  24  25
ATOM     25  N   UNL     1       8.169   5.415  20.540  0.00  0.00    +0.000 NA
ATOM     26  H   UNL     1       7.597   5.171  21.349  0.00  0.00    +0.000 HD
ATOM     27  H   UNL     1       8.741   6.209  20.822  0.00  0.00    +0.000 HD
ENDBRANCH  24  25
ENDBRANCH  23  24
ENDBRANCH  22  23
ENDBRANCH   1  22
TORSDOF 8
ENDMDL
MODEL 6
REMARK VINA RESULT:      -7.3      2.112      5.610
REMARK  Name = 
REMARK  9 active torsions:
REMARK  status: ('A' for Active; 'I' for Inactive)
REMARK    1  A    between atoms: C_1  and  O_2
REMARK    2  A    between atoms: O_2  and  C_3
REMARK    3  A    between atoms: C_6  and  C_7
REMARK    4  A    between atoms: C_7  and  C_8
REMARK    5  A    between atoms: C_7  and  C_12
REMARK    6  A    between atoms: C_7  and  C_18
REMARK    7  A    between atoms: C_8  and  C_9
REMARK    8  A    between atoms: C_9  and  C_10
REMARK    9  A    between atoms: C_10  and  N_11
REMARK                            x       y       z     vdW  Elec       q    Type
REMARK                         _______ _______ _______ _____ _____    ______ ____
ROOT
ATOM      1  C   UNL     1       3.770   5.482  18.593  0.00  0.00    +0.000 C 
ENDROOT
BRANCH   1   5
ATOM      2  C   UNL     1       1.370   9.169  18.774  0.00  0.00    +0.000 A 
ATOM      3  C   UNL     1       1.503   8.371  19.902  0.00  0.00    +0.000 A 
ATOM      4  C   UNL     1       2.348   7.257  19.890  0.00  0.00    +0.000 A 
ATOM      5  C   UNL     1       3.024   6.857  18.724  0.00  0.00    +0.000 A 
ATOM      6  C   UNL     1       2.943   7.736  17.623  0.00  0.00    +0.000 A 
ATOM      7  C   UNL     1       2.112   8.865  17.638  0.00  0.00    +0.000 A 
BRANCH   2   9
ATOM      8  C   UNL     1      -0.348  10.149  20.053  0.00  0.00    +0.000 C 
ATOM      9  O   UNL     1       0.459  10.181  18.883  0.00  0.00    +0.000 OA
ENDBRANCH   2   9
ENDBRANCH   1   5
BRANCH   1  10
ATOM     10  C   UNL     1       2.827   4.240  18.849  0.00  0.00    +0.000 A 
ATOM     11  C   UNL     1       3.133   3.210  19.760  0.00  0.00    +0.000 A 
ATOM     12  C   UNL     1       2.267   2.131  19.965  0.00  0.00    +0.000 A 
ATOM     13  C   UNL     1       1.090   2.029  19.233  0.00  0.00    +0.000 A 
ATOM     14  C   UNL     1       0.774   3.010  18.301  0.00  0.00    +0.000 A 
ATOM     15  C   UNL     1       1.624   4.106  18.118  0.00  0.00    +0.000 A 
ENDBRANCH   1  10
BRANCH   1  16
ATOM     16  C   UNL     1       4.409   5.410  17.152  0.00  0.00    +0.000 A 
ATOM     17  C   UNL     1       4.905   6.556  16.498  0.00  0.00    +0.000 A 
ATOM     18  C   UNL     1       5.507   6.476  15.236  0.00  0.00    +0.000 A 
ATOM     19  C   UNL     1       5.603   5.255  14.579  0.00  0.00    +0.000 A 
ATOM     20  C   UNL     1       5.088   4.113  15.181  0.00  0.00    +0.000 A 
ATOM     21  C   UNL     1       4.496   4.190  16.448  0.00  0.00    +0.000 A 
ENDBRANCH   1  16
BRANCH   1  22
ATOM     22  C   UNL     1       4.934   5.338  19.664  0.00  0.00    +0.000 C 
BRANCH  22  23
ATOM     23  C   UNL     1       6.292   4.788  19.167  0.00  0.00    +0.000 C 
BRANCH  23  24
ATOM     24  C   UNL     1       7.435   5.773  19.436  0.00  0.00    +0.000 C 
BRANCH  24  25
ATOM     25  N   UNL     1       8.216   5.362  20.596  0.00  0.00    +0.000 NA
ATOM     26  H   UNL     1       8.803   4.567  20.342  0.00  0.00    +0.000 HD
ATOM     27  H   UNL     1       7.590   5.035  21.329  0.00  0.00    +0.000 HD
ENDBRANCH  24  25
ENDBRANCH  23  24
ENDBRANCH  22  23
ENDBRANCH   1  22
TORSDOF 8
ENDMDL
MODEL 7
REMARK VINA RESULT:      -7.2      2.623      5.276
REMARK  Name = 
REMARK  9 active torsions:
REMARK  status: ('A' for Active; 'I' for Inactive)
REMARK    1  A    between atoms: C_1  and  O_2
REMARK    2  A    between atoms: O_2  and  C_3
REMARK    3  A    between atoms: C_6  and  C_7
REMARK    4  A    between atoms: C_7  and  C_8
REMARK    5  A    between atoms: C_7  and  C_12
REMARK    6  A    between atoms: C_7  and  C_18
REMARK    7  A    between atoms: C_8  and  C_9
REMARK    8  A    between atoms: C_9  and  C_10
REMARK    9  A    between atoms: C_10  and  N_11
REMARK                            x       y       z     vdW  Elec       q    Type
REMARK                         _______ _______ _______ _____ _____    ______ ____
ROOT
ATOM      1  C   UNL     1       4.327   5.745  17.609  0.00  0.00    +0.000 C 
ENDROOT
BRANCH   1   5
ATOM      2  C   UNL     1       1.636   8.869  19.154  0.00  0.00    +0.000 A 
ATOM      3  C   UNL     1       2.117   8.947  17.854  0.00  0.00    +0.000 A 
ATOM      4  C   UNL     1       2.883   7.909  17.315  0.00  0.00    +0.000 A 
ATOM      5  C   UNL     1       3.264   6.796  18.086  0.00  0.00    +0.000 A 
ATOM      6  C   UNL     1       2.687   6.699  19.370  0.00  0.00    +0.000 A 
ATOM      7  C   UNL     1       1.901   7.730  19.907  0.00  0.00    +0.000 A 
BRANCH   2   9
ATOM      8  C   UNL     1      -0.448   9.919  19.469  0.00  0.00    +0.000 C 
ATOM      9  O   UNL     1       0.967   9.975  19.594  0.00  0.00    +0.000 OA
ENDBRANCH   2   9
ENDBRANCH   1   5
BRANCH   1  10
ATOM     10  C   UNL     1       5.781   6.047  18.148  0.00  0.00    +0.000 A 
ATOM     11  C   UNL     1       6.638   7.006  17.572  0.00  0.00    +0.000 A 
ATOM     12  C   UNL     1       7.916   7.251  18.085  0.00  0.00    +0.000 A 
ATOM     13  C   UNL     1       8.391   6.512  19.162  0.00  0.00    +0.000 A 
ATOM     14  C   UNL     1       7.585   5.534  19.733  0.00  0.00    +0.000 A 
ATOM     15  C   UNL     1       6.295   5.311  19.240  0.00  0.00    +0.000 A 
ENDBRANCH   1  10
BRANCH   1  16
ATOM     16  C   UNL     1       3.843   4.317  18.076  0.00  0.00    +0.000 A 
ATOM     17  C   UNL     1       4.530   3.582  19.064  0.00  0.00    +0.000 A 
ATOM     18  C   UNL     1       4.069   2.333  19.499  0.00  0.00    +0.000 A 
ATOM     19  C   UNL     1       2.930   1.770  18.939  0.00  0.00    +0.000 A 
ATOM     20  C   UNL     1       2.253   2.452  17.935  0.00  0.00    +0.000 A 
ATOM     21  C   UNL     1       2.705   3.706  17.506  0.00  0.00    +0.000 A 
ENDBRANCH   1  16
BRANCH   1  22
ATOM     22  C   UNL     1       4.473   5.731  16.027  0.00  0.00    +0.000 C 
BRANCH  22  23
ATOM     23  C   UNL     1       5.252   4.551  15.397  0.00  0.00    +0.000 C 
BRANCH  23  24
ATOM     24  C   UNL     1       6.231   5.028  14.320  0.00  0.00    +0.000 C 
BRANCH  24  25
ATOM     25  N   UNL     1       7.574   5.178  14.866  0.00  0.00    +0.000 NA
ATOM     26  H   UNL     1       8.128   5.765  14.240  0.00  0.00    +0.000 HD
ATOM     27  H   UNL     1       8.035   4.270  14.891  0.00  0.00    +0.000 HD
ENDBRANCH  24  25
ENDBRANCH  23  24
ENDBRANCH  22  23
ENDBRANCH   1  22
TORSDOF 8
ENDMDL
MODEL 8
REMARK VINA RESULT:      -7.2      2.109      5.634
REMARK  Name = 
REMARK  9 active torsions:
REMARK  status: ('A' for Active; 'I' for Inactive)
REMARK    1  A    between atoms: C_1  and  O_2
REMARK    2  A    between atoms: O_2  and  C_3
REMARK    3  A    between atoms: C_6  and  C_7
REMARK    4  A    between atoms: C_7  and  C_8
REMARK    5  A    between atoms: C_7  and  C_12
REMARK    6  A    between atoms: C_7  and  C_18
REMARK    7  A    between atoms: C_8  and  C_9
REMARK    8  A    between atoms: C_9  and  C_10
REMARK    9  A    between atoms: C_10  and  N_11
REMARK                            x       y       z     vdW  Elec       q    Type
REMARK                         _______ _______ _______ _____ _____    ______ ____
ROOT
ATOM      1  C   UNL     1       3.686   5.408  18.539  0.00  0.00    +0.000 C 
ENDROOT
BRANCH   1   5
ATOM      2  C   UNL     1       1.558   9.243  18.926  0.00  0.00    +0.000 A 
ATOM      3  C   UNL     1       2.006   8.820  17.682  0.00  0.00    +0.000 A 
ATOM      4  C   UNL     1       2.587   7.557  17.526  0.00  0.00    +0.000 A 
ATOM      5  C   UNL     1       2.813   6.710  18.625  0.00  0.00    +0.000 A 
ATOM      6  C   UNL     1       2.265   7.125  19.858  0.00  0.00    +0.000 A 
ATOM      7  C   UNL     1       1.664   8.383  20.013  0.00  0.00    +0.000 A 
BRANCH   2   9
ATOM      8  C   UNL     1      -0.335  10.644  18.953  0.00  0.00    +0.000 C 
ATOM      9  O   UNL     1       1.081  10.523  18.967  0.00  0.00    +0.000 OA
ENDBRANCH   2   9
ENDBRANCH   1   5
BRANCH   1  10
ATOM     10  C   UNL     1       2.850   4.087  18.771  0.00  0.00    +0.000 A 
ATOM     11  C   UNL     1       3.384   2.927  19.367  0.00  0.00    +0.000 A 
ATOM     12  C   UNL     1       2.608   1.780  19.562  0.00  0.00    +0.000 A 
ATOM     13  C   UNL     1       1.289   1.744  19.126  0.00  0.00    +0.000 A 
ATOM     14  C   UNL     1       0.741   2.859  18.504  0.00  0.00    +0.000 A 
ATOM     15  C   UNL     1       1.507   4.018  18.336  0.00  0.00    +0.000 A 
ENDBRANCH   1  10
BRANCH   1  16
ATOM     16  C   UNL     1       4.389   5.385  17.127  0.00  0.00    +0.000 A 
ATOM     17  C   UNL     1       4.550   4.193  16.392  0.00  0.00    +0.000 A 
ATOM     18  C   UNL     1       5.140   4.190  15.122  0.00  0.00    +0.000 A 
ATOM     19  C   UNL     1       5.612   5.371  14.564  0.00  0.00    +0.000 A 
ATOM     20  C   UNL     1       5.504   6.557  15.279  0.00  0.00    +0.000 A 
ATOM     21  C   UNL     1       4.904   6.564  16.545  0.00  0.00    +0.000 A 
ENDBRANCH   1  16
BRANCH   1  22
ATOM     22  C   UNL     1       4.813   5.379  19.659  0.00  0.00    +0.000 C 
BRANCH  22  23
ATOM     23  C   UNL     1       6.183   4.772  19.272  0.00  0.00    +0.000 C 
BRANCH  23  24
ATOM     24  C   UNL     1       7.320   5.784  19.442  0.00  0.00    +0.000 C 
BRANCH  24  25
ATOM     25  N   UNL     1       8.203   5.398  20.535  0.00  0.00    +0.000 NA
ATOM     26  H   UNL     1       7.665   5.342  21.400  0.00  0.00    +0.000 HD
ATOM     27  H   UNL     1       8.904   6.123  20.678  0.00  0.00    +0.000 HD
ENDBRANCH  24  25
ENDBRANCH  23  24
ENDBRANCH  22  23
ENDBRANCH   1  22
TORSDOF 8
ENDMDL
MODEL 9
REMARK VINA RESULT:      -7.2      2.100      5.605
REMARK  Name = 
REMARK  9 active torsions:
REMARK  status: ('A' for Active; 'I' for Inactive)
REMARK    1  A    between atoms: C_1  and  O_2
REMARK    2  A    between atoms: O_2  and  C_3
REMARK    3  A    between atoms: C_6  and  C_7
REMARK    4  A    between atoms: C_7  and  C_8
REMARK    5  A    between atoms: C_7  and  C_12
REMARK    6  A    between atoms: C_7  and  C_18
REMARK    7  A    between atoms: C_8  and  C_9
REMARK    8  A    between atoms: C_9  and  C_10
REMARK    9  A    between atoms: C_10  and  N_11
REMARK                            x       y       z     vdW  Elec       q    Type
REMARK                         _______ _______ _______ _____ _____    ______ ____
ROOT
ATOM      1  C   UNL     1       3.661   5.519  18.584  0.00  0.00    +0.000 C 
ENDROOT
BRANCH   1   5
ATOM      2  C   UNL     1       1.635   9.416  18.892  0.00  0.00    +0.000 A 
ATOM      3  C   UNL     1       2.197   9.019  17.686  0.00  0.00    +0.000 A 
ATOM      4  C   UNL     1       2.747   7.741  17.545  0.00  0.00    +0.000 A 
ATOM      5  C   UNL     1       2.828   6.849  18.628  0.00  0.00    +0.000 A 
ATOM      6  C   UNL     1       2.169   7.243  19.812  0.00  0.00    +0.000 A 
ATOM      7  C   UNL     1       1.598   8.516  19.951  0.00  0.00    +0.000 A 
BRANCH   2   9
ATOM      8  C   UNL     1       0.557  11.098  20.139  0.00  0.00    +0.000 C 
ATOM      9  O   UNL     1       1.200  10.710  18.932  0.00  0.00    +0.000 OA
ENDBRANCH   2   9
ENDBRANCH   1   5
BRANCH   1  10
ATOM     10  C   UNL     1       2.791   4.234  18.882  0.00  0.00    +0.000 A 
ATOM     11  C   UNL     1       1.674   3.859  18.110  0.00  0.00    +0.000 A 
ATOM     12  C   UNL     1       0.934   2.708  18.401  0.00  0.00    +0.000 A 
ATOM     13  C   UNL     1       1.264   1.923  19.499  0.00  0.00    +0.000 A 
ATOM     14  C   UNL     1       2.339   2.283  20.302  0.00  0.00    +0.000 A 
ATOM     15  C   UNL     1       3.098   3.417  19.993  0.00  0.00    +0.000 A 
ENDBRANCH   1  10
BRANCH   1  16
ATOM     16  C   UNL     1       4.342   5.418  17.165  0.00  0.00    +0.000 A 
ATOM     17  C   UNL     1       4.495   4.186  16.497  0.00  0.00    +0.000 A 
ATOM     18  C   UNL     1       5.065   4.112  15.219  0.00  0.00    +0.000 A 
ATOM     19  C   UNL     1       5.526   5.260  14.588  0.00  0.00    +0.000 A 
ATOM     20  C   UNL     1       5.426   6.485  15.237  0.00  0.00    +0.000 A 
ATOM     21  C   UNL     1       4.846   6.563  16.509  0.00  0.00    +0.000 A 
ENDBRANCH   1  16
BRANCH   1  22
ATOM     22  C   UNL     1       4.803   5.502  19.689  0.00  0.00    +0.000 C 
BRANCH  22  23
ATOM     23  C   UNL     1       6.136   4.807  19.322  0.00  0.00    +0.000 C 
BRANCH  23  24
ATOM     24  C   UNL     1       7.327   5.763  19.448  0.00  0.00    +0.000 C 
BRANCH  24  25
ATOM     25  N   UNL     1       8.167   5.403  20.583  0.00  0.00    +0.000 NA
ATOM     26  H   UNL     1       7.871   4.497  20.947  0.00  0.00    +0.000 HD
ATOM     27  H   UNL     1       8.029   6.074  21.335  0.00  0.00    +0.000 HD
ENDBRANCH  24  25
ENDBRANCH  23  24
ENDBRANCH  22  23
ENDBRANCH   1  22
TORSDOF 8
ENDMDL
