MODEL 1
REMARK VINA RESULT:      -6.7      0.000      0.000
REMARK  Name = 
REMARK  5 active torsions:
REMARK  status: ('A' for Active; 'I' for Inactive)
REMARK    1  A    between atoms: C_5  and  N_6
REMARK    2  A    between atoms: C_8  and  C_9
REMARK    3  A    between atoms: C_9  and  N_10
REMARK    4  A    between atoms: N_10  and  N_11
REMARK    5  A    between atoms: C_18  and  C_19
REMARK                            x       y       z     vdW  Elec       q    Type
REMARK                         _______ _______ _______ _____ _____    ______ ____
ROOT
ATOM      1  N   UNL     1       0.427  11.318  19.775  0.00  0.00    +0.000 N 
ATOM      2  N   UNL     1       0.561  11.873  21.000  0.00  0.00    +0.000 NA
ATOM      3  C   UNL     1      -0.228  12.901  21.042  0.00  0.00    +0.000 C 
ATOM      4  C   UNL     1      -1.016  13.166  19.801  0.00  0.00    +0.000 C 
ATOM      5  C   UNL     1      -0.494  12.047  18.891  0.00  0.00    +0.000 C 
ENDROOT
BRANCH   1  10
ATOM      6 CL   UNL     1       3.120   6.264  18.177  0.00  0.00    +0.000 Cl
ATOM      7  C   UNL     1       2.349   7.722  18.662  0.00  0.00    +0.000 A 
ATOM      8  C   UNL     1       2.377   8.830  17.826  0.00  0.00    +0.000 A 
ATOM      9  C   UNL     1       1.735  10.009  18.216  0.00  0.00    +0.000 A 
ATOM     10  C   UNL     1       1.057  10.117  19.446  0.00  0.00    +0.000 A 
ATOM     11  C   UNL     1       1.047   8.968  20.273  0.00  0.00    +0.000 A 
ATOM     12 CL   UNL     1       0.144   8.871  21.754  0.00  0.00    +0.000 Cl
ATOM     13  C   UNL     1       1.687   7.783  19.882  0.00  0.00    +0.000 A 
ENDBRANCH   1  10
BRANCH   5  14
ATOM     14  C   UNL     1      -1.633  11.236  18.315  0.00  0.00    +0.000 A 
ATOM     15  C   UNL     1      -1.579  10.143  17.468  0.00  0.00    +0.000 A 
ATOM     16  C   UNL     1      -2.871   9.691  17.076  0.00  0.00    +0.000 A 
ATOM     17  C   UNL     1      -3.872  10.430  17.663  0.00  0.00    +0.000 A 
ATOM     18  S   UNL     1      -3.256  11.663  18.675  0.00  0.00    +0.000 S 
ENDBRANCH   5  14
BRANCH   3  19
ATOM     19  C   UNL     1      -0.429  13.757  22.270  0.00  0.00    +0.000 C 
BRANCH  19  20
ATOM     20  N   UNL     1      -1.535  13.222  23.072  0.00  0.00    +0.000 NA
ATOM     21  H   UNL     1      -1.146  12.918  23.969  0.00  0.00    +0.000 HD
BRANCH  20  22
ATOM     22  N   UNL     1      -2.608  14.200  23.256  0.00  0.00    +0.000 NA
ATOM     23  C   UNL     1      -3.324  13.869  24.525  0.00  0.00    +0.000 C 
ATOM     24  C   UNL     1      -4.129  12.554  24.473  0.00  0.00    +0.000 C 
ATOM     25  O   UNL     1      -5.053  12.540  23.376  0.00  0.00    +0.000 OA
ATOM     26  C   UNL     1      -4.347  12.739  22.145  0.00  0.00    +0.000 C 
ATOM     27  C   UNL     1      -3.611  14.085  22.162  0.00  0.00    +0.000 C 
ENDBRANCH  20  22
ENDBRANCH  19  20
ENDBRANCH   3  19
TORSDOF 5
ENDMDL
MODEL 2
REMARK VINA RESULT:      -6.6      2.857      4.044
REMARK  Name = 
REMARK  5 active torsions:
REMARK  status: ('A' for Active; 'I' for Inactive)
REMARK    1  A    between atoms: C_5  and  N_6
REMARK    2  A    between atoms: C_8  and  C_9
REMARK    3  A    between atoms: C_9  and  N_10
REMARK    4  A    between atoms: N_10  and  N_11
REMARK    5  A    between atoms: C_18  and  C_19
REMARK                            x       y       z     vdW  Elec       q    Type
REMARK                         _______ _______ _______ _____ _____    ______ ____
ROOT
ATOM      1  N   UNL     1      -0.493  10.563  19.222  0.00  0.00    +0.000 N 
ATOM      2  N   UNL     1      -1.670  10.416  18.575  0.00  0.00    +0.000 NA
ATOM      3  C   UNL     1      -2.325  11.525  18.716  0.00  0.00    +0.000 C 
ATOM      4  C   UNL     1      -1.636  12.590  19.505  0.00  0.00    +0.000 C 
ATOM      5  C   UNL     1      -0.346  11.860  19.898  0.00  0.00    +0.000 C 
ENDROOT
BRANCH   1  10
ATOM      6 CL   UNL     1       3.713   6.385  18.762  0.00  0.00    +0.000 Cl
ATOM      7  C   UNL     1       2.506   7.600  18.917  0.00  0.00    +0.000 A 
ATOM      8  C   UNL     1       2.130   8.345  17.808  0.00  0.00    +0.000 A 
ATOM      9  C   UNL     1       1.136   9.321  17.933  0.00  0.00    +0.000 A 
ATOM     10  C   UNL     1       0.499   9.583  19.162  0.00  0.00    +0.000 A 
ATOM     11  C   UNL     1       0.907   8.803  20.271  0.00  0.00    +0.000 A 
ATOM     12 CL   UNL     1       0.136   8.887  21.826  0.00  0.00    +0.000 Cl
ATOM     13  C   UNL     1       1.899   7.821  20.147  0.00  0.00    +0.000 A 
ENDBRANCH   1  10
BRANCH   5  14
ATOM     14  C   UNL     1       0.875  12.666  19.516  0.00  0.00    +0.000 A 
ATOM     15  C   UNL     1       1.341  12.991  18.254  0.00  0.00    +0.000 A 
ATOM     16  C   UNL     1       2.572  13.704  18.293  0.00  0.00    +0.000 A 
ATOM     17  C   UNL     1       2.992  13.933  19.583  0.00  0.00    +0.000 A 
ATOM     18  S   UNL     1       1.908  13.287  20.737  0.00  0.00    +0.000 S 
ENDBRANCH   5  14
BRANCH   3  19
ATOM     19  C   UNL     1      -3.666  11.797  18.076  0.00  0.00    +0.000 C 
BRANCH  19  20
ATOM     20  N   UNL     1      -4.566  12.419  19.054  0.00  0.00    +0.000 NA
ATOM     21  H   UNL     1      -4.120  13.284  19.374  0.00  0.00    +0.000 HD
BRANCH  20  22
ATOM     22  N   UNL     1      -5.896  12.675  18.497  0.00  0.00    +0.000 NA
ATOM     23  C   UNL     1      -6.736  13.287  19.570  0.00  0.00    +0.000 C 
ATOM     24  C   UNL     1      -7.080  12.330  20.729  0.00  0.00    +0.000 C 
ATOM     25  O   UNL     1      -7.697  11.124  20.257  0.00  0.00    +0.000 OA
ATOM     26  C   UNL     1      -6.834  10.474  19.315  0.00  0.00    +0.000 C 
ATOM     27  C   UNL     1      -6.557  11.395  18.120  0.00  0.00    +0.000 C 
ENDBRANCH  20  22
ENDBRANCH  19  20
ENDBRANCH   3  19
TORSDOF 5
ENDMDL
MODEL 3
REMARK VINA RESULT:      -6.5      1.000      1.329
REMARK  Name = 
REMARK  5 active torsions:
REMARK  status: ('A' for Active; 'I' for Inactive)
REMARK    1  A    between atoms: C_5  and  N_6
REMARK    2  A    between atoms: C_8  and  C_9
REMARK    3  A    between atoms: C_9  and  N_10
REMARK    4  A    between atoms: N_10  and  N_11
REMARK    5  A    between atoms: C_18  and  C_19
REMARK                            x       y       z     vdW  Elec       q    Type
REMARK                         _______ _______ _______ _____ _____    ______ ____
ROOT
ATOM      1  N   UNL     1       0.722  11.512  19.261  0.00  0.00    +0.000 N 
ATOM      2  N   UNL     1       1.058  12.306  20.301  0.00  0.00    +0.000 NA
ATOM      3  C   UNL     1       0.349  13.386  20.202  0.00  0.00    +0.000 C 
ATOM      4  C   UNL     1      -0.586  13.445  19.038  0.00  0.00    +0.000 C 
ATOM      5  C   UNL     1      -0.265  12.112  18.352  0.00  0.00    +0.000 C 
ENDROOT
BRANCH   1  10
ATOM      6 CL   UNL     1       2.884   6.019  18.546  0.00  0.00    +0.000 Cl
ATOM      7  C   UNL     1       2.266   7.607  18.776  0.00  0.00    +0.000 A 
ATOM      8  C   UNL     1       2.437   8.565  17.786  0.00  0.00    +0.000 A 
ATOM      9  C   UNL     1       1.918   9.851  17.969  0.00  0.00    +0.000 A 
ATOM     10  C   UNL     1       1.225  10.216  19.141  0.00  0.00    +0.000 A 
ATOM     11  C   UNL     1       1.068   9.213  20.128  0.00  0.00    +0.000 A 
ATOM     12 CL   UNL     1       0.123   9.438  21.568  0.00  0.00    +0.000 Cl
ATOM     13  C   UNL     1       1.583   7.922  19.944  0.00  0.00    +0.000 A 
ENDBRANCH   1  10
BRANCH   5  14
ATOM     14  C   UNL     1      -1.521  11.303  18.117  0.00  0.00    +0.000 A 
ATOM     15  C   UNL     1      -1.682  10.145  17.377  0.00  0.00    +0.000 A 
ATOM     16  C   UNL     1      -3.038   9.714  17.325  0.00  0.00    +0.000 A 
ATOM     17  C   UNL     1      -3.865  10.535  18.056  0.00  0.00    +0.000 A 
ATOM     18  S   UNL     1      -3.011  11.819  18.794  0.00  0.00    +0.000 S 
ENDBRANCH   5  14
BRANCH   3  19
ATOM     19  C   UNL     1       0.373  14.504  21.218  0.00  0.00    +0.000 C 
BRANCH  19  20
ATOM     20  N   UNL     1      -0.895  14.532  21.955  0.00  0.00    +0.000 NA
ATOM     21  H   UNL     1      -1.601  14.078  21.369  0.00  0.00    +0.000 HD
BRANCH  20  22
ATOM     22  N   UNL     1      -0.788  13.885  23.264  0.00  0.00    +0.000 NA
ATOM     23  C   UNL     1      -1.394  12.524  23.159  0.00  0.00    +0.000 C 
ATOM     24  C   UNL     1      -2.922  12.523  22.953  0.00  0.00    +0.000 C 
ATOM     25  O   UNL     1      -3.595  13.276  23.971  0.00  0.00    +0.000 OA
ATOM     26  C   UNL     1      -3.096  14.620  23.991  0.00  0.00    +0.000 C 
ATOM     27  C   UNL     1      -1.589  14.626  24.277  0.00  0.00    +0.000 C 
ENDBRANCH  20  22
ENDBRANCH  19  20
ENDBRANCH   3  19
TORSDOF 5
ENDMDL
MODEL 4
REMARK VINA RESULT:      -6.4      2.936      4.360
REMARK  Name = 
REMARK  5 active torsions:
REMARK  status: ('A' for Active; 'I' for Inactive)
REMARK    1  A    between atoms: C_5  and  N_6
REMARK    2  A    between atoms: C_8  and  C_9
REMARK    3  A    between atoms: C_9  and  N_10
REMARK    4  A    between atoms: N_10  and  N_11
REMARK    5  A    between atoms: C_18  and  C_19
REMARK                            x       y       z     vdW  Elec       q    Type
REMARK                         _______ _______ _______ _____ _____    ______ ____
ROOT
ATOM      1  N   UNL     1      -0.643  10.363  19.090  0.00  0.00    +0.000 N 
ATOM      2  N   UNL     1      -1.647  10.231  18.195  0.00  0.00    +0.000 NA
ATOM      3  C   UNL     1      -2.361  11.311  18.260  0.00  0.00    +0.000 C 
ATOM      4  C   UNL     1      -1.901  12.336  19.244  0.00  0.00    +0.000 C 
ATOM      5  C   UNL     1      -0.697  11.614  19.861  0.00  0.00    +0.000 C 
ENDROOT
BRANCH   1  10
ATOM      6 CL   UNL     1       3.706   6.314  19.294  0.00  0.00    +0.000 Cl
ATOM      7  C   UNL     1       2.455   7.493  19.257  0.00  0.00    +0.000 A 
ATOM      8  C   UNL     1       2.182   8.175  18.079  0.00  0.00    +0.000 A 
ATOM      9  C   UNL     1       1.153   9.121  18.048  0.00  0.00    +0.000 A 
ATOM     10  C   UNL     1       0.377   9.416  19.186  0.00  0.00    +0.000 A 
ATOM     11  C   UNL     1       0.682   8.701  20.369  0.00  0.00    +0.000 A 
ATOM     12 CL   UNL     1      -0.259   8.828  21.825  0.00  0.00    +0.000 Cl
ATOM     13  C   UNL     1       1.710   7.748  20.401  0.00  0.00    +0.000 A 
ENDBRANCH   1  10
BRANCH   5  14
ATOM     14  C   UNL     1       0.545  12.476  19.803  0.00  0.00    +0.000 A 
ATOM     15  C   UNL     1       1.577  12.573  20.719  0.00  0.00    +0.000 A 
ATOM     16  C   UNL     1       2.541  13.555  20.354  0.00  0.00    +0.000 A 
ATOM     17  C   UNL     1       2.234  14.153  19.153  0.00  0.00    +0.000 A 
ATOM     18  S   UNL     1       0.790  13.536  18.476  0.00  0.00    +0.000 S 
ENDBRANCH   5  14
BRANCH   3  19
ATOM     19  C   UNL     1      -3.543  11.591  17.362  0.00  0.00    +0.000 C 
BRANCH  19  20
ATOM     20  N   UNL     1      -4.673  12.073  18.166  0.00  0.00    +0.000 NA
ATOM     21  H   UNL     1      -4.678  13.095  18.106  0.00  0.00    +0.000 HD
BRANCH  20  22
ATOM     22  N   UNL     1      -5.947  11.502  17.725  0.00  0.00    +0.000 NA
ATOM     23  C   UNL     1      -6.949  12.609  17.655  0.00  0.00    +0.000 C 
ATOM     24  C   UNL     1      -7.345  13.193  19.026  0.00  0.00    +0.000 C 
ATOM     25  O   UNL     1      -7.809  12.174  19.923  0.00  0.00    +0.000 OA
ATOM     26  C   UNL     1      -6.796  11.172  20.084  0.00  0.00    +0.000 C 
ATOM     27  C   UNL     1      -6.459  10.532  18.730  0.00  0.00    +0.000 C 
ENDBRANCH  20  22
ENDBRANCH  19  20
ENDBRANCH   3  19
TORSDOF 5
ENDMDL
MODEL 5
REMARK VINA RESULT:      -6.4      6.180      9.852
REMARK  Name = 
REMARK  5 active torsions:
REMARK  status: ('A' for Active; 'I' for Inactive)
REMARK    1  A    between atoms: C_5  and  N_6
REMARK    2  A    between atoms: C_8  and  C_9
REMARK    3  A    between atoms: C_9  and  N_10
REMARK    4  A    between atoms: N_10  and  N_11
REMARK    5  A    between atoms: C_18  and  C_19
REMARK                            x       y       z     vdW  Elec       q    Type
REMARK                         _______ _______ _______ _____ _____    ______ ____
ROOT
ATOM      1  N   UNL     1       3.170   5.850  18.671  0.00  0.00    +0.000 N 
ATOM      2  N   UNL     1       4.463   5.730  18.297  0.00  0.00    +0.000 NA
ATOM      3  C   UNL     1       4.761   6.788  17.610  0.00  0.00    +0.000 C 
ATOM      4  C   UNL     1       3.660   7.782  17.437  0.00  0.00    +0.000 C 
ATOM      5  C   UNL     1       2.516   7.065  18.165  0.00  0.00    +0.000 C 
ENDROOT
BRANCH   1  10
ATOM      6 CL   UNL     1       0.776   1.931  22.448  0.00  0.00    +0.000 Cl
ATOM      7  C   UNL     1       1.446   3.069  21.347  0.00  0.00    +0.000 A 
ATOM      8  C   UNL     1       2.463   3.917  21.763  0.00  0.00    +0.000 A 
ATOM      9  C   UNL     1       3.017   4.830  20.861  0.00  0.00    +0.000 A 
ATOM     10  C   UNL     1       2.570   4.926  19.528  0.00  0.00    +0.000 A 
ATOM     11  C   UNL     1       1.533   4.045  19.138  0.00  0.00    +0.000 A 
ATOM     12 CL   UNL     1       0.956   3.922  17.504  0.00  0.00    +0.000 Cl
ATOM     13  C   UNL     1       0.979   3.126  20.040  0.00  0.00    +0.000 A 
ENDBRANCH   1  10
BRANCH   5  14
ATOM     14  C   UNL     1       1.889   7.961  19.211  0.00  0.00    +0.000 A 
ATOM     15  C   UNL     1       1.739   7.736  20.568  0.00  0.00    +0.000 A 
ATOM     16  C   UNL     1       1.027   8.783  21.219  0.00  0.00    +0.000 A 
ATOM     17  C   UNL     1       0.685   9.790  20.347  0.00  0.00    +0.000 A 
ATOM     18  S   UNL     1       1.217   9.472  18.753  0.00  0.00    +0.000 S 
ENDBRANCH   5  14
BRANCH   3  19
ATOM     19  C   UNL     1       6.141   7.076  17.068  0.00  0.00    +0.000 C 
BRANCH  19  20
ATOM     20  N   UNL     1       6.251   6.569  15.696  0.00  0.00    +0.000 NA
ATOM     21  H   UNL     1       6.358   7.378  15.077  0.00  0.00    +0.000 HD
BRANCH  20  22
ATOM     22  N   UNL     1       7.360   5.626  15.542  0.00  0.00    +0.000 NA
ATOM     23  C   UNL     1       7.397   5.183  14.116  0.00  0.00    +0.000 C 
ATOM     24  C   UNL     1       6.202   4.305  13.693  0.00  0.00    +0.000 C 
ATOM     25  O   UNL     1       6.051   3.166  14.552  0.00  0.00    +0.000 OA
ATOM     26  C   UNL     1       5.894   3.598  15.909  0.00  0.00    +0.000 C 
ATOM     27  C   UNL     1       7.121   4.404  16.358  0.00  0.00    +0.000 C 
ENDBRANCH  20  22
ENDBRANCH  19  20
ENDBRANCH   3  19
TORSDOF 5
ENDMDL
MODEL 6
REMARK VINA RESULT:      -6.4      1.107      1.542
REMARK  Name = 
REMARK  5 active torsions:
REMARK  status: ('A' for Active; 'I' for Inactive)
REMARK    1  A    between atoms: C_5  and  N_6
REMARK    2  A    between atoms: C_8  and  C_9
REMARK    3  A    between atoms: C_9  and  N_10
REMARK    4  A    between atoms: N_10  and  N_11
REMARK    5  A    between atoms: C_18  and  C_19
REMARK                            x       y       z     vdW  Elec       q    Type
REMARK                         _______ _______ _______ _____ _____    ______ ____
ROOT
ATOM      1  N   UNL     1       0.284  11.241  20.328  0.00  0.00    +0.000 N 
ATOM      2  N   UNL     1       0.309  11.939  21.485  0.00  0.00    +0.000 NA
ATOM      3  C   UNL     1      -0.308  13.058  21.270  0.00  0.00    +0.000 C 
ATOM      4  C   UNL     1      -0.844  13.249  19.888  0.00  0.00    +0.000 C 
ATOM      5  C   UNL     1      -0.364  11.955  19.219  0.00  0.00    +0.000 C 
ENDROOT
BRANCH   1  10
ATOM      6 CL   UNL     1       2.301   5.649  20.217  0.00  0.00    +0.000 Cl
ATOM      7  C   UNL     1       1.713   7.264  20.225  0.00  0.00    +0.000 A 
ATOM      8  C   UNL     1       0.934   7.711  21.283  0.00  0.00    +0.000 A 
ATOM      9  C   UNL     1       0.471   9.030  21.295  0.00  0.00    +0.000 A 
ATOM     10  C   UNL     1       0.766   9.933  20.254  0.00  0.00    +0.000 A 
ATOM     11  C   UNL     1       1.564   9.444  19.193  0.00  0.00    +0.000 A 
ATOM     12 CL   UNL     1       2.145  10.450  17.900  0.00  0.00    +0.000 Cl
ATOM     13  C   UNL     1       2.033   8.123  19.181  0.00  0.00    +0.000 A 
ENDBRANCH   1  10
BRANCH   5  14
ATOM     14  C   UNL     1      -1.511  11.230  18.550  0.00  0.00    +0.000 A 
ATOM     15  C   UNL     1      -1.470  10.141  17.698  0.00  0.00    +0.000 A 
ATOM     16  C   UNL     1      -2.757   9.784  17.206  0.00  0.00    +0.000 A 
ATOM     17  C   UNL     1      -3.746  10.588  17.724  0.00  0.00    +0.000 A 
ATOM     18  S   UNL     1      -3.122  11.768  18.793  0.00  0.00    +0.000 S 
ENDBRANCH   5  14
BRANCH   3  19
ATOM     19  C   UNL     1      -0.564  14.095  22.337  0.00  0.00    +0.000 C 
BRANCH  19  20
ATOM     20  N   UNL     1      -1.501  13.562  23.333  0.00  0.00    +0.000 NA
ATOM     21  H   UNL     1      -0.994  13.479  24.219  0.00  0.00    +0.000 HD
BRANCH  20  22
ATOM     22  N   UNL     1      -2.694  14.399  23.473  0.00  0.00    +0.000 NA
ATOM     23  C   UNL     1      -3.451  13.928  24.672  0.00  0.00    +0.000 C 
ATOM     24  C   UNL     1      -4.086  12.532  24.513  0.00  0.00    +0.000 C 
ATOM     25  O   UNL     1      -4.924  12.459  23.351  0.00  0.00    +0.000 OA
ATOM     26  C   UNL     1      -4.163  12.795  22.183  0.00  0.00    +0.000 C 
ATOM     27  C   UNL     1      -3.598  14.216  22.305  0.00  0.00    +0.000 C 
ENDBRANCH  20  22
ENDBRANCH  19  20
ENDBRANCH   3  19
TORSDOF 5
ENDMDL
MODEL 7
REMARK VINA RESULT:      -6.4      3.918      7.568
REMARK  Name = 
REMARK  5 active torsions:
REMARK  status: ('A' for Active; 'I' for Inactive)
REMARK    1  A    between atoms: C_5  and  N_6
REMARK    2  A    between atoms: C_8  and  C_9
REMARK    3  A    between atoms: C_9  and  N_10
REMARK    4  A    between atoms: N_10  and  N_11
REMARK    5  A    between atoms: C_18  and  C_19
REMARK                            x       y       z     vdW  Elec       q    Type
REMARK                         _______ _______ _______ _____ _____    ______ ____
ROOT
ATOM      1  N   UNL     1       0.386  10.477  19.791  0.00  0.00    +0.000 N 
ATOM      2  N   UNL     1       0.754   9.179  19.725  0.00  0.00    +0.000 NA
ATOM      3  C   UNL     1       1.642   9.081  18.786  0.00  0.00    +0.000 C 
ATOM      4  C   UNL     1       1.990  10.353  18.085  0.00  0.00    +0.000 C 
ATOM      5  C   UNL     1       1.041  11.331  18.789  0.00  0.00    +0.000 C 
ENDROOT
BRANCH   1  10
ATOM      6 CL   UNL     1      -3.337  12.614  23.905  0.00  0.00    +0.000 Cl
ATOM      7  C   UNL     1      -2.263  11.974  22.725  0.00  0.00    +0.000 A 
ATOM      8  C   UNL     1      -2.345  12.406  21.409  0.00  0.00    +0.000 A 
ATOM      9  C   UNL     1      -1.459  11.896  20.455  0.00  0.00    +0.000 A 
ATOM     10  C   UNL     1      -0.476  10.941  20.785  0.00  0.00    +0.000 A 
ATOM     11  C   UNL     1      -0.420  10.525  22.137  0.00  0.00    +0.000 A 
ATOM     12 CL   UNL     1       0.813   9.467  22.754  0.00  0.00    +0.000 Cl
ATOM     13  C   UNL     1      -1.304  11.039  23.095  0.00  0.00    +0.000 A 
ENDBRANCH   1  10
BRANCH   5  14
ATOM     14  C   UNL     1       1.795  12.525  19.332  0.00  0.00    +0.000 A 
ATOM     15  C   UNL     1       1.996  12.897  20.650  0.00  0.00    +0.000 A 
ATOM     16  C   UNL     1       2.695  14.132  20.767  0.00  0.00    +0.000 A 
ATOM     17  C   UNL     1       3.036  14.647  19.538  0.00  0.00    +0.000 A 
ATOM     18  S   UNL     1       2.512  13.648  18.252  0.00  0.00    +0.000 S 
ENDBRANCH   5  14
BRANCH   3  19
ATOM     19  C   UNL     1       2.364   7.799  18.443  0.00  0.00    +0.000 C 
BRANCH  19  20
ATOM     20  N   UNL     1       2.206   6.833  19.537  0.00  0.00    +0.000 NA
ATOM     21  H   UNL     1       1.224   6.541  19.549  0.00  0.00    +0.000 HD
BRANCH  20  22
ATOM     22  N   UNL     1       3.105   5.686  19.396  0.00  0.00    +0.000 NA
ATOM     23  C   UNL     1       2.927   5.125  18.023  0.00  0.00    +0.000 C 
ATOM     24  C   UNL     1       1.558   4.458  17.782  0.00  0.00    +0.000 C 
ATOM     25  O   UNL     1       1.281   3.446  18.760  0.00  0.00    +0.000 OA
ATOM     26  C   UNL     1       1.333   4.014  20.075  0.00  0.00    +0.000 C 
ATOM     27  C   UNL     1       2.723   4.606  20.347  0.00  0.00    +0.000 C 
ENDBRANCH  20  22
ENDBRANCH  19  20
ENDBRANCH   3  19
TORSDOF 5
ENDMDL
MODEL 8
REMARK VINA RESULT:      -6.4      4.034      7.626
REMARK  Name = 
REMARK  5 active torsions:
REMARK  status: ('A' for Active; 'I' for Inactive)
REMARK    1  A    between atoms: C_5  and  N_6
REMARK    2  A    between atoms: C_8  and  C_9
REMARK    3  A    between atoms: C_9  and  N_10
REMARK    4  A    between atoms: N_10  and  N_11
REMARK    5  A    between atoms: C_18  and  C_19
REMARK                            x       y       z     vdW  Elec       q    Type
REMARK                         _______ _______ _______ _____ _____    ______ ____
ROOT
ATOM      1  N   UNL     1       0.381  10.558  19.784  0.00  0.00    +0.000 N 
ATOM      2  N   UNL     1       0.733   9.252  19.790  0.00  0.00    +0.000 NA
ATOM      3  C   UNL     1       1.656   9.101  18.893  0.00  0.00    +0.000 C 
ATOM      4  C   UNL     1       2.050  10.336  18.151  0.00  0.00    +0.000 C 
ATOM      5  C   UNL     1       1.088  11.357  18.773  0.00  0.00    +0.000 C 
ENDROOT
BRANCH   1  10
ATOM      6 CL   UNL     1      -3.369  12.624  23.909  0.00  0.00    +0.000 Cl
ATOM      7  C   UNL     1      -2.285  12.048  22.705  0.00  0.00    +0.000 A 
ATOM      8  C   UNL     1      -1.227  11.224  23.065  0.00  0.00    +0.000 A 
ATOM      9  C   UNL     1      -0.357  10.744  22.081  0.00  0.00    +0.000 A 
ATOM     10  C   UNL     1      -0.513  11.076  20.721  0.00  0.00    +0.000 A 
ATOM     11  C   UNL     1      -1.604  11.917  20.390  0.00  0.00    +0.000 A 
ATOM     12 CL   UNL     1      -2.035  12.314  18.755  0.00  0.00    +0.000 Cl
ATOM     13  C   UNL     1      -2.479  12.396  21.374  0.00  0.00    +0.000 A 
ENDBRANCH   1  10
BRANCH   5  14
ATOM     14  C   UNL     1       1.837  12.564  19.293  0.00  0.00    +0.000 A 
ATOM     15  C   UNL     1       2.050  12.954  20.604  0.00  0.00    +0.000 A 
ATOM     16  C   UNL     1       2.739  14.196  20.699  0.00  0.00    +0.000 A 
ATOM     17  C   UNL     1       3.061  14.700  19.459  0.00  0.00    +0.000 A 
ATOM     18  S   UNL     1       2.531  13.681  18.192  0.00  0.00    +0.000 S 
ENDBRANCH   5  14
BRANCH   3  19
ATOM     19  C   UNL     1       2.372   7.796  18.637  0.00  0.00    +0.000 C 
BRANCH  19  20
ATOM     20  N   UNL     1       2.006   6.819  19.669  0.00  0.00    +0.000 NA
ATOM     21  H   UNL     1       1.049   6.511  19.474  0.00  0.00    +0.000 HD
BRANCH  20  22
ATOM     22  N   UNL     1       2.935   5.688  19.713  0.00  0.00    +0.000 NA
ATOM     23  C   UNL     1       2.926   5.029  18.373  0.00  0.00    +0.000 C 
ATOM     24  C   UNL     1       1.604   4.313  18.027  0.00  0.00    +0.000 C 
ATOM     25  O   UNL     1       1.235   3.364  19.037  0.00  0.00    +0.000 OA
ATOM     26  C   UNL     1       1.126   4.023  20.306  0.00  0.00    +0.000 C 
ATOM     27  C   UNL     1       2.465   4.667  20.689  0.00  0.00    +0.000 C 
ENDBRANCH  20  22
ENDBRANCH  19  20
ENDBRANCH   3  19
TORSDOF 5
ENDMDL
MODEL 9
REMARK VINA RESULT:      -6.4      2.678      3.895
REMARK  Name = 
REMARK  5 active torsions:
REMARK  status: ('A' for Active; 'I' for Inactive)
REMARK    1  A    between atoms: C_5  and  N_6
REMARK    2  A    between atoms: C_8  and  C_9
REMARK    3  A    between atoms: C_9  and  N_10
REMARK    4  A    between atoms: N_10  and  N_11
REMARK    5  A    between atoms: C_18  and  C_19
REMARK                            x       y       z     vdW  Elec       q    Type
REMARK                         _______ _______ _______ _____ _____    ______ ____
ROOT
ATOM      1  N   UNL     1      -0.629  10.598  19.244  0.00  0.00    +0.000 N 
ATOM      2  N   UNL     1      -1.796  10.430  18.583  0.00  0.00    +0.000 NA
ATOM      3  C   UNL     1      -2.464  11.534  18.702  0.00  0.00    +0.000 C 
ATOM      4  C   UNL     1      -1.798  12.616  19.488  0.00  0.00    +0.000 C 
ATOM      5  C   UNL     1      -0.505  11.904  19.907  0.00  0.00    +0.000 C 
ENDROOT
BRANCH   1  10
ATOM      6 CL   UNL     1       3.628   6.462  18.891  0.00  0.00    +0.000 Cl
ATOM      7  C   UNL     1       2.406   7.665  19.014  0.00  0.00    +0.000 A 
ATOM      8  C   UNL     1       2.038   8.394  17.892  0.00  0.00    +0.000 A 
ATOM      9  C   UNL     1       1.032   9.361  17.993  0.00  0.00    +0.000 A 
ATOM     10  C   UNL     1       0.374   9.628  19.209  0.00  0.00    +0.000 A 
ATOM     11  C   UNL     1       0.773   8.864  20.332  0.00  0.00    +0.000 A 
ATOM     12 CL   UNL     1      -0.022   8.956  21.875  0.00  0.00    +0.000 Cl
ATOM     13  C   UNL     1       1.778   7.892  20.233  0.00  0.00    +0.000 A 
ENDBRANCH   1  10
BRANCH   5  14
ATOM     14  C   UNL     1       0.712  12.719  19.532  0.00  0.00    +0.000 A 
ATOM     15  C   UNL     1       1.097  13.181  18.286  0.00  0.00    +0.000 A 
ATOM     16  C   UNL     1       2.352  13.853  18.315  0.00  0.00    +0.000 A 
ATOM     17  C   UNL     1       2.870  13.915  19.589  0.00  0.00    +0.000 A 
ATOM     18  S   UNL     1       1.850  13.162  20.737  0.00  0.00    +0.000 S 
ENDBRANCH   5  14
BRANCH   3  19
ATOM     19  C   UNL     1      -3.799  11.784  18.040  0.00  0.00    +0.000 C 
BRANCH  19  20
ATOM     20  N   UNL     1      -4.620  12.653  18.892  0.00  0.00    +0.000 NA
ATOM     21  H   UNL     1      -5.197  13.231  18.274  0.00  0.00    +0.000 HD
BRANCH  20  22
ATOM     22  N   UNL     1      -5.441  11.889  19.833  0.00  0.00    +0.000 NA
ATOM     23  C   UNL     1      -6.842  11.871  19.316  0.00  0.00    +0.000 C 
ATOM     24  C   UNL     1      -7.549  13.241  19.352  0.00  0.00    +0.000 C 
ATOM     25  O   UNL     1      -7.523  13.817  20.665  0.00  0.00    +0.000 OA
ATOM     26  C   UNL     1      -6.167  13.945  21.113  0.00  0.00    +0.000 C 
ATOM     27  C   UNL     1      -5.487  12.570  21.156  0.00  0.00    +0.000 C 
ENDBRANCH  20  22
ENDBRANCH  19  20
ENDBRANCH   3  19
TORSDOF 5
ENDMDL
