MODEL 1
REMARK VINA RESULT:      -8.7      0.000      0.000
REMARK  Name = 
REMARK  7 active torsions:
REMARK  status: ('A' for Active; 'I' for Inactive)
REMARK    1  A    between atoms: C_1  and  C_2
REMARK    2  A    between atoms: C_2  and  C_3
REMARK    3  A    between atoms: C_3  and  N_4
REMARK    4  A    between atoms: N_4  and  C_5
REMARK    5  A    between atoms: C_7  and  C_8
REMARK    6  A    between atoms: N_19  and  C_20
REMARK    7  A    between atoms: C_20  and  C_21
REMARK                            x       y       z     vdW  Elec       q    Type
REMARK                         _______ _______ _______ _____ _____    ______ ____
ROOT
ATOM      1  C   UNL     1       7.439   6.236  17.634  0.00  0.00    +0.000 A 
ATOM      2  N   UNL     1       7.440   5.941  16.306  0.00  0.00    +0.000 NA
ATOM      3  C   UNL     1       6.632   4.969  15.820  0.00  0.00    +0.000 A 
ATOM      4  N   UNL     1       5.772   4.209  16.528  0.00  0.00    +0.000 NA
ATOM      5  C   UNL     1       5.819   4.508  17.836  0.00  0.00    +0.000 A 
ATOM      6  C   UNL     1       6.595   5.469  18.456  0.00  0.00    +0.000 A 
ATOM      7  N   UNL     1       6.361   5.435  19.808  0.00  0.00    +0.000 NA
ATOM      8  N   UNL     1       5.502   4.446  20.055  0.00  0.00    +0.000 NA
ATOM      9  N   UNL     1       5.171   3.887  18.865  0.00  0.00    +0.000 N 
ENDROOT
BRANCH   3  10
ATOM     10  C   UNL     1       6.750   4.670  14.387  0.00  0.00    +0.000 A 
ATOM     11  C   UNL     1       5.929   3.699  13.786  0.00  0.00    +0.000 A 
ATOM     12  C   UNL     1       6.005   3.433  12.418  0.00  0.00    +0.000 A 
ATOM     13  C   UNL     1       6.918   4.123  11.627  0.00  0.00    +0.000 A 
ATOM     14  C   UNL     1       7.751   5.084  12.201  0.00  0.00    +0.000 A 
ATOM     15  C   UNL     1       7.662   5.358  13.568  0.00  0.00    +0.000 A 
ENDBRANCH   3  10
BRANCH   1  16
ATOM     16  N   UNL     1       8.291   7.238  18.122  0.00  0.00    +0.000 N 
ATOM     17  H   UNL     1       8.521   7.081  19.099  0.00  0.00    +0.000 HD
BRANCH  16  18
ATOM     18  C   UNL     1       7.866   8.592  17.781  0.00  0.00    +0.000 C 
BRANCH  18  20
ATOM     19  C   UNL     1       8.689  10.965  17.842  0.00  0.00    +0.000 C 
ATOM     20  C   UNL     1       8.692   9.618  18.551  0.00  0.00    +0.000 C 
ENDBRANCH  18  20
ENDBRANCH  16  18
ENDBRANCH   1  16
BRANCH   9  21
ATOM     21  C   UNL     1       4.507   2.601  18.800  0.00  0.00    +0.000 C 
BRANCH  21  22
ATOM     22  C   UNL     1       3.070   2.627  19.253  0.00  0.00    +0.000 A 
ATOM     23  C   UNL     1       2.746   2.732  20.614  0.00  0.00    +0.000 A 
ATOM     24  C   UNL     1       1.417   2.895  21.015  0.00  0.00    +0.000 A 
ATOM     25  C   UNL     1       0.400   2.941  20.062  0.00  0.00    +0.000 A 
ATOM     26  C   UNL     1       0.707   2.796  18.711  0.00  0.00    +0.000 A 
ATOM     27  C   UNL     1       2.033   2.631  18.308  0.00  0.00    +0.000 A 
ENDBRANCH  21  22
ENDBRANCH   9  21
TORSDOF 6
ENDMDL
MODEL 2
REMARK VINA RESULT:      -8.5      0.375      1.413
REMARK  Name = 
REMARK  7 active torsions:
REMARK  status: ('A' for Active; 'I' for Inactive)
REMARK    1  A    between atoms: C_1  and  C_2
REMARK    2  A    between atoms: C_2  and  C_3
REMARK    3  A    between atoms: C_3  and  N_4
REMARK    4  A    between atoms: N_4  and  C_5
REMARK    5  A    between atoms: C_7  and  C_8
REMARK    6  A    between atoms: N_19  and  C_20
REMARK    7  A    between atoms: C_20  and  C_21
REMARK                            x       y       z     vdW  Elec       q    Type
REMARK                         _______ _______ _______ _____ _____    ______ ____
ROOT
ATOM      1  C   UNL     1       7.410   6.365  17.337  0.00  0.00    +0.000 A 
ATOM      2  N   UNL     1       7.339   5.991  16.031  0.00  0.00    +0.000 NA
ATOM      3  C   UNL     1       6.521   4.981  15.653  0.00  0.00    +0.000 A 
ATOM      4  N   UNL     1       5.716   4.253  16.454  0.00  0.00    +0.000 NA
ATOM      5  C   UNL     1       5.834   4.631  17.736  0.00  0.00    +0.000 A 
ATOM      6  C   UNL     1       6.628   5.638  18.252  0.00  0.00    +0.000 A 
ATOM      7  N   UNL     1       6.473   5.682  19.615  0.00  0.00    +0.000 NA
ATOM      8  N   UNL     1       5.647   4.698  19.970  0.00  0.00    +0.000 NA
ATOM      9  N   UNL     1       5.258   4.063  18.837  0.00  0.00    +0.000 N 
ENDROOT
BRANCH   3  10
ATOM     10  C   UNL     1       6.561   4.598  14.235  0.00  0.00    +0.000 A 
ATOM     11  C   UNL     1       7.525   5.147  13.370  0.00  0.00    +0.000 A 
ATOM     12  C   UNL     1       7.598   4.760  12.030  0.00  0.00    +0.000 A 
ATOM     13  C   UNL     1       6.695   3.830  11.527  0.00  0.00    +0.000 A 
ATOM     14  C   UNL     1       5.723   3.279  12.362  0.00  0.00    +0.000 A 
ATOM     15  C   UNL     1       5.662   3.656  13.705  0.00  0.00    +0.000 A 
ENDBRANCH   3  10
BRANCH   1  16
ATOM     16  N   UNL     1       8.271   7.407  17.714  0.00  0.00    +0.000 N 
ATOM     17  H   UNL     1       8.873   7.126  18.484  0.00  0.00    +0.000 HD
BRANCH  16  18
ATOM     18  C   UNL     1       7.606   8.696  17.868  0.00  0.00    +0.000 C 
BRANCH  18  20
ATOM     19  C   UNL     1       9.221  10.021  19.264  0.00  0.00    +0.000 C 
ATOM     20  C   UNL     1       8.633   9.826  17.874  0.00  0.00    +0.000 C 
ENDBRANCH  18  20
ENDBRANCH  16  18
ENDBRANCH   1  16
BRANCH   9  21
ATOM     21  C   UNL     1       4.612   2.768  18.887  0.00  0.00    +0.000 C 
BRANCH  21  22
ATOM     22  C   UNL     1       3.156   2.819  19.267  0.00  0.00    +0.000 A 
ATOM     23  C   UNL     1       2.153   2.635  18.302  0.00  0.00    +0.000 A 
ATOM     24  C   UNL     1       0.812   2.545  18.684  0.00  0.00    +0.000 A 
ATOM     25  C   UNL     1       0.459   2.650  20.029  0.00  0.00    +0.000 A 
ATOM     26  C   UNL     1       1.443   2.873  20.990  0.00  0.00    +0.000 A 
ATOM     27  C   UNL     1       2.783   2.966  20.611  0.00  0.00    +0.000 A 
ENDBRANCH  21  22
ENDBRANCH   9  21
TORSDOF 6
ENDMDL
MODEL 3
REMARK VINA RESULT:      -8.2      5.208      6.917
REMARK  Name = 
REMARK  7 active torsions:
REMARK  status: ('A' for Active; 'I' for Inactive)
REMARK    1  A    between atoms: C_1  and  C_2
REMARK    2  A    between atoms: C_2  and  C_3
REMARK    3  A    between atoms: C_3  and  N_4
REMARK    4  A    between atoms: N_4  and  C_5
REMARK    5  A    between atoms: C_7  and  C_8
REMARK    6  A    between atoms: N_19  and  C_20
REMARK    7  A    between atoms: C_20  and  C_21
REMARK                            x       y       z     vdW  Elec       q    Type
REMARK                         _______ _______ _______ _____ _____    ______ ____
ROOT
ATOM      1  C   UNL     1       2.548   5.767  20.307  0.00  0.00    +0.000 A 
ATOM      2  N   UNL     1       3.327   5.372  19.264  0.00  0.00    +0.000 NA
ATOM      3  C   UNL     1       3.541   6.203  18.217  0.00  0.00    +0.000 A 
ATOM      4  N   UNL     1       3.051   7.451  18.066  0.00  0.00    +0.000 NA
ATOM      5  C   UNL     1       2.266   7.795  19.099  0.00  0.00    +0.000 A 
ATOM      6  C   UNL     1       1.966   7.044  20.221  0.00  0.00    +0.000 A 
ATOM      7  N   UNL     1       1.108   7.753  21.022  0.00  0.00    +0.000 NA
ATOM      8  N   UNL     1       0.822   8.902  20.409  0.00  0.00    +0.000 NA
ATOM      9  N   UNL     1       1.521   8.930  19.249  0.00  0.00    +0.000 N 
ENDROOT
BRANCH   3  10
ATOM     10  C   UNL     1       4.335   5.668  17.104  0.00  0.00    +0.000 A 
ATOM     11  C   UNL     1       4.510   4.281  16.947  0.00  0.00    +0.000 A 
ATOM     12  C   UNL     1       5.231   3.760  15.871  0.00  0.00    +0.000 A 
ATOM     13  C   UNL     1       5.805   4.619  14.940  0.00  0.00    +0.000 A 
ATOM     14  C   UNL     1       5.654   5.998  15.078  0.00  0.00    +0.000 A 
ATOM     15  C   UNL     1       4.921   6.517  16.148  0.00  0.00    +0.000 A 
ENDBRANCH   3  10
BRANCH   1  16
ATOM     16  N   UNL     1       2.327   4.889  21.379  0.00  0.00    +0.000 N 
ATOM     17  H   UNL     1       3.005   5.039  22.122  0.00  0.00    +0.000 HD
BRANCH  16  18
ATOM     18  C   UNL     1       2.128   3.501  20.974  0.00  0.00    +0.000 C 
BRANCH  18  20
ATOM     19  C   UNL     1       0.959   2.551  18.963  0.00  0.00    +0.000 C 
ATOM     20  C   UNL     1       0.792   3.347  20.250  0.00  0.00    +0.000 C 
ENDBRANCH  18  20
ENDBRANCH  16  18
ENDBRANCH   1  16
BRANCH   9  21
ATOM     21  C   UNL     1       1.206   9.885  18.206  0.00  0.00    +0.000 C 
BRANCH  21  22
ATOM     22  C   UNL     1      -0.213  10.390  18.241  0.00  0.00    +0.000 A 
ATOM     23  C   UNL     1      -0.533  11.588  18.897  0.00  0.00    +0.000 A 
ATOM     24  C   UNL     1      -1.823  12.121  18.808  0.00  0.00    +0.000 A 
ATOM     25  C   UNL     1      -2.804  11.457  18.073  0.00  0.00    +0.000 A 
ATOM     26  C   UNL     1      -2.506  10.246  17.451  0.00  0.00    +0.000 A 
ATOM     27  C   UNL     1      -1.220   9.710  17.541  0.00  0.00    +0.000 A 
ENDBRANCH  21  22
ENDBRANCH   9  21
TORSDOF 6
ENDMDL
MODEL 4
REMARK VINA RESULT:      -8.2      3.201      5.013
REMARK  Name = 
REMARK  7 active torsions:
REMARK  status: ('A' for Active; 'I' for Inactive)
REMARK    1  A    between atoms: C_1  and  C_2
REMARK    2  A    between atoms: C_2  and  C_3
REMARK    3  A    between atoms: C_3  and  N_4
REMARK    4  A    between atoms: N_4  and  C_5
REMARK    5  A    between atoms: C_7  and  C_8
REMARK    6  A    between atoms: N_19  and  C_20
REMARK    7  A    between atoms: C_20  and  C_21
REMARK                            x       y       z     vdW  Elec       q    Type
REMARK                         _______ _______ _______ _____ _____    ______ ____
ROOT
ATOM      1  C   UNL     1       5.591   6.807  17.155  0.00  0.00    +0.000 A 
ATOM      2  N   UNL     1       4.607   7.591  17.673  0.00  0.00    +0.000 NA
ATOM      3  C   UNL     1       3.481   7.033  18.176  0.00  0.00    +0.000 A 
ATOM      4  N   UNL     1       3.192   5.716  18.234  0.00  0.00    +0.000 NA
ATOM      5  C   UNL     1       4.170   4.977  17.689  0.00  0.00    +0.000 A 
ATOM      6  C   UNL     1       5.361   5.420  17.143  0.00  0.00    +0.000 A 
ATOM      7  N   UNL     1       6.070   4.343  16.674  0.00  0.00    +0.000 NA
ATOM      8  N   UNL     1       5.335   3.248  16.864  0.00  0.00    +0.000 NA
ATOM      9  N   UNL     1       4.188   3.628  17.479  0.00  0.00    +0.000 N 
ENDROOT
BRANCH   3  10
ATOM     10  C   UNL     1       2.443   7.957  18.649  0.00  0.00    +0.000 A 
ATOM     11  C   UNL     1       1.874   8.905  17.778  0.00  0.00    +0.000 A 
ATOM     12  C   UNL     1       0.859   9.762  18.206  0.00  0.00    +0.000 A 
ATOM     13  C   UNL     1       0.405   9.699  19.519  0.00  0.00    +0.000 A 
ATOM     14  C   UNL     1       0.960   8.775  20.405  0.00  0.00    +0.000 A 
ATOM     15  C   UNL     1       1.966   7.909  19.970  0.00  0.00    +0.000 A 
ENDBRANCH   3  10
BRANCH   1  16
ATOM     16  N   UNL     1       6.747   7.403  16.627  0.00  0.00    +0.000 N 
ATOM     17  H   UNL     1       7.075   6.902  15.806  0.00  0.00    +0.000 HD
BRANCH  16  18
ATOM     18  C   UNL     1       7.761   7.712  17.629  0.00  0.00    +0.000 C 
BRANCH  18  20
ATOM     19  C   UNL     1       8.913   9.574  18.863  0.00  0.00    +0.000 C 
ATOM     20  C   UNL     1       7.987   9.220  17.708  0.00  0.00    +0.000 C 
ENDBRANCH  18  20
ENDBRANCH  16  18
ENDBRANCH   1  16
BRANCH   9  21
ATOM     21  C   UNL     1       3.045   2.741  17.550  0.00  0.00    +0.000 C 
BRANCH  21  22
ATOM     22  C   UNL     1       2.407   2.665  18.912  0.00  0.00    +0.000 A 
ATOM     23  C   UNL     1       3.180   2.417  20.056  0.00  0.00    +0.000 A 
ATOM     24  C   UNL     1       2.605   2.487  21.328  0.00  0.00    +0.000 A 
ATOM     25  C   UNL     1       1.252   2.792  21.468  0.00  0.00    +0.000 A 
ATOM     26  C   UNL     1       0.467   3.000  20.336  0.00  0.00    +0.000 A 
ATOM     27  C   UNL     1       1.038   2.929  19.064  0.00  0.00    +0.000 A 
ENDBRANCH  21  22
ENDBRANCH   9  21
TORSDOF 6
ENDMDL
MODEL 5
REMARK VINA RESULT:      -8.0      5.063      6.832
REMARK  Name = 
REMARK  7 active torsions:
REMARK  status: ('A' for Active; 'I' for Inactive)
REMARK    1  A    between atoms: C_1  and  C_2
REMARK    2  A    between atoms: C_2  and  C_3
REMARK    3  A    between atoms: C_3  and  N_4
REMARK    4  A    between atoms: N_4  and  C_5
REMARK    5  A    between atoms: C_7  and  C_8
REMARK    6  A    between atoms: N_19  and  C_20
REMARK    7  A    between atoms: C_20  and  C_21
REMARK                            x       y       z     vdW  Elec       q    Type
REMARK                         _______ _______ _______ _____ _____    ______ ____
ROOT
ATOM      1  C   UNL     1       2.732   5.508  20.112  0.00  0.00    +0.000 A 
ATOM      2  N   UNL     1       3.514   5.121  19.069  0.00  0.00    +0.000 NA
ATOM      3  C   UNL     1       3.750   5.968  18.040  0.00  0.00    +0.000 A 
ATOM      4  N   UNL     1       3.281   7.225  17.907  0.00  0.00    +0.000 NA
ATOM      5  C   UNL     1       2.492   7.562  18.939  0.00  0.00    +0.000 A 
ATOM      6  C   UNL     1       2.171   6.795  20.044  0.00  0.00    +0.000 A 
ATOM      7  N   UNL     1       1.316   7.503  20.852  0.00  0.00    +0.000 NA
ATOM      8  N   UNL     1       1.053   8.667  20.258  0.00  0.00    +0.000 NA
ATOM      9  N   UNL     1       1.764   8.706  19.104  0.00  0.00    +0.000 N 
ENDROOT
BRANCH   3  10
ATOM     10  C   UNL     1       4.547   5.441  16.923  0.00  0.00    +0.000 A 
ATOM     11  C   UNL     1       5.109   6.310  15.969  0.00  0.00    +0.000 A 
ATOM     12  C   UNL     1       5.900   5.824  14.927  0.00  0.00    +0.000 A 
ATOM     13  C   UNL     1       6.130   4.458  14.809  0.00  0.00    +0.000 A 
ATOM     14  C   UNL     1       5.576   3.575  15.736  0.00  0.00    +0.000 A 
ATOM     15  C   UNL     1       4.797   4.065  16.787  0.00  0.00    +0.000 A 
ENDBRANCH   3  10
BRANCH   1  16
ATOM     16  N   UNL     1       2.488   4.614  21.165  0.00  0.00    +0.000 N 
ATOM     17  H   UNL     1       3.333   4.109  21.421  0.00  0.00    +0.000 HD
BRANCH  16  18
ATOM     18  C   UNL     1       1.293   3.798  20.982  0.00  0.00    +0.000 C 
BRANCH  18  20
ATOM     19  C   UNL     1       0.931   2.480  18.873  0.00  0.00    +0.000 C 
ATOM     20  C   UNL     1       1.635   2.518  20.223  0.00  0.00    +0.000 C 
ENDBRANCH  18  20
ENDBRANCH  16  18
ENDBRANCH   1  16
BRANCH   9  21
ATOM     21  C   UNL     1       1.473   9.684  18.076  0.00  0.00    +0.000 C 
BRANCH  21  22
ATOM     22  C   UNL     1       0.116  10.327  18.203  0.00  0.00    +0.000 A 
ATOM     23  C   UNL     1      -0.034  11.572  18.832  0.00  0.00    +0.000 A 
ATOM     24  C   UNL     1      -1.270  12.225  18.823  0.00  0.00    +0.000 A 
ATOM     25  C   UNL     1      -2.368  11.635  18.198  0.00  0.00    +0.000 A 
ATOM     26  C   UNL     1      -2.239  10.380  17.606  0.00  0.00    +0.000 A 
ATOM     27  C   UNL     1      -1.006   9.725  17.616  0.00  0.00    +0.000 A 
ENDBRANCH  21  22
ENDBRANCH   9  21
TORSDOF 6
ENDMDL
MODEL 6
REMARK VINA RESULT:      -8.0      3.493      7.513
REMARK  Name = 
REMARK  7 active torsions:
REMARK  status: ('A' for Active; 'I' for Inactive)
REMARK    1  A    between atoms: C_1  and  C_2
REMARK    2  A    between atoms: C_2  and  C_3
REMARK    3  A    between atoms: C_3  and  N_4
REMARK    4  A    between atoms: N_4  and  C_5
REMARK    5  A    between atoms: C_7  and  C_8
REMARK    6  A    between atoms: N_19  and  C_20
REMARK    7  A    between atoms: C_20  and  C_21
REMARK                            x       y       z     vdW  Elec       q    Type
REMARK                         _______ _______ _______ _____ _____    ______ ____
ROOT
ATOM      1  C   UNL     1       2.718   4.654  20.606  0.00  0.00    +0.000 A 
ATOM      2  N   UNL     1       2.130   5.860  20.386  0.00  0.00    +0.000 NA
ATOM      3  C   UNL     1       2.585   6.673  19.404  0.00  0.00    +0.000 A 
ATOM      4  N   UNL     1       3.610   6.425  18.563  0.00  0.00    +0.000 NA
ATOM      5  C   UNL     1       4.182   5.240  18.828  0.00  0.00    +0.000 A 
ATOM      6  C   UNL     1       3.818   4.323  19.797  0.00  0.00    +0.000 A 
ATOM      7  N   UNL     1       4.677   3.254  19.751  0.00  0.00    +0.000 NA
ATOM      8  N   UNL     1       5.597   3.501  18.818  0.00  0.00    +0.000 NA
ATOM      9  N   UNL     1       5.299   4.699  18.258  0.00  0.00    +0.000 N 
ENDROOT
BRANCH   3  10
ATOM     10  C   UNL     1       1.937   7.986  19.283  0.00  0.00    +0.000 A 
ATOM     11  C   UNL     1       1.930   8.673  18.055  0.00  0.00    +0.000 A 
ATOM     12  C   UNL     1       1.284   9.903  17.919  0.00  0.00    +0.000 A 
ATOM     13  C   UNL     1       0.647  10.477  19.014  0.00  0.00    +0.000 A 
ATOM     14  C   UNL     1       0.649   9.821  20.244  0.00  0.00    +0.000 A 
ATOM     15  C   UNL     1       1.283   8.584  20.375  0.00  0.00    +0.000 A 
ENDBRANCH   3  10
BRANCH   1  16
ATOM     16  N   UNL     1       2.240   3.828  21.636  0.00  0.00    +0.000 N 
ATOM     17  H   UNL     1       2.975   3.614  22.305  0.00  0.00    +0.000 HD
BRANCH  16  18
ATOM     18  C   UNL     1       1.459   2.689  21.165  0.00  0.00    +0.000 C 
BRANCH  18  20
ATOM     19  C   UNL     1       0.929   2.215  18.755  0.00  0.00    +0.000 C 
ATOM     20  C   UNL     1       0.611   3.089  19.959  0.00  0.00    +0.000 C 
ENDBRANCH  18  20
ENDBRANCH  16  18
ENDBRANCH   1  16
BRANCH   9  21
ATOM     21  C   UNL     1       6.262   5.403  17.437  0.00  0.00    +0.000 C 
BRANCH  21  22
ATOM     22  C   UNL     1       6.336   4.910  16.015  0.00  0.00    +0.000 A 
ATOM     23  C   UNL     1       5.256   4.232  15.431  0.00  0.00    +0.000 A 
ATOM     24  C   UNL     1       5.278   3.901  14.073  0.00  0.00    +0.000 A 
ATOM     25  C   UNL     1       6.383   4.234  13.291  0.00  0.00    +0.000 A 
ATOM     26  C   UNL     1       7.478   4.871  13.870  0.00  0.00    +0.000 A 
ATOM     27  C   UNL     1       7.460   5.200  15.227  0.00  0.00    +0.000 A 
ENDBRANCH  21  22
ENDBRANCH   9  21
TORSDOF 6
ENDMDL
MODEL 7
REMARK VINA RESULT:      -8.0      0.994      1.557
REMARK  Name = 
REMARK  7 active torsions:
REMARK  status: ('A' for Active; 'I' for Inactive)
REMARK    1  A    between atoms: C_1  and  C_2
REMARK    2  A    between atoms: C_2  and  C_3
REMARK    3  A    between atoms: C_3  and  N_4
REMARK    4  A    between atoms: N_4  and  C_5
REMARK    5  A    between atoms: C_7  and  C_8
REMARK    6  A    between atoms: N_19  and  C_20
REMARK    7  A    between atoms: C_20  and  C_21
REMARK                            x       y       z     vdW  Elec       q    Type
REMARK                         _______ _______ _______ _____ _____    ______ ____
ROOT
ATOM      1  C   UNL     1       7.014   6.311  17.190  0.00  0.00    +0.000 A 
ATOM      2  N   UNL     1       7.149   5.867  15.911  0.00  0.00    +0.000 NA
ATOM      3  C   UNL     1       6.163   5.142  15.332  0.00  0.00    +0.000 A 
ATOM      4  N   UNL     1       4.992   4.780  15.895  0.00  0.00    +0.000 NA
ATOM      5  C   UNL     1       4.907   5.211  17.163  0.00  0.00    +0.000 A 
ATOM      6  C   UNL     1       5.837   5.953  17.868  0.00  0.00    +0.000 A 
ATOM      7  N   UNL     1       5.374   6.162  19.143  0.00  0.00    +0.000 NA
ATOM      8  N   UNL     1       4.208   5.528  19.270  0.00  0.00    +0.000 NA
ATOM      9  N   UNL     1       3.923   4.955  18.075  0.00  0.00    +0.000 N 
ENDROOT
BRANCH   3  10
ATOM     10  C   UNL     1       6.423   4.644  13.975  0.00  0.00    +0.000 A 
ATOM     11  C   UNL     1       7.476   5.171  13.205  0.00  0.00    +0.000 A 
ATOM     12  C   UNL     1       7.756   4.679  11.929  0.00  0.00    +0.000 A 
ATOM     13  C   UNL     1       6.977   3.660  11.392  0.00  0.00    +0.000 A 
ATOM     14  C   UNL     1       5.921   3.127  12.131  0.00  0.00    +0.000 A 
ATOM     15  C   UNL     1       5.651   3.611  13.413  0.00  0.00    +0.000 A 
ENDBRANCH   3  10
BRANCH   1  16
ATOM     16  N   UNL     1       8.050   7.052  17.778  0.00  0.00    +0.000 N 
ATOM     17  H   UNL     1       8.273   6.700  18.705  0.00  0.00    +0.000 HD
BRANCH  16  18
ATOM     18  C   UNL     1       7.875   8.497  17.674  0.00  0.00    +0.000 C 
BRANCH  18  20
ATOM     19  C   UNL     1       9.081  10.627  18.239  0.00  0.00    +0.000 C 
ATOM     20  C   UNL     1       8.753   9.213  18.697  0.00  0.00    +0.000 C 
ENDBRANCH  18  20
ENDBRANCH  16  18
ENDBRANCH   1  16
BRANCH   9  21
ATOM     21  C   UNL     1       2.895   3.942  17.955  0.00  0.00    +0.000 C 
BRANCH  21  22
ATOM     22  C   UNL     1       2.454   3.352  19.270  0.00  0.00    +0.000 A 
ATOM     23  C   UNL     1       3.368   2.693  20.105  0.00  0.00    +0.000 A 
ATOM     24  C   UNL     1       2.984   2.273  21.382  0.00  0.00    +0.000 A 
ATOM     25  C   UNL     1       1.682   2.495  21.829  0.00  0.00    +0.000 A 
ATOM     26  C   UNL     1       0.756   3.113  20.991  0.00  0.00    +0.000 A 
ATOM     27  C   UNL     1       1.136   3.531  19.715  0.00  0.00    +0.000 A 
ENDBRANCH  21  22
ENDBRANCH   9  21
TORSDOF 6
ENDMDL
MODEL 8
REMARK VINA RESULT:      -8.0      1.542      6.457
REMARK  Name = 
REMARK  7 active torsions:
REMARK  status: ('A' for Active; 'I' for Inactive)
REMARK    1  A    between atoms: C_1  and  C_2
REMARK    2  A    between atoms: C_2  and  C_3
REMARK    3  A    between atoms: C_3  and  N_4
REMARK    4  A    between atoms: N_4  and  C_5
REMARK    5  A    between atoms: C_7  and  C_8
REMARK    6  A    between atoms: N_19  and  C_20
REMARK    7  A    between atoms: C_20  and  C_21
REMARK                            x       y       z     vdW  Elec       q    Type
REMARK                         _______ _______ _______ _____ _____    ______ ____
ROOT
ATOM      1  C   UNL     1       6.525   5.782  17.613  0.00  0.00    +0.000 A 
ATOM      2  N   UNL     1       5.392   5.351  18.230  0.00  0.00    +0.000 NA
ATOM      3  C   UNL     1       4.479   4.620  17.548  0.00  0.00    +0.000 A 
ATOM      4  N   UNL     1       4.554   4.239  16.256  0.00  0.00    +0.000 NA
ATOM      5  C   UNL     1       5.669   4.706  15.674  0.00  0.00    +0.000 A 
ATOM      6  C   UNL     1       6.673   5.460  16.253  0.00  0.00    +0.000 A 
ATOM      7  N   UNL     1       7.623   5.750  15.306  0.00  0.00    +0.000 NA
ATOM      8  N   UNL     1       7.216   5.244  14.142  0.00  0.00    +0.000 NA
ATOM      9  N   UNL     1       6.037   4.612  14.362  0.00  0.00    +0.000 N 
ENDROOT
BRANCH   3  10
ATOM     10  C   UNL     1       3.253   4.257  18.271  0.00  0.00    +0.000 A 
ATOM     11  C   UNL     1       2.467   3.167  17.852  0.00  0.00    +0.000 A 
ATOM     12  C   UNL     1       1.322   2.790  18.555  0.00  0.00    +0.000 A 
ATOM     13  C   UNL     1       0.931   3.506  19.681  0.00  0.00    +0.000 A 
ATOM     14  C   UNL     1       1.687   4.596  20.111  0.00  0.00    +0.000 A 
ATOM     15  C   UNL     1       2.840   4.964  19.414  0.00  0.00    +0.000 A 
ENDBRANCH   3  10
BRANCH   1  16
ATOM     16  N   UNL     1       7.455   6.549  18.332  0.00  0.00    +0.000 N 
ATOM     17  H   UNL     1       7.253   6.533  19.328  0.00  0.00    +0.000 HD
BRANCH  16  18
ATOM     18  C   UNL     1       7.706   7.866  17.756  0.00  0.00    +0.000 C 
BRANCH  18  20
ATOM     19  C   UNL     1       8.769  10.106  18.159  0.00  0.00    +0.000 C 
ATOM     20  C   UNL     1       8.616   8.681  18.671  0.00  0.00    +0.000 C 
ENDBRANCH  18  20
ENDBRANCH  16  18
ENDBRANCH   1  16
BRANCH   9  21
ATOM     21  C   UNL     1       5.177   4.224  13.263  0.00  0.00    +0.000 C 
BRANCH  21  22
ATOM     22  C   UNL     1       5.810   3.258  12.296  0.00  0.00    +0.000 A 
ATOM     23  C   UNL     1       7.168   3.364  11.958  0.00  0.00    +0.000 A 
ATOM     24  C   UNL     1       7.780   2.385  11.171  0.00  0.00    +0.000 A 
ATOM     25  C   UNL     1       7.040   1.299  10.705  0.00  0.00    +0.000 A 
ATOM     26  C   UNL     1       5.681   1.206  11.001  0.00  0.00    +0.000 A 
ATOM     27  C   UNL     1       5.067   2.185  11.784  0.00  0.00    +0.000 A 
ENDBRANCH  21  22
ENDBRANCH   9  21
TORSDOF 6
ENDMDL
MODEL 9
REMARK VINA RESULT:      -7.8      3.233      5.124
REMARK  Name = 
REMARK  7 active torsions:
REMARK  status: ('A' for Active; 'I' for Inactive)
REMARK    1  A    between atoms: C_1  and  C_2
REMARK    2  A    between atoms: C_2  and  C_3
REMARK    3  A    between atoms: C_3  and  N_4
REMARK    4  A    between atoms: N_4  and  C_5
REMARK    5  A    between atoms: C_7  and  C_8
REMARK    6  A    between atoms: N_19  and  C_20
REMARK    7  A    between atoms: C_20  and  C_21
REMARK                            x       y       z     vdW  Elec       q    Type
REMARK                         _______ _______ _______ _____ _____    ______ ____
ROOT
ATOM      1  C   UNL     1       5.254   6.621  16.839  0.00  0.00    +0.000 A 
ATOM      2  N   UNL     1       4.347   7.424  17.456  0.00  0.00    +0.000 NA
ATOM      3  C   UNL     1       3.284   6.886  18.099  0.00  0.00    +0.000 A 
ATOM      4  N   UNL     1       2.991   5.574  18.213  0.00  0.00    +0.000 NA
ATOM      5  C   UNL     1       3.892   4.816  17.569  0.00  0.00    +0.000 A 
ATOM      6  C   UNL     1       5.013   5.237  16.878  0.00  0.00    +0.000 A 
ATOM      7  N   UNL     1       5.652   4.145  16.347  0.00  0.00    +0.000 NA
ATOM      8  N   UNL     1       4.935   3.061  16.641  0.00  0.00    +0.000 NA
ATOM      9  N   UNL     1       3.873   3.463  17.381  0.00  0.00    +0.000 N 
ENDROOT
BRANCH   3  10
ATOM     10  C   UNL     1       2.316   7.829  18.675  0.00  0.00    +0.000 A 
ATOM     11  C   UNL     1       1.948   7.741  20.031  0.00  0.00    +0.000 A 
ATOM     12  C   UNL     1       1.060   8.656  20.599  0.00  0.00    +0.000 A 
ATOM     13  C   UNL     1       0.510   9.667  19.818  0.00  0.00    +0.000 A 
ATOM     14  C   UNL     1       0.852   9.769  18.469  0.00  0.00    +0.000 A 
ATOM     15  C   UNL     1       1.751   8.862  17.906  0.00  0.00    +0.000 A 
ENDBRANCH   3  10
BRANCH   1  16
ATOM     16  N   UNL     1       6.345   7.196  16.168  0.00  0.00    +0.000 N 
ATOM     17  H   UNL     1       6.257   7.084  15.161  0.00  0.00    +0.000 HD
BRANCH  16  18
ATOM     18  C   UNL     1       7.641   6.841  16.735  0.00  0.00    +0.000 C 
BRANCH  18  20
ATOM     19  C   UNL     1       8.137   9.016  17.892  0.00  0.00    +0.000 C 
ATOM     20  C   UNL     1       7.840   7.535  18.081  0.00  0.00    +0.000 C 
ENDBRANCH  18  20
ENDBRANCH  16  18
ENDBRANCH   1  16
BRANCH   9  21
ATOM     21  C   UNL     1       2.739   2.590  17.603  0.00  0.00    +0.000 C 
BRANCH  21  22
ATOM     22  C   UNL     1       2.246   2.568  19.026  0.00  0.00    +0.000 A 
ATOM     23  C   UNL     1       3.132   2.343  20.091  0.00  0.00    +0.000 A 
ATOM     24  C   UNL     1       2.694   2.462  21.413  0.00  0.00    +0.000 A 
ATOM     25  C   UNL     1       1.367   2.794  21.683  0.00  0.00    +0.000 A 
ATOM     26  C   UNL     1       0.470   2.978  20.633  0.00  0.00    +0.000 A 
ATOM     27  C   UNL     1       0.904   2.857  19.311  0.00  0.00    +0.000 A 
ENDBRANCH  21  22
ENDBRANCH   9  21
TORSDOF 6
ENDMDL
