MODEL 1
REMARK VINA RESULT:      -8.2      0.000      0.000
REMARK  Name = 
REMARK  4 active torsions:
REMARK  status: ('A' for Active; 'I' for Inactive)
REMARK    1  A    between atoms: N_1  and  C_2
REMARK    2  A    between atoms: C_6  and  C_7
REMARK    3  A    between atoms: C_11  and  C_12
REMARK    4  A    between atoms: C_12  and  C_13
REMARK                            x       y       z     vdW  Elec       q    Type
REMARK                         _______ _______ _______ _____ _____    ______ ____
ROOT
ATOM      1  C   UNL     1       8.417   8.922  18.349  0.00  0.00    +0.000 A 
ATOM      2  C   UNL     1       7.471   8.911  17.331  0.00  0.00    +0.000 A 
ATOM      3  N   UNL     1       7.059   7.618  17.263  0.00  0.00    +0.000 N 
ATOM      4  N   UNL     1       6.133   7.002  16.490  0.00  0.00    +0.000 NA
ATOM      5  C   UNL     1       6.139   5.753  16.873  0.00  0.00    +0.000 A 
ATOM      6  S   UNL     1       7.272   5.281  18.169  0.00  0.00    +0.000 S 
ATOM      7  C   UNL     1       7.755   6.922  18.192  0.00  0.00    +0.000 A 
ATOM      8  N   UNL     1       8.592   7.646  18.880  0.00  0.00    +0.000 NA
ENDROOT
BRANCH   1  13
ATOM      9  C   UNL     1       9.860  11.551  20.666  0.00  0.00    +0.000 A 
ATOM     10  C   UNL     1      10.523  12.357  19.741  0.00  0.00    +0.000 A 
ATOM     11  C   UNL     1      10.544  12.017  18.387  0.00  0.00    +0.000 A 
ATOM     12  C   UNL     1       9.862  10.884  17.943  0.00  0.00    +0.000 A 
ATOM     13  C   UNL     1       9.135  10.092  18.840  0.00  0.00    +0.000 A 
ATOM     14  C   UNL     1       9.125  10.454  20.197  0.00  0.00    +0.000 A 
BRANCH   9  15
ATOM     15  N   UNL     1       9.739  11.959  22.001  0.00  0.00    +0.000 N 
ATOM     16  H   UNL     1      10.286  11.399  22.647  0.00  0.00    +0.000 HD
ATOM     17  H   UNL     1       8.778  12.068  22.309  0.00  0.00    +0.000 HD
ENDBRANCH   9  15
ENDBRANCH   1  13
BRANCH   5  18
ATOM     18  C   UNL     1       5.236   4.698  16.297  0.00  0.00    +0.000 C 
BRANCH  18  19
ATOM     19  C   UNL     1       4.121   4.322  17.244  0.00  0.00    +0.000 A 
ATOM     20  C   UNL     1       3.914   2.980  17.598  0.00  0.00    +0.000 A 
ATOM     21  C   UNL     1       2.857   2.625  18.439  0.00  0.00    +0.000 A 
ATOM     22  C   UNL     1       1.997   3.607  18.924  0.00  0.00    +0.000 A 
ATOM     23 CL   UNL     1       0.679   3.168  19.939  0.00  0.00    +0.000 Cl
ATOM     24  C   UNL     1       2.192   4.944  18.584  0.00  0.00    +0.000 A 
ATOM     25  C   UNL     1       3.252   5.301  17.747  0.00  0.00    +0.000 A 
ENDBRANCH  18  19
ENDBRANCH   5  18
TORSDOF 4
ENDMDL
MODEL 2
REMARK VINA RESULT:      -8.2      0.128      1.014
REMARK  Name = 
REMARK  4 active torsions:
REMARK  status: ('A' for Active; 'I' for Inactive)
REMARK    1  A    between atoms: N_1  and  C_2
REMARK    2  A    between atoms: C_6  and  C_7
REMARK    3  A    between atoms: C_11  and  C_12
REMARK    4  A    between atoms: C_12  and  C_13
REMARK                            x       y       z     vdW  Elec       q    Type
REMARK                         _______ _______ _______ _____ _____    ______ ____
ROOT
ATOM      1  C   UNL     1       8.429   8.969  18.379  0.00  0.00    +0.000 A 
ATOM      2  C   UNL     1       7.477   8.955  17.367  0.00  0.00    +0.000 A 
ATOM      3  N   UNL     1       7.073   7.659  17.298  0.00  0.00    +0.000 N 
ATOM      4  N   UNL     1       6.146   7.039  16.529  0.00  0.00    +0.000 NA
ATOM      5  C   UNL     1       6.164   5.789  16.908  0.00  0.00    +0.000 A 
ATOM      6  S   UNL     1       7.309   5.321  18.195  0.00  0.00    +0.000 S 
ATOM      7  C   UNL     1       7.780   6.965  18.220  0.00  0.00    +0.000 A 
ATOM      8  N   UNL     1       8.617   7.692  18.905  0.00  0.00    +0.000 NA
ENDROOT
BRANCH   1  13
ATOM      9  C   UNL     1       9.855  11.610  20.693  0.00  0.00    +0.000 A 
ATOM     10  C   UNL     1      10.520  12.415  19.768  0.00  0.00    +0.000 A 
ATOM     11  C   UNL     1      10.548  12.070  18.416  0.00  0.00    +0.000 A 
ATOM     12  C   UNL     1       9.871  10.933  17.973  0.00  0.00    +0.000 A 
ATOM     13  C   UNL     1       9.142  10.142  18.869  0.00  0.00    +0.000 A 
ATOM     14  C   UNL     1       9.125  10.510  20.225  0.00  0.00    +0.000 A 
BRANCH   9  15
ATOM     15  N   UNL     1       9.727  12.022  22.026  0.00  0.00    +0.000 N 
ATOM     16  H   UNL     1       9.088  12.801  22.151  0.00  0.00    +0.000 HD
ATOM     17  H   UNL     1      10.616  12.179  22.493  0.00  0.00    +0.000 HD
ENDBRANCH   9  15
ENDBRANCH   1  13
BRANCH   5  18
ATOM     18  C   UNL     1       5.265   4.729  16.334  0.00  0.00    +0.000 C 
BRANCH  18  19
ATOM     19  C   UNL     1       4.131   4.377  17.267  0.00  0.00    +0.000 A 
ATOM     20  C   UNL     1       3.225   5.363  17.688  0.00  0.00    +0.000 A 
ATOM     21  C   UNL     1       2.202   5.049  18.585  0.00  0.00    +0.000 A 
ATOM     22  C   UNL     1       2.082   3.749  19.072  0.00  0.00    +0.000 A 
ATOM     23 CL   UNL     1       0.837   3.367  20.196  0.00  0.00    +0.000 Cl
ATOM     24  C   UNL     1       2.970   2.758  18.659  0.00  0.00    +0.000 A 
ATOM     25  C   UNL     1       3.991   3.071  17.759  0.00  0.00    +0.000 A 
ENDBRANCH  18  19
ENDBRANCH   5  18
TORSDOF 4
ENDMDL
MODEL 3
REMARK VINA RESULT:      -8.1      1.023      1.434
REMARK  Name = 
REMARK  4 active torsions:
REMARK  status: ('A' for Active; 'I' for Inactive)
REMARK    1  A    between atoms: N_1  and  C_2
REMARK    2  A    between atoms: C_6  and  C_7
REMARK    3  A    between atoms: C_11  and  C_12
REMARK    4  A    between atoms: C_12  and  C_13
REMARK                            x       y       z     vdW  Elec       q    Type
REMARK                         _______ _______ _______ _____ _____    ______ ____
ROOT
ATOM      1  C   UNL     1       8.502   9.093  18.419  0.00  0.00    +0.000 A 
ATOM      2  C   UNL     1       7.553   9.057  17.404  0.00  0.00    +0.000 A 
ATOM      3  N   UNL     1       7.161   7.758  17.350  0.00  0.00    +0.000 N 
ATOM      4  N   UNL     1       6.242   7.120  16.586  0.00  0.00    +0.000 NA
ATOM      5  C   UNL     1       6.268   5.875  16.982  0.00  0.00    +0.000 A 
ATOM      6  S   UNL     1       7.413   5.433  18.280  0.00  0.00    +0.000 S 
ATOM      7  C   UNL     1       7.870   7.082  18.284  0.00  0.00    +0.000 A 
ATOM      8  N   UNL     1       8.698   7.825  18.962  0.00  0.00    +0.000 NA
ENDROOT
BRANCH   1  13
ATOM      9  C   UNL     1      10.452  12.342  18.482  0.00  0.00    +0.000 A 
ATOM     10  C   UNL     1      10.550  12.544  19.858  0.00  0.00    +0.000 A 
ATOM     11  C   UNL     1       9.941  11.662  20.752  0.00  0.00    +0.000 A 
ATOM     12  C   UNL     1       9.262  10.542  20.271  0.00  0.00    +0.000 A 
ATOM     13  C   UNL     1       9.203  10.279  18.896  0.00  0.00    +0.000 A 
ATOM     14  C   UNL     1       9.826  11.178  18.016  0.00  0.00    +0.000 A 
BRANCH   9  15
ATOM     15  N   UNL     1      11.165  13.159  17.595  0.00  0.00    +0.000 N 
ATOM     16  H   UNL     1      11.066  14.151  17.787  0.00  0.00    +0.000 HD
ATOM     17  H   UNL     1      11.000  12.942  16.616  0.00  0.00    +0.000 HD
ENDBRANCH   9  15
ENDBRANCH   1  13
BRANCH   5  18
ATOM     18  C   UNL     1       5.381   4.801  16.420  0.00  0.00    +0.000 C 
BRANCH  18  19
ATOM     19  C   UNL     1       4.231   4.469  17.342  0.00  0.00    +0.000 A 
ATOM     20  C   UNL     1       4.059   3.161  17.820  0.00  0.00    +0.000 A 
ATOM     21  C   UNL     1       2.972   2.842  18.637  0.00  0.00    +0.000 A 
ATOM     22  C   UNL     1       2.048   3.828  18.976  0.00  0.00    +0.000 A 
ATOM     23 CL   UNL     1       0.695   3.430  19.962  0.00  0.00    +0.000 Cl
ATOM     24  C   UNL     1       2.208   5.132  18.513  0.00  0.00    +0.000 A 
ATOM     25  C   UNL     1       3.297   5.452  17.699  0.00  0.00    +0.000 A 
ENDBRANCH  18  19
ENDBRANCH   5  18
TORSDOF 4
ENDMDL
MODEL 4
REMARK VINA RESULT:      -8.1      1.080      1.752
REMARK  Name = 
REMARK  4 active torsions:
REMARK  status: ('A' for Active; 'I' for Inactive)
REMARK    1  A    between atoms: N_1  and  C_2
REMARK    2  A    between atoms: C_6  and  C_7
REMARK    3  A    between atoms: C_11  and  C_12
REMARK    4  A    between atoms: C_12  and  C_13
REMARK                            x       y       z     vdW  Elec       q    Type
REMARK                         _______ _______ _______ _____ _____    ______ ____
ROOT
ATOM      1  C   UNL     1       8.377   9.071  18.301  0.00  0.00    +0.000 A 
ATOM      2  C   UNL     1       7.432   8.957  17.289  0.00  0.00    +0.000 A 
ATOM      3  N   UNL     1       7.100   7.640  17.279  0.00  0.00    +0.000 N 
ATOM      4  N   UNL     1       6.213   6.934  16.538  0.00  0.00    +0.000 NA
ATOM      5  C   UNL     1       6.297   5.706  16.975  0.00  0.00    +0.000 A 
ATOM      6  S   UNL     1       7.460   5.362  18.286  0.00  0.00    +0.000 S 
ATOM      7  C   UNL     1       7.840   7.029  18.235  0.00  0.00    +0.000 A 
ATOM      8  N   UNL     1       8.632   7.832  18.886  0.00  0.00    +0.000 NA
ENDROOT
BRANCH   1  13
ATOM      9  C   UNL     1       9.762  12.598  18.322  0.00  0.00    +0.000 A 
ATOM     10  C   UNL     1      10.277  12.653  19.617  0.00  0.00    +0.000 A 
ATOM     11  C   UNL     1      10.126  11.574  20.488  0.00  0.00    +0.000 A 
ATOM     12  C   UNL     1       9.492  10.410  20.053  0.00  0.00    +0.000 A 
ATOM     13  C   UNL     1       9.022  10.303  18.738  0.00  0.00    +0.000 A 
ATOM     14  C   UNL     1       9.187  11.400  17.877  0.00  0.00    +0.000 A 
BRANCH   9  15
ATOM     15  N   UNL     1      10.021  13.633  17.413  0.00  0.00    +0.000 N 
ATOM     16  H   UNL     1      10.968  13.994  17.468  0.00  0.00    +0.000 HD
ATOM     17  H   UNL     1       9.328  14.376  17.431  0.00  0.00    +0.000 HD
ENDBRANCH   9  15
ENDBRANCH   1  13
BRANCH   5  18
ATOM     18  C   UNL     1       5.461   4.573  16.450  0.00  0.00    +0.000 C 
BRANCH  18  19
ATOM     19  C   UNL     1       4.243   4.317  17.307  0.00  0.00    +0.000 A 
ATOM     20  C   UNL     1       3.463   5.389  17.769  0.00  0.00    +0.000 A 
ATOM     21  C   UNL     1       2.363   5.157  18.598  0.00  0.00    +0.000 A 
ATOM     22  C   UNL     1       2.040   3.855  18.974  0.00  0.00    +0.000 A 
ATOM     23 CL   UNL     1       0.700   3.572  20.015  0.00  0.00    +0.000 Cl
ATOM     24  C   UNL     1       2.802   2.782  18.519  0.00  0.00    +0.000 A 
ATOM     25  C   UNL     1       3.900   3.012  17.687  0.00  0.00    +0.000 A 
ENDBRANCH  18  19
ENDBRANCH   5  18
TORSDOF 4
ENDMDL
MODEL 5
REMARK VINA RESULT:      -7.6      1.584      2.058
REMARK  Name = 
REMARK  4 active torsions:
REMARK  status: ('A' for Active; 'I' for Inactive)
REMARK    1  A    between atoms: N_1  and  C_2
REMARK    2  A    between atoms: C_6  and  C_7
REMARK    3  A    between atoms: C_11  and  C_12
REMARK    4  A    between atoms: C_12  and  C_13
REMARK                            x       y       z     vdW  Elec       q    Type
REMARK                         _______ _______ _______ _____ _____    ______ ____
ROOT
ATOM      1  C   UNL     1       8.328   8.792  18.297  0.00  0.00    +0.000 A 
ATOM      2  C   UNL     1       8.493   7.504  18.793  0.00  0.00    +0.000 A 
ATOM      3  N   UNL     1       7.566   6.763  18.133  0.00  0.00    +0.000 N 
ATOM      4  N   UNL     1       7.270   5.441  18.168  0.00  0.00    +0.000 NA
ATOM      5  C   UNL     1       6.303   5.281  17.304  0.00  0.00    +0.000 A 
ATOM      6  S   UNL     1       5.712   6.723  16.432  0.00  0.00    +0.000 S 
ATOM      7  C   UNL     1       6.891   7.599  17.309  0.00  0.00    +0.000 A 
ATOM      8  N   UNL     1       7.298   8.836  17.360  0.00  0.00    +0.000 NA
ENDROOT
BRANCH   1  13
ATOM      9  C   UNL     1      10.534  11.865  18.065  0.00  0.00    +0.000 A 
ATOM     10  C   UNL     1      10.636  12.197  19.416  0.00  0.00    +0.000 A 
ATOM     11  C   UNL     1       9.950  11.461  20.383  0.00  0.00    +0.000 A 
ATOM     12  C   UNL     1       9.187  10.355  20.006  0.00  0.00    +0.000 A 
ATOM     13  C   UNL     1       9.119   9.960  18.664  0.00  0.00    +0.000 A 
ATOM     14  C   UNL     1       9.819  10.714  17.708  0.00  0.00    +0.000 A 
BRANCH   9  15
ATOM     15  N   UNL     1      11.318  12.529  17.112  0.00  0.00    +0.000 N 
ATOM     16  H   UNL     1      10.828  12.716  16.243  0.00  0.00    +0.000 HD
ATOM     17  H   UNL     1      12.224  12.097  16.956  0.00  0.00    +0.000 HD
ENDBRANCH   9  15
ENDBRANCH   1  13
BRANCH   5  18
ATOM     18  C   UNL     1       5.674   3.952  16.991  0.00  0.00    +0.000 C 
BRANCH  18  19
ATOM     19  C   UNL     1       4.412   3.717  17.788  0.00  0.00    +0.000 A 
ATOM     20  C   UNL     1       3.158   3.761  17.159  0.00  0.00    +0.000 A 
ATOM     21  C   UNL     1       1.988   3.587  17.902  0.00  0.00    +0.000 A 
ATOM     22  C   UNL     1       2.064   3.377  19.277  0.00  0.00    +0.000 A 
ATOM     23 CL   UNL     1       0.622   3.189  20.196  0.00  0.00    +0.000 Cl
ATOM     24  C   UNL     1       3.302   3.326  19.913  0.00  0.00    +0.000 A 
ATOM     25  C   UNL     1       4.473   3.496  19.171  0.00  0.00    +0.000 A 
ENDBRANCH  18  19
ENDBRANCH   5  18
TORSDOF 4
ENDMDL
MODEL 6
REMARK VINA RESULT:      -7.5      6.201      8.938
REMARK  Name = 
REMARK  4 active torsions:
REMARK  status: ('A' for Active; 'I' for Inactive)
REMARK    1  A    between atoms: N_1  and  C_2
REMARK    2  A    between atoms: C_6  and  C_7
REMARK    3  A    between atoms: C_11  and  C_12
REMARK    4  A    between atoms: C_12  and  C_13
REMARK                            x       y       z     vdW  Elec       q    Type
REMARK                         _______ _______ _______ _____ _____    ______ ____
ROOT
ATOM      1  C   UNL     1       2.533   5.718  18.975  0.00  0.00    +0.000 A 
ATOM      2  C   UNL     1       1.987   6.312  20.106  0.00  0.00    +0.000 A 
ATOM      3  N   UNL     1       1.797   7.610  19.752  0.00  0.00    +0.000 N 
ATOM      4  N   UNL     1       1.269   8.663  20.420  0.00  0.00    +0.000 NA
ATOM      5  C   UNL     1       1.315   9.663  19.580  0.00  0.00    +0.000 A 
ATOM      6  S   UNL     1       2.009   9.365  17.962  0.00  0.00    +0.000 S 
ATOM      7  C   UNL     1       2.234   7.750  18.478  0.00  0.00    +0.000 A 
ATOM      8  N   UNL     1       2.693   6.650  17.951  0.00  0.00    +0.000 NA
ENDROOT
BRANCH   1  13
ATOM      9  C   UNL     1       4.128   2.328  19.547  0.00  0.00    +0.000 A 
ATOM     10  C   UNL     1       3.541   1.602  18.511  0.00  0.00    +0.000 A 
ATOM     11  C   UNL     1       2.597   2.196  17.672  0.00  0.00    +0.000 A 
ATOM     12  C   UNL     1       2.264   3.541  17.839  0.00  0.00    +0.000 A 
ATOM     13  C   UNL     1       2.886   4.311  18.830  0.00  0.00    +0.000 A 
ATOM     14  C   UNL     1       3.834   3.694  19.661  0.00  0.00    +0.000 A 
BRANCH   9  15
ATOM     15  N   UNL     1       5.161   1.765  20.308  0.00  0.00    +0.000 N 
ATOM     16  H   UNL     1       5.552   2.402  20.995  0.00  0.00    +0.000 HD
ATOM     17  H   UNL     1       5.881   1.315  19.751  0.00  0.00    +0.000 HD
ENDBRANCH   9  15
ENDBRANCH   1  13
BRANCH   5  18
ATOM     18  C   UNL     1       0.803  11.041  19.892  0.00  0.00    +0.000 C 
BRANCH  18  19
ATOM     19  C   UNL     1      -0.639  11.221  19.480  0.00  0.00    +0.000 A 
ATOM     20  C   UNL     1      -1.176  10.463  18.428  0.00  0.00    +0.000 A 
ATOM     21  C   UNL     1      -2.497  10.659  18.016  0.00  0.00    +0.000 A 
ATOM     22  C   UNL     1      -3.285  11.618  18.649  0.00  0.00    +0.000 A 
ATOM     23 CL   UNL     1      -4.903  11.877  18.125  0.00  0.00    +0.000 Cl
ATOM     24  C   UNL     1      -2.767  12.374  19.697  0.00  0.00    +0.000 A 
ATOM     25  C   UNL     1      -1.448  12.176  20.113  0.00  0.00    +0.000 A 
ENDBRANCH  18  19
ENDBRANCH   5  18
TORSDOF 4
ENDMDL
MODEL 7
REMARK VINA RESULT:      -7.5      6.209      8.956
REMARK  Name = 
REMARK  4 active torsions:
REMARK  status: ('A' for Active; 'I' for Inactive)
REMARK    1  A    between atoms: N_1  and  C_2
REMARK    2  A    between atoms: C_6  and  C_7
REMARK    3  A    between atoms: C_11  and  C_12
REMARK    4  A    between atoms: C_12  and  C_13
REMARK                            x       y       z     vdW  Elec       q    Type
REMARK                         _______ _______ _______ _____ _____    ______ ____
ROOT
ATOM      1  C   UNL     1       2.548   5.646  18.960  0.00  0.00    +0.000 A 
ATOM      2  C   UNL     1       1.995   6.228  20.094  0.00  0.00    +0.000 A 
ATOM      3  N   UNL     1       1.790   7.525  19.746  0.00  0.00    +0.000 N 
ATOM      4  N   UNL     1       1.251   8.570  20.419  0.00  0.00    +0.000 NA
ATOM      5  C   UNL     1       1.285   9.573  19.584  0.00  0.00    +0.000 A 
ATOM      6  S   UNL     1       1.981   9.291  17.964  0.00  0.00    +0.000 S 
ATOM      7  C   UNL     1       2.225   7.676  18.473  0.00  0.00    +0.000 A 
ATOM      8  N   UNL     1       2.695   6.584  17.941  0.00  0.00    +0.000 NA
ENDROOT
BRANCH   1  13
ATOM      9  C   UNL     1       4.151   2.261  19.539  0.00  0.00    +0.000 A 
ATOM     10  C   UNL     1       3.603   1.544  18.476  0.00  0.00    +0.000 A 
ATOM     11  C   UNL     1       2.681   2.141  17.615  0.00  0.00    +0.000 A 
ATOM     12  C   UNL     1       2.332   3.481  17.789  0.00  0.00    +0.000 A 
ATOM     13  C   UNL     1       2.916   4.244  18.809  0.00  0.00    +0.000 A 
ATOM     14  C   UNL     1       3.843   3.623  19.661  0.00  0.00    +0.000 A 
BRANCH   9  15
ATOM     15  N   UNL     1       5.164   1.697  20.325  0.00  0.00    +0.000 N 
ATOM     16  H   UNL     1       5.828   2.377  20.681  0.00  0.00    +0.000 HD
ATOM     17  H   UNL     1       5.626   0.904  19.889  0.00  0.00    +0.000 HD
ENDBRANCH   9  15
ENDBRANCH   1  13
BRANCH   5  18
ATOM     18  C   UNL     1       0.757  10.944  19.903  0.00  0.00    +0.000 C 
BRANCH  18  19
ATOM     19  C   UNL     1      -0.639  11.157  19.367  0.00  0.00    +0.000 A 
ATOM     20  C   UNL     1      -1.488  12.106  19.957  0.00  0.00    +0.000 A 
ATOM     21  C   UNL     1      -2.795  12.274  19.491  0.00  0.00    +0.000 A 
ATOM     22  C   UNL     1      -3.261  11.490  18.439  0.00  0.00    +0.000 A 
ATOM     23 CL   UNL     1      -4.878  11.678  17.882  0.00  0.00    +0.000 Cl
ATOM     24  C   UNL     1      -2.429  10.547  17.841  0.00  0.00    +0.000 A 
ATOM     25  C   UNL     1      -1.121  10.381  18.303  0.00  0.00    +0.000 A 
ENDBRANCH  18  19
ENDBRANCH   5  18
TORSDOF 4
ENDMDL
MODEL 8
REMARK VINA RESULT:      -7.5      1.584      1.980
REMARK  Name = 
REMARK  4 active torsions:
REMARK  status: ('A' for Active; 'I' for Inactive)
REMARK    1  A    between atoms: N_1  and  C_2
REMARK    2  A    between atoms: C_6  and  C_7
REMARK    3  A    between atoms: C_11  and  C_12
REMARK    4  A    between atoms: C_12  and  C_13
REMARK                            x       y       z     vdW  Elec       q    Type
REMARK                         _______ _______ _______ _____ _____    ______ ____
ROOT
ATOM      1  C   UNL     1       8.502   8.903  18.409  0.00  0.00    +0.000 A 
ATOM      2  C   UNL     1       8.599   7.627  18.950  0.00  0.00    +0.000 A 
ATOM      3  N   UNL     1       7.673   6.899  18.273  0.00  0.00    +0.000 N 
ATOM      4  N   UNL     1       7.327   5.591  18.334  0.00  0.00    +0.000 NA
ATOM      5  C   UNL     1       6.392   5.438  17.434  0.00  0.00    +0.000 A 
ATOM      6  S   UNL     1       5.891   6.873  16.496  0.00  0.00    +0.000 S 
ATOM      7  C   UNL     1       7.065   7.733  17.396  0.00  0.00    +0.000 A 
ATOM      8  N   UNL     1       7.514   8.955  17.429  0.00  0.00    +0.000 NA
ENDROOT
BRANCH   1  13
ATOM      9  C   UNL     1      10.911  11.821  18.202  0.00  0.00    +0.000 A 
ATOM     10  C   UNL     1      10.881  12.260  19.526  0.00  0.00    +0.000 A 
ATOM     11  C   UNL     1      10.045  11.646  20.460  0.00  0.00    +0.000 A 
ATOM     12  C   UNL     1       9.261  10.556  20.082  0.00  0.00    +0.000 A 
ATOM     13  C   UNL     1       9.319  10.054  18.776  0.00  0.00    +0.000 A 
ATOM     14  C   UNL     1      10.169  10.685  17.853  0.00  0.00    +0.000 A 
BRANCH   9  15
ATOM     15  N   UNL     1      11.838  12.359  17.300  0.00  0.00    +0.000 N 
ATOM     16  H   UNL     1      12.794  12.065  17.475  0.00  0.00    +0.000 HD
ATOM     17  H   UNL     1      11.763  13.366  17.188  0.00  0.00    +0.000 HD
ENDBRANCH   9  15
ENDBRANCH   1  13
BRANCH   5  18
ATOM     18  C   UNL     1       5.728   4.124  17.134  0.00  0.00    +0.000 C 
BRANCH  18  19
ATOM     19  C   UNL     1       4.460   3.930  17.933  0.00  0.00    +0.000 A 
ATOM     20  C   UNL     1       4.515   3.414  19.237  0.00  0.00    +0.000 A 
ATOM     21  C   UNL     1       3.341   3.193  19.961  0.00  0.00    +0.000 A 
ATOM     22  C   UNL     1       2.106   3.479  19.383  0.00  0.00    +0.000 A 
ATOM     23 CL   UNL     1       0.659   3.183  20.265  0.00  0.00    +0.000 Cl
ATOM     24  C   UNL     1       2.036   3.997  18.092  0.00  0.00    +0.000 A 
ATOM     25  C   UNL     1       3.210   4.222  17.369  0.00  0.00    +0.000 A 
ENDBRANCH  18  19
ENDBRANCH   5  18
TORSDOF 4
ENDMDL
MODEL 9
REMARK VINA RESULT:      -7.3      5.377      7.230
REMARK  Name = 
REMARK  4 active torsions:
REMARK  status: ('A' for Active; 'I' for Inactive)
REMARK    1  A    between atoms: N_1  and  C_2
REMARK    2  A    between atoms: C_6  and  C_7
REMARK    3  A    between atoms: C_11  and  C_12
REMARK    4  A    between atoms: C_12  and  C_13
REMARK                            x       y       z     vdW  Elec       q    Type
REMARK                         _______ _______ _______ _____ _____    ______ ____
ROOT
ATOM      1  C   UNL     1       1.564   8.778  19.236  0.00  0.00    +0.000 A 
ATOM      2  C   UNL     1       2.334   8.448  18.127  0.00  0.00    +0.000 A 
ATOM      3  N   UNL     1       2.835   7.218  18.413  0.00  0.00    +0.000 N 
ATOM      4  N   UNL     1       3.623   6.374  17.706  0.00  0.00    +0.000 NA
ATOM      5  C   UNL     1       3.767   5.319  18.464  0.00  0.00    +0.000 A 
ATOM      6  S   UNL     1       2.967   5.320  20.060  0.00  0.00    +0.000 S 
ATOM      7  C   UNL     1       2.382   6.872  19.642  0.00  0.00    +0.000 A 
ATOM      8  N   UNL     1       1.614   7.768  20.195  0.00  0.00    +0.000 NA
ENDROOT
BRANCH   1  13
ATOM      9  C   UNL     1      -0.802  11.658  18.557  0.00  0.00    +0.000 A 
ATOM     10  C   UNL     1      -0.709  12.345  19.768  0.00  0.00    +0.000 A 
ATOM     11  C   UNL     1       0.073  11.845  20.810  0.00  0.00    +0.000 A 
ATOM     12  C   UNL     1       0.803  10.670  20.631  0.00  0.00    +0.000 A 
ATOM     13  C   UNL     1       0.779   9.994  19.404  0.00  0.00    +0.000 A 
ATOM     14  C   UNL     1      -0.012  10.517  18.368  0.00  0.00    +0.000 A 
BRANCH   9  15
ATOM     15  N   UNL     1      -1.489  12.224  17.474  0.00  0.00    +0.000 N 
ATOM     16  H   UNL     1      -2.489  12.305  17.626  0.00  0.00    +0.000 HD
ATOM     17  H   UNL     1      -1.272  11.792  16.581  0.00  0.00    +0.000 HD
ENDBRANCH   9  15
ENDBRANCH   1  13
BRANCH   5  18
ATOM     18  C   UNL     1       4.554   4.103  18.063  0.00  0.00    +0.000 C 
BRANCH  18  19
ATOM     19  C   UNL     1       5.365   4.336  16.810  0.00  0.00    +0.000 A 
ATOM     20  C   UNL     1       6.677   4.826  16.896  0.00  0.00    +0.000 A 
ATOM     21  C   UNL     1       7.414   5.084  15.737  0.00  0.00    +0.000 A 
ATOM     22  C   UNL     1       6.841   4.859  14.487  0.00  0.00    +0.000 A 
ATOM     23 CL   UNL     1       7.738   5.200  13.060  0.00  0.00    +0.000 Cl
ATOM     24  C   UNL     1       5.541   4.368  14.387  0.00  0.00    +0.000 A 
ATOM     25  C   UNL     1       4.805   4.106  15.545  0.00  0.00    +0.000 A 
ENDBRANCH  18  19
ENDBRANCH   5  18
TORSDOF 4
ENDMDL
