MODEL 1
REMARK VINA RESULT:      -8.3      0.000      0.000
REMARK  Name = 
REMARK  8 active torsions:
REMARK  status: ('A' for Active; 'I' for Inactive)
REMARK    1  A    between atoms: C_1  and  O_2
REMARK    2  A    between atoms: O_2  and  C_3
REMARK    3  A    between atoms: C_7  and  O_8
REMARK    4  A    between atoms: O_8  and  C_9
REMARK    5  A    between atoms: N_11  and  C_12
REMARK    6  A    between atoms: C_12  and  C_13
REMARK    7  A    between atoms: C_12  and  C_14
REMARK    8  A    between atoms: N_20  and  C_21
REMARK                            x       y       z     vdW  Elec       q    Type
REMARK                         _______ _______ _______ _____ _____    ______ ____
ROOT
ATOM      1  C   UNL     1       2.459   6.726  19.787  0.00  0.00    +0.000 A 
ATOM      2  N   UNL     1       3.267   6.343  18.829  0.00  0.00    +0.000 NA
ATOM      3  C   UNL     1       3.550   5.015  18.845  0.00  0.00    +0.000 A 
ATOM      4  C   UNL     1       3.084   4.081  19.739  0.00  0.00    +0.000 A 
ATOM      5  C   UNL     1       3.590   2.853  19.308  0.00  0.00    +0.000 A 
ATOM      6  N   UNL     1       4.357   2.983  18.219  0.00  0.00    +0.000 NA
ATOM      7  N   UNL     1       4.333   4.318  17.956  0.00  0.00    +0.000 N 
ATOM      8  C   UNL     1       2.230   4.506  20.807  0.00  0.00    +0.000 A 
ATOM      9  O   UNL     1       1.773   3.761  21.664  0.00  0.00    +0.000 OA
ATOM     10  N   UNL     1       1.965   5.863  20.763  0.00  0.00    +0.000 N 
ATOM     11  H   UNL     1       1.319   6.218  21.454  0.00  0.00    +0.000 HD
ENDROOT
BRANCH   7  12
ATOM     12  C   UNL     1       5.054   4.839  16.813  0.00  0.00    +0.000 C 
ATOM     13  C   UNL     1       6.545   5.086  17.057  0.00  0.00    +0.000 C 
ATOM     14  C   UNL     1       7.128   5.204  15.654  0.00  0.00    +0.000 C 
ATOM     15  C   UNL     1       6.269   4.300  14.772  0.00  0.00    +0.000 C 
ATOM     16  C   UNL     1       5.061   3.889  15.613  0.00  0.00    +0.000 C 
ENDBRANCH   7  12
BRANCH   1  17
ATOM     17  C   UNL     1       1.991   8.202  19.921  0.00  0.00    +0.000 C 
ATOM     18  C   UNL     1       1.673   8.771  18.530  0.00  0.00    +0.000 C 
BRANCH  17  21
ATOM     19  C   UNL     1       0.076   9.859  22.142  0.00  0.00    +0.000 C 
ATOM     20  C   UNL     1      -0.094   9.274  20.717  0.00  0.00    +0.000 C 
ATOM     21  N   UNL     1       0.960   8.282  20.992  0.00  0.00    +0.000 NA
ATOM     22  C   UNL     1       1.389   9.040  22.187  0.00  0.00    +0.000 C 
BRANCH  19  23
ATOM     23  O   UNL     1       0.193  11.303  22.188  0.00  0.00    +0.000 OA
BRANCH  23  28
ATOM     24  C   UNL     1      -3.131  12.473  23.363  0.00  0.00    +0.000 A 
ATOM     25  C   UNL     1      -2.913  13.851  23.293  0.00  0.00    +0.000 A 
ATOM     26  C   UNL     1      -1.671  14.345  22.899  0.00  0.00    +0.000 A 
ATOM     27  C   UNL     1      -0.655  13.453  22.550  0.00  0.00    +0.000 A 
ATOM     28  C   UNL     1      -0.872  12.072  22.587  0.00  0.00    +0.000 A 
ATOM     29  C   UNL     1      -2.110  11.581  23.005  0.00  0.00    +0.000 A 
BRANCH  24  31
ATOM     30  C   UNL     1      -4.816  12.443  25.027  0.00  0.00    +0.000 C 
ATOM     31  O   UNL     1      -4.405  12.106  23.708  0.00  0.00    +0.000 OA
ENDBRANCH  24  31
ENDBRANCH  23  28
ENDBRANCH  19  23
ENDBRANCH  17  21
ENDBRANCH   1  17
TORSDOF 6
ENDMDL
MODEL 2
REMARK VINA RESULT:      -8.3      2.965      5.381
REMARK  Name = 
REMARK  8 active torsions:
REMARK  status: ('A' for Active; 'I' for Inactive)
REMARK    1  A    between atoms: C_1  and  O_2
REMARK    2  A    between atoms: O_2  and  C_3
REMARK    3  A    between atoms: C_7  and  O_8
REMARK    4  A    between atoms: O_8  and  C_9
REMARK    5  A    between atoms: N_11  and  C_12
REMARK    6  A    between atoms: C_12  and  C_13
REMARK    7  A    between atoms: C_12  and  C_14
REMARK    8  A    between atoms: N_20  and  C_21
REMARK                            x       y       z     vdW  Elec       q    Type
REMARK                         _______ _______ _______ _____ _____    ______ ____
ROOT
ATOM      1  C   UNL     1       4.389   3.503  17.697  0.00  0.00    +0.000 A 
ATOM      2  N   UNL     1       4.837   3.858  16.518  0.00  0.00    +0.000 NA
ATOM      3  C   UNL     1       5.878   4.729  16.565  0.00  0.00    +0.000 A 
ATOM      4  C   UNL     1       6.472   5.249  17.690  0.00  0.00    +0.000 A 
ATOM      5  C   UNL     1       7.533   6.034  17.234  0.00  0.00    +0.000 A 
ATOM      6  N   UNL     1       7.608   6.047  15.898  0.00  0.00    +0.000 NA
ATOM      7  N   UNL     1       6.576   5.252  15.502  0.00  0.00    +0.000 N 
ATOM      8  C   UNL     1       5.958   4.888  18.977  0.00  0.00    +0.000 A 
ATOM      9  O   UNL     1       6.403   5.304  20.039  0.00  0.00    +0.000 OA
ATOM     10  N   UNL     1       4.898   4.003  18.893  0.00  0.00    +0.000 N 
ATOM     11  H   UNL     1       4.528   3.661  19.768  0.00  0.00    +0.000 HD
ENDROOT
BRANCH   7  12
ATOM     12  C   UNL     1       6.352   5.014  14.091  0.00  0.00    +0.000 C 
ATOM     13  C   UNL     1       7.584   5.219  13.206  0.00  0.00    +0.000 C 
ATOM     14  C   UNL     1       7.218   4.515  11.905  0.00  0.00    +0.000 C 
ATOM     15  C   UNL     1       6.302   3.360  12.304  0.00  0.00    +0.000 C 
ATOM     16  C   UNL     1       5.945   3.572  13.775  0.00  0.00    +0.000 C 
ENDBRANCH   7  12
BRANCH   1  17
ATOM     17  C   UNL     1       3.221   2.490  17.856  0.00  0.00    +0.000 C 
ATOM     18  C   UNL     1       3.730   1.222  18.557  0.00  0.00    +0.000 C 
BRANCH  17  21
ATOM     19  C   UNL     1       1.717   5.082  19.394  0.00  0.00    +0.000 C 
ATOM     20  C   UNL     1       1.914   4.591  17.937  0.00  0.00    +0.000 C 
ATOM     21  N   UNL     1       2.040   3.204  18.415  0.00  0.00    +0.000 NA
ATOM     22  C   UNL     1       2.224   3.678  19.803  0.00  0.00    +0.000 C 
BRANCH  19  23
ATOM     23  O   UNL     1       2.539   6.217  19.762  0.00  0.00    +0.000 OA
BRANCH  23  28
ATOM     24  C   UNL     1       1.018   9.599  19.982  0.00  0.00    +0.000 A 
ATOM     25  C   UNL     1       1.302  10.050  18.690  0.00  0.00    +0.000 A 
ATOM     26  C   UNL     1       2.015   9.240  17.807  0.00  0.00    +0.000 A 
ATOM     27  C   UNL     1       2.421   7.969  18.214  0.00  0.00    +0.000 A 
ATOM     28  C   UNL     1       2.116   7.496  19.494  0.00  0.00    +0.000 A 
ATOM     29  C   UNL     1       1.422   8.318  20.384  0.00  0.00    +0.000 A 
BRANCH  24  31
ATOM     30  C   UNL     1      -0.904  10.978  20.119  0.00  0.00    +0.000 C 
ATOM     31  O   UNL     1       0.265  10.456  20.740  0.00  0.00    +0.000 OA
ENDBRANCH  24  31
ENDBRANCH  23  28
ENDBRANCH  19  23
ENDBRANCH  17  21
ENDBRANCH   1  17
TORSDOF 6
ENDMDL
MODEL 3
REMARK VINA RESULT:      -8.1      1.001      1.495
REMARK  Name = 
REMARK  8 active torsions:
REMARK  status: ('A' for Active; 'I' for Inactive)
REMARK    1  A    between atoms: C_1  and  O_2
REMARK    2  A    between atoms: O_2  and  C_3
REMARK    3  A    between atoms: C_7  and  O_8
REMARK    4  A    between atoms: O_8  and  C_9
REMARK    5  A    between atoms: N_11  and  C_12
REMARK    6  A    between atoms: C_12  and  C_13
REMARK    7  A    between atoms: C_12  and  C_14
REMARK    8  A    between atoms: N_20  and  C_21
REMARK                            x       y       z     vdW  Elec       q    Type
REMARK                         _______ _______ _______ _____ _____    ______ ____
ROOT
ATOM      1  C   UNL     1       2.404   6.916  19.692  0.00  0.00    +0.000 A 
ATOM      2  N   UNL     1       3.268   6.538  18.784  0.00  0.00    +0.000 NA
ATOM      3  C   UNL     1       3.574   5.215  18.831  0.00  0.00    +0.000 A 
ATOM      4  C   UNL     1       3.080   4.283  19.711  0.00  0.00    +0.000 A 
ATOM      5  C   UNL     1       3.630   3.060  19.322  0.00  0.00    +0.000 A 
ATOM      6  N   UNL     1       4.451   3.192  18.274  0.00  0.00    +0.000 NA
ATOM      7  N   UNL     1       4.417   4.523  17.993  0.00  0.00    +0.000 N 
ATOM      8  C   UNL     1       2.162   4.704  20.727  0.00  0.00    +0.000 A 
ATOM      9  O   UNL     1       1.675   3.960  21.568  0.00  0.00    +0.000 OA
ATOM     10  N   UNL     1       1.875   6.055  20.652  0.00  0.00    +0.000 N 
ATOM     11  H   UNL     1       1.187   6.405  21.303  0.00  0.00    +0.000 HD
ENDROOT
BRANCH   7  12
ATOM     12  C   UNL     1       5.187   5.045  16.883  0.00  0.00    +0.000 C 
ATOM     13  C   UNL     1       6.705   4.950  17.059  0.00  0.00    +0.000 C 
ATOM     14  C   UNL     1       7.247   5.145  15.648  0.00  0.00    +0.000 C 
ATOM     15  C   UNL     1       6.186   4.565  14.714  0.00  0.00    +0.000 C 
ATOM     16  C   UNL     1       4.951   4.291  15.572  0.00  0.00    +0.000 C 
ENDBRANCH   7  12
BRANCH   1  17
ATOM     17  C   UNL     1       1.903   8.384  19.784  0.00  0.00    +0.000 C 
ATOM     18  C   UNL     1       1.591   8.911  18.375  0.00  0.00    +0.000 C 
BRANCH  17  21
ATOM     19  C   UNL     1      -0.020  10.046  21.994  0.00  0.00    +0.000 C 
ATOM     20  C   UNL     1      -0.177   9.480  20.560  0.00  0.00    +0.000 C 
ATOM     21  N   UNL     1       0.856   8.469  20.839  0.00  0.00    +0.000 NA
ATOM     22  C   UNL     1       1.279   9.206  22.049  0.00  0.00    +0.000 C 
BRANCH  19  23
ATOM     23  O   UNL     1       0.119  11.487  22.059  0.00  0.00    +0.000 OA
BRANCH  23  28
ATOM     24  C   UNL     1      -1.799  14.276  23.591  0.00  0.00    +0.000 A 
ATOM     25  C   UNL     1      -2.961  13.578  23.932  0.00  0.00    +0.000 A 
ATOM     26  C   UNL     1      -3.085  12.227  23.614  0.00  0.00    +0.000 A 
ATOM     27  C   UNL     1      -2.033  11.571  22.975  0.00  0.00    +0.000 A 
ATOM     28  C   UNL     1      -0.854  12.251  22.655  0.00  0.00    +0.000 A 
ATOM     29  C   UNL     1      -0.742  13.611  22.954  0.00  0.00    +0.000 A 
BRANCH  24  31
ATOM     30  C   UNL     1      -1.496  15.795  25.383  0.00  0.00    +0.000 C 
ATOM     31  O   UNL     1      -1.767  15.581  24.003  0.00  0.00    +0.000 OA
ENDBRANCH  24  31
ENDBRANCH  23  28
ENDBRANCH  19  23
ENDBRANCH  17  21
ENDBRANCH   1  17
TORSDOF 6
ENDMDL
MODEL 4
REMARK VINA RESULT:      -8.1      3.511      5.431
REMARK  Name = 
REMARK  8 active torsions:
REMARK  status: ('A' for Active; 'I' for Inactive)
REMARK    1  A    between atoms: C_1  and  O_2
REMARK    2  A    between atoms: O_2  and  C_3
REMARK    3  A    between atoms: C_7  and  O_8
REMARK    4  A    between atoms: O_8  and  C_9
REMARK    5  A    between atoms: N_11  and  C_12
REMARK    6  A    between atoms: C_12  and  C_13
REMARK    7  A    between atoms: C_12  and  C_14
REMARK    8  A    between atoms: N_20  and  C_21
REMARK                            x       y       z     vdW  Elec       q    Type
REMARK                         _______ _______ _______ _____ _____    ______ ____
ROOT
ATOM      1  C   UNL     1       4.355   3.486  17.650  0.00  0.00    +0.000 A 
ATOM      2  N   UNL     1       4.812   3.840  16.475  0.00  0.00    +0.000 NA
ATOM      3  C   UNL     1       5.861   4.701  16.528  0.00  0.00    +0.000 A 
ATOM      4  C   UNL     1       6.455   5.213  17.657  0.00  0.00    +0.000 A 
ATOM      5  C   UNL     1       7.525   5.989  17.208  0.00  0.00    +0.000 A 
ATOM      6  N   UNL     1       7.606   6.004  15.872  0.00  0.00    +0.000 NA
ATOM      7  N   UNL     1       6.569   5.220  15.470  0.00  0.00    +0.000 N 
ATOM      8  C   UNL     1       5.931   4.854  18.941  0.00  0.00    +0.000 A 
ATOM      9  O   UNL     1       6.375   5.263  20.006  0.00  0.00    +0.000 OA
ATOM     10  N   UNL     1       4.864   3.979  18.850  0.00  0.00    +0.000 N 
ATOM     11  H   UNL     1       4.486   3.639  19.723  0.00  0.00    +0.000 HD
ENDROOT
BRANCH   7  12
ATOM     12  C   UNL     1       6.349   4.986  14.057  0.00  0.00    +0.000 C 
ATOM     13  C   UNL     1       7.587   5.182  13.178  0.00  0.00    +0.000 C 
ATOM     14  C   UNL     1       7.220   4.484  11.874  0.00  0.00    +0.000 C 
ATOM     15  C   UNL     1       6.292   3.337  12.266  0.00  0.00    +0.000 C 
ATOM     16  C   UNL     1       5.930   3.550  13.736  0.00  0.00    +0.000 C 
ENDBRANCH   7  12
BRANCH   1  17
ATOM     17  C   UNL     1       3.177   2.484  17.802  0.00  0.00    +0.000 C 
ATOM     18  C   UNL     1       3.651   1.245  18.578  0.00  0.00    +0.000 C 
BRANCH  17  21
ATOM     19  C   UNL     1       1.630   5.099  19.256  0.00  0.00    +0.000 C 
ATOM     20  C   UNL     1       1.924   4.619  17.812  0.00  0.00    +0.000 C 
ATOM     21  N   UNL     1       1.976   3.224  18.280  0.00  0.00    +0.000 NA
ATOM     22  C   UNL     1       2.067   3.677  19.684  0.00  0.00    +0.000 C 
BRANCH  19  23
ATOM     23  O   UNL     1       2.452   6.207  19.700  0.00  0.00    +0.000 OA
BRANCH  23  28
ATOM     24  C   UNL     1       1.301   9.702  19.187  0.00  0.00    +0.000 A 
ATOM     25  C   UNL     1       0.782   9.948  20.461  0.00  0.00    +0.000 A 
ATOM     26  C   UNL     1       0.796   8.946  21.429  0.00  0.00    +0.000 A 
ATOM     27  C   UNL     1       1.354   7.703  21.125  0.00  0.00    +0.000 A 
ATOM     28  C   UNL     1       1.904   7.455  19.863  0.00  0.00    +0.000 A 
ATOM     29  C   UNL     1       1.866   8.454  18.889  0.00  0.00    +0.000 A 
BRANCH  24  31
ATOM     30  C   UNL     1       1.159  12.055  18.950  0.00  0.00    +0.000 C 
ATOM     31  O   UNL     1       1.283  10.776  18.339  0.00  0.00    +0.000 OA
ENDBRANCH  24  31
ENDBRANCH  23  28
ENDBRANCH  19  23
ENDBRANCH  17  21
ENDBRANCH   1  17
TORSDOF 6
ENDMDL
MODEL 5
REMARK VINA RESULT:      -7.9      1.334      2.079
REMARK  Name = 
REMARK  8 active torsions:
REMARK  status: ('A' for Active; 'I' for Inactive)
REMARK    1  A    between atoms: C_1  and  O_2
REMARK    2  A    between atoms: O_2  and  C_3
REMARK    3  A    between atoms: C_7  and  O_8
REMARK    4  A    between atoms: O_8  and  C_9
REMARK    5  A    between atoms: N_11  and  C_12
REMARK    6  A    between atoms: C_12  and  C_13
REMARK    7  A    between atoms: C_12  and  C_14
REMARK    8  A    between atoms: N_20  and  C_21
REMARK                            x       y       z     vdW  Elec       q    Type
REMARK                         _______ _______ _______ _____ _____    ______ ____
ROOT
ATOM      1  C   UNL     1       2.482   6.564  19.921  0.00  0.00    +0.000 A 
ATOM      2  N   UNL     1       3.646   6.204  19.439  0.00  0.00    +0.000 NA
ATOM      3  C   UNL     1       3.884   4.870  19.514  0.00  0.00    +0.000 A 
ATOM      4  C   UNL     1       3.049   3.908  20.030  0.00  0.00    +0.000 A 
ATOM      5  C   UNL     1       3.695   2.688  19.822  0.00  0.00    +0.000 A 
ATOM      6  N   UNL     1       4.886   2.847  19.233  0.00  0.00    +0.000 NA
ATOM      7  N   UNL     1       4.993   4.193  19.064  0.00  0.00    +0.000 N 
ATOM      8  C   UNL     1       1.792   4.307  20.590  0.00  0.00    +0.000 A 
ATOM      9  O   UNL     1       0.983   3.535  21.088  0.00  0.00    +0.000 OA
ATOM     10  N   UNL     1       1.583   5.671  20.500  0.00  0.00    +0.000 N 
ATOM     11  H   UNL     1       0.688   6.011  20.822  0.00  0.00    +0.000 HD
ENDROOT
BRANCH   7  12
ATOM     12  C   UNL     1       6.170   4.747  18.426  0.00  0.00    +0.000 C 
ATOM     13  C   UNL     1       5.881   5.641  17.218  0.00  0.00    +0.000 C 
ATOM     14  C   UNL     1       7.181   6.409  17.015  0.00  0.00    +0.000 C 
ATOM     15  C   UNL     1       7.792   6.564  18.406  0.00  0.00    +0.000 C 
ATOM     16  C   UNL     1       6.981   5.667  19.342  0.00  0.00    +0.000 C 
ENDBRANCH   7  12
BRANCH   1  17
ATOM     17  C   UNL     1       2.011   8.045  19.900  0.00  0.00    +0.000 C 
ATOM     18  C   UNL     1       1.756   8.484  18.450  0.00  0.00    +0.000 C 
BRANCH  17  21
ATOM     19  C   UNL     1       0.102   9.877  21.986  0.00  0.00    +0.000 C 
ATOM     20  C   UNL     1      -0.033   9.276  20.563  0.00  0.00    +0.000 C 
ATOM     21  N   UNL     1       0.932   8.219  20.911  0.00  0.00    +0.000 NA
ATOM     22  C   UNL     1       1.349   8.969  22.115  0.00  0.00    +0.000 C 
BRANCH  19  23
ATOM     23  O   UNL     1       0.319  11.309  22.014  0.00  0.00    +0.000 OA
BRANCH  23  28
ATOM     24  C   UNL     1      -1.786  14.302  22.658  0.00  0.00    +0.000 A 
ATOM     25  C   UNL     1      -2.860  13.678  23.299  0.00  0.00    +0.000 A 
ATOM     26  C   UNL     1      -2.869  12.295  23.463  0.00  0.00    +0.000 A 
ATOM     27  C   UNL     1      -1.789  11.540  23.005  0.00  0.00    +0.000 A 
ATOM     28  C   UNL     1      -0.695  12.156  22.389  0.00  0.00    +0.000 A 
ATOM     29  C   UNL     1      -0.699  13.540  22.205  0.00  0.00    +0.000 A 
BRANCH  24  31
ATOM     30  C   UNL     1      -2.725  16.210  21.613  0.00  0.00    +0.000 C 
ATOM     31  O   UNL     1      -1.860  15.669  22.604  0.00  0.00    +0.000 OA
ENDBRANCH  24  31
ENDBRANCH  23  28
ENDBRANCH  19  23
ENDBRANCH  17  21
ENDBRANCH   1  17
TORSDOF 6
ENDMDL
MODEL 6
REMARK VINA RESULT:      -7.8      1.002      1.474
REMARK  Name = 
REMARK  8 active torsions:
REMARK  status: ('A' for Active; 'I' for Inactive)
REMARK    1  A    between atoms: C_1  and  O_2
REMARK    2  A    between atoms: O_2  and  C_3
REMARK    3  A    between atoms: C_7  and  O_8
REMARK    4  A    between atoms: O_8  and  C_9
REMARK    5  A    between atoms: N_11  and  C_12
REMARK    6  A    between atoms: C_12  and  C_13
REMARK    7  A    between atoms: C_12  and  C_14
REMARK    8  A    between atoms: N_20  and  C_21
REMARK                            x       y       z     vdW  Elec       q    Type
REMARK                         _______ _______ _______ _____ _____    ______ ____
ROOT
ATOM      1  C   UNL     1       2.409   6.706  19.786  0.00  0.00    +0.000 A 
ATOM      2  N   UNL     1       3.214   6.328  18.825  0.00  0.00    +0.000 NA
ATOM      3  C   UNL     1       3.463   4.994  18.806  0.00  0.00    +0.000 A 
ATOM      4  C   UNL     1       2.968   4.048  19.672  0.00  0.00    +0.000 A 
ATOM      5  C   UNL     1       3.446   2.820  19.212  0.00  0.00    +0.000 A 
ATOM      6  N   UNL     1       4.224   2.959  18.132  0.00  0.00    +0.000 NA
ATOM      7  N   UNL     1       4.236   4.301  17.905  0.00  0.00    +0.000 N 
ATOM      8  C   UNL     1       2.117   4.466  20.746  0.00  0.00    +0.000 A 
ATOM      9  O   UNL     1       1.635   3.710  21.579  0.00  0.00    +0.000 OA
ATOM     10  N   UNL     1       1.887   5.830  20.736  0.00  0.00    +0.000 N 
ATOM     11  H   UNL     1       1.245   6.183  21.432  0.00  0.00    +0.000 HD
ENDROOT
BRANCH   7  12
ATOM     12  C   UNL     1       4.978   4.834  16.780  0.00  0.00    +0.000 C 
ATOM     13  C   UNL     1       6.434   5.194  17.089  0.00  0.00    +0.000 C 
ATOM     14  C   UNL     1       7.079   5.306  15.714  0.00  0.00    +0.000 C 
ATOM     15  C   UNL     1       6.332   4.314  14.824  0.00  0.00    +0.000 C 
ATOM     16  C   UNL     1       5.113   3.847  15.618  0.00  0.00    +0.000 C 
ENDBRANCH   7  12
BRANCH   1  17
ATOM     17  C   UNL     1       1.978   8.189  19.958  0.00  0.00    +0.000 C 
ATOM     18  C   UNL     1       1.669   8.798  18.581  0.00  0.00    +0.000 C 
BRANCH  17  21
ATOM     19  C   UNL     1       0.032   9.851  22.148  0.00  0.00    +0.000 C 
ATOM     20  C   UNL     1      -0.131   9.223  20.741  0.00  0.00    +0.000 C 
ATOM     21  N   UNL     1       0.952   8.269  21.034  0.00  0.00    +0.000 NA
ATOM     22  C   UNL     1       1.368   9.071  22.204  0.00  0.00    +0.000 C 
BRANCH  19  23
ATOM     23  O   UNL     1       0.109  11.298  22.155  0.00  0.00    +0.000 OA
BRANCH  23  28
ATOM     24  C   UNL     1      -2.521  13.886  21.722  0.00  0.00    +0.000 A 
ATOM     25  C   UNL     1      -3.410  13.459  22.712  0.00  0.00    +0.000 A 
ATOM     26  C   UNL     1      -3.130  12.317  23.460  0.00  0.00    +0.000 A 
ATOM     27  C   UNL     1      -1.946  11.617  23.229  0.00  0.00    +0.000 A 
ATOM     28  C   UNL     1      -1.034  12.052  22.262  0.00  0.00    +0.000 A 
ATOM     29  C   UNL     1      -1.329  13.183  21.499  0.00  0.00    +0.000 A 
BRANCH  24  31
ATOM     30  C   UNL     1      -3.698  15.939  21.836  0.00  0.00    +0.000 C 
ATOM     31  O   UNL     1      -2.873  15.050  21.092  0.00  0.00    +0.000 OA
ENDBRANCH  24  31
ENDBRANCH  23  28
ENDBRANCH  19  23
ENDBRANCH  17  21
ENDBRANCH   1  17
TORSDOF 6
ENDMDL
MODEL 7
REMARK VINA RESULT:      -7.8      2.924      3.937
REMARK  Name = 
REMARK  8 active torsions:
REMARK  status: ('A' for Active; 'I' for Inactive)
REMARK    1  A    between atoms: C_1  and  O_2
REMARK    2  A    between atoms: O_2  and  C_3
REMARK    3  A    between atoms: C_7  and  O_8
REMARK    4  A    between atoms: O_8  and  C_9
REMARK    5  A    between atoms: N_11  and  C_12
REMARK    6  A    between atoms: C_12  and  C_13
REMARK    7  A    between atoms: C_12  and  C_14
REMARK    8  A    between atoms: N_20  and  C_21
REMARK                            x       y       z     vdW  Elec       q    Type
REMARK                         _______ _______ _______ _____ _____    ______ ____
ROOT
ATOM      1  C   UNL     1       4.106   5.881  17.976  0.00  0.00    +0.000 A 
ATOM      2  N   UNL     1       4.605   5.629  16.791  0.00  0.00    +0.000 NA
ATOM      3  C   UNL     1       5.889   5.187  16.818  0.00  0.00    +0.000 A 
ATOM      4  C   UNL     1       6.674   4.992  17.929  0.00  0.00    +0.000 A 
ATOM      5  C   UNL     1       7.879   4.466  17.458  0.00  0.00    +0.000 A 
ATOM      6  N   UNL     1       7.888   4.352  16.125  0.00  0.00    +0.000 NA
ATOM      7  N   UNL     1       6.665   4.812  15.746  0.00  0.00    +0.000 N 
ATOM      8  C   UNL     1       6.139   5.302  19.221  0.00  0.00    +0.000 A 
ATOM      9  O   UNL     1       6.756   5.179  20.271  0.00  0.00    +0.000 OA
ATOM     10  N   UNL     1       4.833   5.752  19.157  0.00  0.00    +0.000 N 
ATOM     11  H   UNL     1       4.375   5.931  20.040  0.00  0.00    +0.000 HD
ENDROOT
BRANCH   7  12
ATOM     12  C   UNL     1       6.302   4.821  14.343  0.00  0.00    +0.000 C 
ATOM     13  C   UNL     1       7.488   4.898  13.378  0.00  0.00    +0.000 C 
ATOM     14  C   UNL     1       6.896   4.468  12.042  0.00  0.00    +0.000 C 
ATOM     15  C   UNL     1       5.787   3.475  12.380  0.00  0.00    +0.000 C 
ATOM     16  C   UNL     1       5.581   3.548  13.893  0.00  0.00    +0.000 C 
ENDBRANCH   7  12
BRANCH   1  17
ATOM     17  C   UNL     1       2.641   6.369  18.159  0.00  0.00    +0.000 C 
ATOM     18  C   UNL     1       1.839   5.312  18.933  0.00  0.00    +0.000 C 
BRANCH  17  21
ATOM     19  C   UNL     1       1.341   9.454  18.528  0.00  0.00    +0.000 C 
ATOM     20  C   UNL     1       1.435   8.158  19.372  0.00  0.00    +0.000 C 
ATOM     21  N   UNL     1       2.662   7.772  18.655  0.00  0.00    +0.000 NA
ATOM     22  C   UNL     1       2.395   8.785  17.612  0.00  0.00    +0.000 C 
BRANCH  19  23
ATOM     23  O   UNL     1       0.032   9.707  17.958  0.00  0.00    +0.000 OA
BRANCH  23  28
ATOM     24  C   UNL     1      -2.928  11.744  18.902  0.00  0.00    +0.000 A 
ATOM     25  C   UNL     1      -2.319  12.593  19.830  0.00  0.00    +0.000 A 
ATOM     26  C   UNL     1      -0.969  12.442  20.137  0.00  0.00    +0.000 A 
ATOM     27  C   UNL     1      -0.223  11.453  19.495  0.00  0.00    +0.000 A 
ATOM     28  C   UNL     1      -0.814  10.616  18.543  0.00  0.00    +0.000 A 
ATOM     29  C   UNL     1      -2.173  10.755  18.255  0.00  0.00    +0.000 A 
BRANCH  24  31
ATOM     30  C   UNL     1      -5.010  10.956  18.094  0.00  0.00    +0.000 C 
ATOM     31  O   UNL     1      -4.242  12.022  18.638  0.00  0.00    +0.000 OA
ENDBRANCH  24  31
ENDBRANCH  23  28
ENDBRANCH  19  23
ENDBRANCH  17  21
ENDBRANCH   1  17
TORSDOF 6
ENDMDL
MODEL 8
REMARK VINA RESULT:      -7.8      1.275      1.625
REMARK  Name = 
REMARK  8 active torsions:
REMARK  status: ('A' for Active; 'I' for Inactive)
REMARK    1  A    between atoms: C_1  and  O_2
REMARK    2  A    between atoms: O_2  and  C_3
REMARK    3  A    between atoms: C_7  and  O_8
REMARK    4  A    between atoms: O_8  and  C_9
REMARK    5  A    between atoms: N_11  and  C_12
REMARK    6  A    between atoms: C_12  and  C_13
REMARK    7  A    between atoms: C_12  and  C_14
REMARK    8  A    between atoms: N_20  and  C_21
REMARK                            x       y       z     vdW  Elec       q    Type
REMARK                         _______ _______ _______ _____ _____    ______ ____
ROOT
ATOM      1  C   UNL     1       2.462   6.558  20.009  0.00  0.00    +0.000 A 
ATOM      2  N   UNL     1       3.629   6.256  19.496  0.00  0.00    +0.000 NA
ATOM      3  C   UNL     1       3.897   4.925  19.484  0.00  0.00    +0.000 A 
ATOM      4  C   UNL     1       3.088   3.914  19.945  0.00  0.00    +0.000 A 
ATOM      5  C   UNL     1       3.759   2.724  19.655  0.00  0.00    +0.000 A 
ATOM      6  N   UNL     1       4.940   2.947  19.068  0.00  0.00    +0.000 NA
ATOM      7  N   UNL     1       5.016   4.303  18.983  0.00  0.00    +0.000 N 
ATOM      8  C   UNL     1       1.828   4.248  20.539  0.00  0.00    +0.000 A 
ATOM      9  O   UNL     1       1.040   3.429  20.993  0.00  0.00    +0.000 OA
ATOM     10  N   UNL     1       1.589   5.611  20.537  0.00  0.00    +0.000 N 
ATOM     11  H   UNL     1       0.689   5.909  20.887  0.00  0.00    +0.000 HD
ENDROOT
BRANCH   7  12
ATOM     12  C   UNL     1       6.175   4.922  18.373  0.00  0.00    +0.000 C 
ATOM     13  C   UNL     1       5.853   6.055  17.394  0.00  0.00    +0.000 C 
ATOM     14  C   UNL     1       7.179   6.790  17.241  0.00  0.00    +0.000 C 
ATOM     15  C   UNL     1       7.897   6.632  18.579  0.00  0.00    +0.000 C 
ATOM     16  C   UNL     1       7.104   5.601  19.382  0.00  0.00    +0.000 C 
ENDBRANCH   7  12
BRANCH   1  17
ATOM     17  C   UNL     1       1.958   8.027  20.086  0.00  0.00    +0.000 C 
ATOM     18  C   UNL     1       1.574   8.514  18.680  0.00  0.00    +0.000 C 
BRANCH  17  21
ATOM     19  C   UNL     1       0.006   9.748  22.224  0.00  0.00    +0.000 C 
ATOM     20  C   UNL     1      -0.171   9.017  20.869  0.00  0.00    +0.000 C 
ATOM     21  N   UNL     1       0.964   8.136  21.189  0.00  0.00    +0.000 NA
ATOM     22  C   UNL     1       1.379   9.035  22.287  0.00  0.00    +0.000 C 
BRANCH  19  23
ATOM     23  O   UNL     1       0.014  11.194  22.129  0.00  0.00    +0.000 OA
BRANCH  23  28
ATOM     24  C   UNL     1      -3.303  12.672  22.912  0.00  0.00    +0.000 A 
ATOM     25  C   UNL     1      -3.534  13.337  21.705  0.00  0.00    +0.000 A 
ATOM     26  C   UNL     1      -2.577  13.306  20.694  0.00  0.00    +0.000 A 
ATOM     27  C   UNL     1      -1.397  12.586  20.885  0.00  0.00    +0.000 A 
ATOM     28  C   UNL     1      -1.167  11.892  22.077  0.00  0.00    +0.000 A 
ATOM     29  C   UNL     1      -2.119  11.944  23.097  0.00  0.00    +0.000 A 
BRANCH  24  31
ATOM     30  C   UNL     1      -5.153  13.889  23.754  0.00  0.00    +0.000 C 
ATOM     31  O   UNL     1      -4.337  12.726  23.809  0.00  0.00    +0.000 OA
ENDBRANCH  24  31
ENDBRANCH  23  28
ENDBRANCH  19  23
ENDBRANCH  17  21
ENDBRANCH   1  17
TORSDOF 6
ENDMDL
MODEL 9
REMARK VINA RESULT:      -7.7      2.274      3.479
REMARK  Name = 
REMARK  8 active torsions:
REMARK  status: ('A' for Active; 'I' for Inactive)
REMARK    1  A    between atoms: C_1  and  O_2
REMARK    2  A    between atoms: O_2  and  C_3
REMARK    3  A    between atoms: C_7  and  O_8
REMARK    4  A    between atoms: O_8  and  C_9
REMARK    5  A    between atoms: N_11  and  C_12
REMARK    6  A    between atoms: C_12  and  C_13
REMARK    7  A    between atoms: C_12  and  C_14
REMARK    8  A    between atoms: N_20  and  C_21
REMARK                            x       y       z     vdW  Elec       q    Type
REMARK                         _______ _______ _______ _____ _____    ______ ____
ROOT
ATOM      1  C   UNL     1       4.116   5.982  17.923  0.00  0.00    +0.000 A 
ATOM      2  N   UNL     1       4.623   5.712  16.746  0.00  0.00    +0.000 NA
ATOM      3  C   UNL     1       5.891   5.230  16.790  0.00  0.00    +0.000 A 
ATOM      4  C   UNL     1       6.656   5.014  17.912  0.00  0.00    +0.000 A 
ATOM      5  C   UNL     1       7.850   4.450  17.459  0.00  0.00    +0.000 A 
ATOM      6  N   UNL     1       7.873   4.333  16.126  0.00  0.00    +0.000 NA
ATOM      7  N   UNL     1       6.669   4.829  15.730  0.00  0.00    +0.000 N 
ATOM      8  C   UNL     1       6.114   5.343  19.196  0.00  0.00    +0.000 A 
ATOM      9  O   UNL     1       6.713   5.204  20.255  0.00  0.00    +0.000 OA
ATOM     10  N   UNL     1       4.823   5.833  19.114  0.00  0.00    +0.000 N 
ATOM     11  H   UNL     1       4.360   6.028  19.991  0.00  0.00    +0.000 HD
ENDROOT
BRANCH   7  12
ATOM     12  C   UNL     1       6.326   4.845  14.323  0.00  0.00    +0.000 C 
ATOM     13  C   UNL     1       7.526   4.857  13.373  0.00  0.00    +0.000 C 
ATOM     14  C   UNL     1       6.931   4.448  12.031  0.00  0.00    +0.000 C 
ATOM     15  C   UNL     1       5.770   3.512  12.362  0.00  0.00    +0.000 C 
ATOM     16  C   UNL     1       5.549   3.606  13.872  0.00  0.00    +0.000 C 
ENDBRANCH   7  12
BRANCH   1  17
ATOM     17  C   UNL     1       2.665   6.515  18.086  0.00  0.00    +0.000 C 
ATOM     18  C   UNL     1       1.820   5.484  18.851  0.00  0.00    +0.000 C 
BRANCH  17  21
ATOM     19  C   UNL     1       1.278   9.433  19.040  0.00  0.00    +0.000 C 
ATOM     20  C   UNL     1       1.843   8.168  19.736  0.00  0.00    +0.000 C 
ATOM     21  N   UNL     1       2.722   7.918  18.581  0.00  0.00    +0.000 NA
ATOM     22  C   UNL     1       1.952   8.878  17.762  0.00  0.00    +0.000 C 
BRANCH  19  23
ATOM     23  O   UNL     1      -0.169   9.523  19.041  0.00  0.00    +0.000 OA
BRANCH  23  28
ATOM     24  C   UNL     1      -1.282  12.002  21.574  0.00  0.00    +0.000 A 
ATOM     25  C   UNL     1      -2.261  12.656  20.821  0.00  0.00    +0.000 A 
ATOM     26  C   UNL     1      -2.494  12.282  19.500  0.00  0.00    +0.000 A 
ATOM     27  C   UNL     1      -1.760  11.236  18.940  0.00  0.00    +0.000 A 
ATOM     28  C   UNL     1      -0.798  10.554  19.693  0.00  0.00    +0.000 A 
ATOM     29  C   UNL     1      -0.551  10.946  21.010  0.00  0.00    +0.000 A 
BRANCH  24  31
ATOM     30  C   UNL     1      -2.282  13.161  23.382  0.00  0.00    +0.000 C 
ATOM     31  O   UNL     1      -1.181  12.416  22.876  0.00  0.00    +0.000 OA
ENDBRANCH  24  31
ENDBRANCH  23  28
ENDBRANCH  19  23
ENDBRANCH  17  21
ENDBRANCH   1  17
TORSDOF 6
ENDMDL
