MODEL 1
REMARK VINA RESULT:      -8.2      0.000      0.000
REMARK  Name = 
REMARK  8 active torsions:
REMARK  status: ('A' for Active; 'I' for Inactive)
REMARK    1  A    between atoms: N_2  and  C_3
REMARK    2  A    between atoms: C_5  and  N_6
REMARK    3  A    between atoms: N_6  and  C_7
REMARK    4  A    between atoms: N_6  and  C_8
REMARK    5  A    between atoms: C_14  and  N_15
REMARK    6  A    between atoms: C_17  and  C_18
REMARK    7  A    between atoms: N_22  and  C_23
REMARK    8  A    between atoms: C_26  and  C_27
REMARK                            x       y       z     vdW  Elec       q    Type
REMARK                         _______ _______ _______ _____ _____    ______ ____
ROOT
ATOM      1  N   UNL     1      -0.318  10.166  19.193  0.00  0.00    +0.000 N 
ATOM      2  C   UNL     1      -0.590  10.494  20.488  0.00  0.00    +0.000 A 
ATOM      3  C   UNL     1       0.222   9.692  21.275  0.00  0.00    +0.000 A 
ATOM      4  C   UNL     1       0.964   8.915  20.344  0.00  0.00    +0.000 A 
ATOM      5  N   UNL     1       1.892   7.985  20.679  0.00  0.00    +0.000 N 
ATOM      6  N   UNL     1       0.626   9.225  19.088  0.00  0.00    +0.000 NA
ATOM      7  H   UNL     1       2.263   7.989  21.628  0.00  0.00    +0.000 HD
ENDROOT
BRANCH   1  13
ATOM      8  C   UNL     1      -2.204  10.057  17.560  0.00  0.00    +0.000 C 
ATOM      9  C   UNL     1      -3.341  10.353  18.543  0.00  0.00    +0.000 C 
ATOM     10  C   UNL     1      -3.582  11.837  18.903  0.00  0.00    +0.000 C 
ATOM     11  C   UNL     1      -2.232  12.592  19.074  0.00  0.00    +0.000 C 
ATOM     12  C   UNL     1      -1.138  12.248  18.065  0.00  0.00    +0.000 C 
ATOM     13  C   UNL     1      -0.888  10.739  17.970  0.00  0.00    +0.000 C 
BRANCH   8  15
ATOM     14  C   UNL     1      -2.888  10.812  15.159  0.00  0.00    +0.000 C 
ATOM     15  N   UNL     1      -2.585  10.471  16.240  0.00  0.00    +0.000 NA
ENDBRANCH   8  15
BRANCH  10  16
ATOM     16  N   UNL     1      -4.414  11.989  20.152  0.00  0.00    +0.000 NA
ATOM     17  C   UNL     1      -3.906  13.119  20.964  0.00  0.00    +0.000 C 
BRANCH  16  18
ATOM     18  C   UNL     1      -5.848  12.306  19.879  0.00  0.00    +0.000 C 
ATOM     19  C   UNL     1      -6.823  11.116  19.967  0.00  0.00    +0.000 C 
ATOM     20  O   UNL     1      -7.704  11.871  20.845  0.00  0.00    +0.000 OA
ATOM     21  C   UNL     1      -6.567  12.711  21.200  0.00  0.00    +0.000 C 
ENDBRANCH  16  18
ENDBRANCH  10  16
ENDBRANCH   1  13
BRANCH   5  22
ATOM     22  C   UNL     1       2.223   6.810  19.967  0.00  0.00    +0.000 A 
ATOM     23  C   UNL     1       2.876   6.901  18.733  0.00  0.00    +0.000 A 
ATOM     24  C   UNL     1       3.190   5.750  17.997  0.00  0.00    +0.000 A 
ATOM     25  C   UNL     1       2.865   4.476  18.485  0.00  0.00    +0.000 A 
ATOM     26  C   UNL     1       2.187   4.381  19.706  0.00  0.00    +0.000 A 
ATOM     27  C   UNL     1       1.861   5.535  20.426  0.00  0.00    +0.000 A 
BRANCH  25  28
ATOM     28  C   UNL     1       3.243   3.225  17.732  0.00  0.00    +0.000 C 
ATOM     29  F   UNL     1       3.949   3.467  16.591  0.00  0.00    +0.000 F 
ATOM     30  F   UNL     1       4.020   2.386  18.474  0.00  0.00    +0.000 F 
ATOM     31  F   UNL     1       2.162   2.490  17.350  0.00  0.00    +0.000 F 
ENDBRANCH  25  28
ENDBRANCH   5  22
BRANCH   3  32
ATOM     32  C   UNL     1       0.273   9.670  22.720  0.00  0.00    +0.000 C 
ATOM     33  N   UNL     1      -0.942   9.687  23.351  0.00  0.00    +0.000 N 
ATOM     34  O   UNL     1       1.317   9.608  23.359  0.00  0.00    +0.000 OA
ATOM     35  H   UNL     1      -1.790   9.454  22.855  0.00  0.00    +0.000 HD
ATOM     36  H   UNL     1      -0.935   9.567  24.355  0.00  0.00    +0.000 HD
ENDBRANCH   3  32
TORSDOF 7
ENDMDL
MODEL 2
REMARK VINA RESULT:      -8.2      0.526      1.253
REMARK  Name = 
REMARK  8 active torsions:
REMARK  status: ('A' for Active; 'I' for Inactive)
REMARK    1  A    between atoms: N_2  and  C_3
REMARK    2  A    between atoms: C_5  and  N_6
REMARK    3  A    between atoms: N_6  and  C_7
REMARK    4  A    between atoms: N_6  and  C_8
REMARK    5  A    between atoms: C_14  and  N_15
REMARK    6  A    between atoms: C_17  and  C_18
REMARK    7  A    between atoms: N_22  and  C_23
REMARK    8  A    between atoms: C_26  and  C_27
REMARK                            x       y       z     vdW  Elec       q    Type
REMARK                         _______ _______ _______ _____ _____    ______ ____
ROOT
ATOM      1  N   UNL     1      -0.329  10.187  19.188  0.00  0.00    +0.000 N 
ATOM      2  C   UNL     1      -0.591  10.534  20.481  0.00  0.00    +0.000 A 
ATOM      3  C   UNL     1       0.209   9.726  21.273  0.00  0.00    +0.000 A 
ATOM      4  C   UNL     1       0.934   8.925  20.349  0.00  0.00    +0.000 A 
ATOM      5  N   UNL     1       1.846   7.983  20.691  0.00  0.00    +0.000 N 
ATOM      6  N   UNL     1       0.597   9.229  19.090  0.00  0.00    +0.000 NA
ATOM      7  H   UNL     1       2.220   7.990  21.638  0.00  0.00    +0.000 HD
ENDROOT
BRANCH   1  13
ATOM      8  C   UNL     1      -2.207  10.073  17.545  0.00  0.00    +0.000 C 
ATOM      9  C   UNL     1      -3.350  10.370  18.522  0.00  0.00    +0.000 C 
ATOM     10  C   UNL     1      -3.594  11.855  18.878  0.00  0.00    +0.000 C 
ATOM     11  C   UNL     1      -2.245  12.611  19.054  0.00  0.00    +0.000 C 
ATOM     12  C   UNL     1      -1.145  12.266  18.052  0.00  0.00    +0.000 C 
ATOM     13  C   UNL     1      -0.894  10.757  17.961  0.00  0.00    +0.000 C 
BRANCH   8  15
ATOM     14  C   UNL     1      -2.891  10.811  15.139  0.00  0.00    +0.000 C 
ATOM     15  N   UNL     1      -2.581  10.484  16.222  0.00  0.00    +0.000 NA
ENDBRANCH   8  15
BRANCH  10  16
ATOM     16  N   UNL     1      -4.432  12.009  20.121  0.00  0.00    +0.000 NA
ATOM     17  C   UNL     1      -3.787  12.964  21.052  0.00  0.00    +0.000 C 
BRANCH  16  18
ATOM     18  C   UNL     1      -5.793  12.565  19.858  0.00  0.00    +0.000 C 
ATOM     19  C   UNL     1      -6.132  12.827  18.378  0.00  0.00    +0.000 C 
ATOM     20  O   UNL     1      -7.384  12.097  18.509  0.00  0.00    +0.000 OA
ATOM     21  C   UNL     1      -6.815  11.406  19.659  0.00  0.00    +0.000 C 
ENDBRANCH  16  18
ENDBRANCH  10  16
ENDBRANCH   1  13
BRANCH   5  22
ATOM     22  C   UNL     1       2.153   6.794  19.990  0.00  0.00    +0.000 A 
ATOM     23  C   UNL     1       1.761   5.555  20.510  0.00  0.00    +0.000 A 
ATOM     24  C   UNL     1       2.077   4.363  19.845  0.00  0.00    +0.000 A 
ATOM     25  C   UNL     1       2.788   4.383  18.635  0.00  0.00    +0.000 A 
ATOM     26  C   UNL     1       3.205   5.618  18.125  0.00  0.00    +0.000 A 
ATOM     27  C   UNL     1       2.901   6.802  18.804  0.00  0.00    +0.000 A 
BRANCH  25  28
ATOM     28  C   UNL     1       3.090   3.112  17.879  0.00  0.00    +0.000 C 
ATOM     29  F   UNL     1       4.035   2.333  18.477  0.00  0.00    +0.000 F 
ATOM     30  F   UNL     1       1.992   2.317  17.739  0.00  0.00    +0.000 F 
ATOM     31  F   UNL     1       3.545   3.344  16.616  0.00  0.00    +0.000 F 
ENDBRANCH  25  28
ENDBRANCH   5  22
BRANCH   3  32
ATOM     32  C   UNL     1       0.265   9.719  22.718  0.00  0.00    +0.000 C 
ATOM     33  N   UNL     1      -0.944   9.820  23.353  0.00  0.00    +0.000 N 
ATOM     34  O   UNL     1       1.305   9.599  23.355  0.00  0.00    +0.000 OA
ATOM     35  H   UNL     1      -1.807   9.634  22.863  0.00  0.00    +0.000 HD
ATOM     36  H   UNL     1      -0.941   9.712  24.358  0.00  0.00    +0.000 HD
ENDBRANCH   3  32
TORSDOF 7
ENDMDL
MODEL 3
REMARK VINA RESULT:      -8.1      0.876      1.020
REMARK  Name = 
REMARK  8 active torsions:
REMARK  status: ('A' for Active; 'I' for Inactive)
REMARK    1  A    between atoms: N_2  and  C_3
REMARK    2  A    between atoms: C_5  and  N_6
REMARK    3  A    between atoms: N_6  and  C_7
REMARK    4  A    between atoms: N_6  and  C_8
REMARK    5  A    between atoms: C_14  and  N_15
REMARK    6  A    between atoms: C_17  and  C_18
REMARK    7  A    between atoms: N_22  and  C_23
REMARK    8  A    between atoms: C_26  and  C_27
REMARK                            x       y       z     vdW  Elec       q    Type
REMARK                         _______ _______ _______ _____ _____    ______ ____
ROOT
ATOM      1  N   UNL     1      -0.539  10.219  19.053  0.00  0.00    +0.000 N 
ATOM      2  C   UNL     1      -0.819  10.654  20.315  0.00  0.00    +0.000 A 
ATOM      3  C   UNL     1      -0.021   9.911  21.171  0.00  0.00    +0.000 A 
ATOM      4  C   UNL     1       0.720   9.053  20.314  0.00  0.00    +0.000 A 
ATOM      5  N   UNL     1       1.636   8.145  20.732  0.00  0.00    +0.000 N 
ATOM      6  N   UNL     1       0.396   9.264  19.033  0.00  0.00    +0.000 NA
ATOM      7  H   UNL     1       1.999   8.223  21.680  0.00  0.00    +0.000 HD
ENDROOT
BRANCH   1  13
ATOM      8  C   UNL     1      -2.261   9.825  17.288  0.00  0.00    +0.000 C 
ATOM      9  C   UNL     1      -3.500   9.955  18.180  0.00  0.00    +0.000 C 
ATOM     10  C   UNL     1      -3.982  11.389  18.498  0.00  0.00    +0.000 C 
ATOM     11  C   UNL     1      -2.774  12.335  18.756  0.00  0.00    +0.000 C 
ATOM     12  C   UNL     1      -1.569  12.152  17.835  0.00  0.00    +0.000 C 
ATOM     13  C   UNL     1      -1.094  10.696  17.783  0.00  0.00    +0.000 C 
BRANCH   8  15
ATOM     14  C   UNL     1      -2.881  10.449  14.832  0.00  0.00    +0.000 C 
ATOM     15  N   UNL     1      -2.599  10.172  15.936  0.00  0.00    +0.000 NA
ENDBRANCH   8  15
BRANCH  10  16
ATOM     16  N   UNL     1      -4.919  11.423  19.679  0.00  0.00    +0.000 NA
ATOM     17  C   UNL     1      -4.728  12.679  20.440  0.00  0.00    +0.000 C 
BRANCH  16  18
ATOM     18  C   UNL     1      -6.363  11.402  19.297  0.00  0.00    +0.000 C 
ATOM     19  C   UNL     1      -7.142  12.705  19.562  0.00  0.00    +0.000 C 
ATOM     20  O   UNL     1      -7.656  12.703  18.200  0.00  0.00    +0.000 OA
ATOM     21  C   UNL     1      -6.531  11.860  17.818  0.00  0.00    +0.000 C 
ENDBRANCH  16  18
ENDBRANCH  10  16
ENDBRANCH   1  13
BRANCH   5  22
ATOM     22  C   UNL     1       1.961   6.913  20.120  0.00  0.00    +0.000 A 
ATOM     23  C   UNL     1       2.578   6.897  18.864  0.00  0.00    +0.000 A 
ATOM     24  C   UNL     1       2.886   5.687  18.228  0.00  0.00    +0.000 A 
ATOM     25  C   UNL     1       2.589   4.459  18.839  0.00  0.00    +0.000 A 
ATOM     26  C   UNL     1       1.947   4.470  20.083  0.00  0.00    +0.000 A 
ATOM     27  C   UNL     1       1.627   5.682  20.704  0.00  0.00    +0.000 A 
BRANCH  25  28
ATOM     28  C   UNL     1       2.961   3.148  18.193  0.00  0.00    +0.000 C 
ATOM     29  F   UNL     1       2.832   3.153  16.836  0.00  0.00    +0.000 F 
ATOM     30  F   UNL     1       4.255   2.796  18.439  0.00  0.00    +0.000 F 
ATOM     31  F   UNL     1       2.202   2.107  18.634  0.00  0.00    +0.000 F 
ENDBRANCH  25  28
ENDBRANCH   5  22
BRANCH   3  32
ATOM     32  C   UNL     1       0.018  10.007  22.614  0.00  0.00    +0.000 C 
ATOM     33  N   UNL     1      -1.121  10.487  23.201  0.00  0.00    +0.000 N 
ATOM     34  O   UNL     1       0.979   9.658  23.289  0.00  0.00    +0.000 OA
ATOM     35  H   UNL     1      -1.998  10.506  22.701  0.00  0.00    +0.000 HD
ATOM     36  H   UNL     1      -1.156  10.465  24.212  0.00  0.00    +0.000 HD
ENDBRANCH   3  32
TORSDOF 7
ENDMDL
MODEL 4
REMARK VINA RESULT:      -8.0      0.693      1.328
REMARK  Name = 
REMARK  8 active torsions:
REMARK  status: ('A' for Active; 'I' for Inactive)
REMARK    1  A    between atoms: N_2  and  C_3
REMARK    2  A    between atoms: C_5  and  N_6
REMARK    3  A    between atoms: N_6  and  C_7
REMARK    4  A    between atoms: N_6  and  C_8
REMARK    5  A    between atoms: C_14  and  N_15
REMARK    6  A    between atoms: C_17  and  C_18
REMARK    7  A    between atoms: N_22  and  C_23
REMARK    8  A    between atoms: C_26  and  C_27
REMARK                            x       y       z     vdW  Elec       q    Type
REMARK                         _______ _______ _______ _____ _____    ______ ____
ROOT
ATOM      1  N   UNL     1      -0.249  10.103  19.234  0.00  0.00    +0.000 N 
ATOM      2  C   UNL     1      -0.498  10.459  20.526  0.00  0.00    +0.000 A 
ATOM      3  C   UNL     1       0.289   9.638  21.318  0.00  0.00    +0.000 A 
ATOM      4  C   UNL     1       0.992   8.819  20.393  0.00  0.00    +0.000 A 
ATOM      5  N   UNL     1       1.886   7.859  20.734  0.00  0.00    +0.000 N 
ATOM      6  N   UNL     1       0.656   9.125  19.135  0.00  0.00    +0.000 NA
ATOM      7  H   UNL     1       2.265   7.862  21.679  0.00  0.00    +0.000 HD
ENDROOT
BRANCH   1  13
ATOM      8  C   UNL     1      -2.179  10.083  17.648  0.00  0.00    +0.000 C 
ATOM      9  C   UNL     1      -3.267  10.488  18.647  0.00  0.00    +0.000 C 
ATOM     10  C   UNL     1      -3.393  11.995  18.968  0.00  0.00    +0.000 C 
ATOM     11  C   UNL     1      -1.988  12.656  19.085  0.00  0.00    +0.000 C 
ATOM     12  C   UNL     1      -0.947  12.206  18.063  0.00  0.00    +0.000 C 
ATOM     13  C   UNL     1      -0.808  10.680  18.008  0.00  0.00    +0.000 C 
BRANCH   8  15
ATOM     14  C   UNL     1      -2.867  10.818  15.242  0.00  0.00    +0.000 C 
ATOM     15  N   UNL     1      -2.562  10.485  16.325  0.00  0.00    +0.000 NA
ENDBRANCH   8  15
BRANCH  10  16
ATOM     16  N   UNL     1      -4.181  12.243  20.230  0.00  0.00    +0.000 NA
ATOM     17  C   UNL     1      -3.319  12.890  21.246  0.00  0.00    +0.000 C 
BRANCH  16  18
ATOM     18  C   UNL     1      -5.338  13.167  20.039  0.00  0.00    +0.000 C 
ATOM     19  C   UNL     1      -6.646  12.752  20.741  0.00  0.00    +0.000 C 
ATOM     20  O   UNL     1      -6.778  14.075  21.332  0.00  0.00    +0.000 OA
ATOM     21  C   UNL     1      -5.343  14.255  21.154  0.00  0.00    +0.000 C 
ENDBRANCH  16  18
ENDBRANCH  10  16
ENDBRANCH   1  13
BRANCH   5  22
ATOM     22  C   UNL     1       2.165   6.661  20.036  0.00  0.00    +0.000 A 
ATOM     23  C   UNL     1       1.709   5.437  20.538  0.00  0.00    +0.000 A 
ATOM     24  C   UNL     1       1.995   4.236  19.876  0.00  0.00    +0.000 A 
ATOM     25  C   UNL     1       2.741   4.232  18.687  0.00  0.00    +0.000 A 
ATOM     26  C   UNL     1       3.222   5.451  18.196  0.00  0.00    +0.000 A 
ATOM     27  C   UNL     1       2.947   6.644  18.872  0.00  0.00    +0.000 A 
BRANCH  25  28
ATOM     28  C   UNL     1       3.013   2.954  17.933  0.00  0.00    +0.000 C 
ATOM     29  F   UNL     1       2.597   1.834  18.590  0.00  0.00    +0.000 F 
ATOM     30  F   UNL     1       2.391   2.922  16.721  0.00  0.00    +0.000 F 
ATOM     31  F   UNL     1       4.337   2.762  17.677  0.00  0.00    +0.000 F 
ENDBRANCH  25  28
ENDBRANCH   5  22
BRANCH   3  32
ATOM     32  C   UNL     1       0.352   9.634  22.763  0.00  0.00    +0.000 C 
ATOM     33  N   UNL     1      -0.858   9.684  23.403  0.00  0.00    +0.000 N 
ATOM     34  O   UNL     1       1.399   9.560  23.395  0.00  0.00    +0.000 OA
ATOM     35  H   UNL     1      -1.714   9.460  22.917  0.00  0.00    +0.000 HD
ATOM     36  H   UNL     1      -0.845   9.577  24.409  0.00  0.00    +0.000 HD
ENDBRANCH   3  32
TORSDOF 7
ENDMDL
MODEL 5
REMARK VINA RESULT:      -7.8      1.420      1.808
REMARK  Name = 
REMARK  8 active torsions:
REMARK  status: ('A' for Active; 'I' for Inactive)
REMARK    1  A    between atoms: N_2  and  C_3
REMARK    2  A    between atoms: C_5  and  N_6
REMARK    3  A    between atoms: N_6  and  C_7
REMARK    4  A    between atoms: N_6  and  C_8
REMARK    5  A    between atoms: C_14  and  N_15
REMARK    6  A    between atoms: C_17  and  C_18
REMARK    7  A    between atoms: N_22  and  C_23
REMARK    8  A    between atoms: C_26  and  C_27
REMARK                            x       y       z     vdW  Elec       q    Type
REMARK                         _______ _______ _______ _____ _____    ______ ____
ROOT
ATOM      1  N   UNL     1      -0.127  10.162  19.506  0.00  0.00    +0.000 N 
ATOM      2  C   UNL     1      -0.301  10.470  20.823  0.00  0.00    +0.000 A 
ATOM      3  C   UNL     1       0.471   9.570  21.541  0.00  0.00    +0.000 A 
ATOM      4  C   UNL     1       1.089   8.760  20.550  0.00  0.00    +0.000 A 
ATOM      5  N   UNL     1       1.941   7.738  20.807  0.00  0.00    +0.000 N 
ATOM      6  N   UNL     1       0.717   9.143  19.323  0.00  0.00    +0.000 NA
ATOM      7  H   UNL     1       2.359   7.676  21.734  0.00  0.00    +0.000 HD
ENDROOT
BRANCH   1  13
ATOM      8  C   UNL     1      -2.230  10.653  18.250  0.00  0.00    +0.000 C 
ATOM      9  C   UNL     1      -2.960  11.411  19.364  0.00  0.00    +0.000 C 
ATOM     10  C   UNL     1      -2.586  12.898  19.556  0.00  0.00    +0.000 C 
ATOM     11  C   UNL     1      -1.053  13.110  19.389  0.00  0.00    +0.000 C 
ATOM     12  C   UNL     1      -0.385  12.323  18.264  0.00  0.00    +0.000 C 
ATOM     13  C   UNL     1      -0.704  10.826  18.333  0.00  0.00    +0.000 C 
BRANCH   8  15
ATOM     14  C   UNL     1      -3.097  11.461  15.927  0.00  0.00    +0.000 C 
ATOM     15  N   UNL     1      -2.709  11.093  16.971  0.00  0.00    +0.000 NA
ENDBRANCH   8  15
BRANCH  10  16
ATOM     16  N   UNL     1      -3.032  13.426  20.896  0.00  0.00    +0.000 NA
ATOM     17  C   UNL     1      -4.162  14.368  20.718  0.00  0.00    +0.000 C 
BRANCH  16  18
ATOM     18  C   UNL     1      -3.537  12.365  21.818  0.00  0.00    +0.000 C 
ATOM     19  C   UNL     1      -2.911  12.353  23.227  0.00  0.00    +0.000 C 
ATOM     20  O   UNL     1      -4.231  12.323  23.839  0.00  0.00    +0.000 OA
ATOM     21  C   UNL     1      -4.772  12.888  22.610  0.00  0.00    +0.000 C 
ENDBRANCH  16  18
ENDBRANCH  10  16
ENDBRANCH   1  13
BRANCH   5  22
ATOM     22  C   UNL     1       2.124   6.562  20.044  0.00  0.00    +0.000 A 
ATOM     23  C   UNL     1       1.643   5.338  20.522  0.00  0.00    +0.000 A 
ATOM     24  C   UNL     1       1.836   4.155  19.794  0.00  0.00    +0.000 A 
ATOM     25  C   UNL     1       2.508   4.172  18.563  0.00  0.00    +0.000 A 
ATOM     26  C   UNL     1       3.014   5.390  18.095  0.00  0.00    +0.000 A 
ATOM     27  C   UNL     1       2.833   6.563  18.835  0.00  0.00    +0.000 A 
BRANCH  25  28
ATOM     28  C   UNL     1       2.677   2.918  17.742  0.00  0.00    +0.000 C 
ATOM     29  F   UNL     1       2.621   3.135  16.397  0.00  0.00    +0.000 F 
ATOM     30  F   UNL     1       3.873   2.305  17.968  0.00  0.00    +0.000 F 
ATOM     31  F   UNL     1       1.723   1.981  18.005  0.00  0.00    +0.000 F 
ENDBRANCH  25  28
ENDBRANCH   5  22
BRANCH   3  32
ATOM     32  C   UNL     1       0.594   9.495  22.980  0.00  0.00    +0.000 C 
ATOM     33  N   UNL     1      -0.589   9.471  23.670  0.00  0.00    +0.000 N 
ATOM     34  O   UNL     1       1.669   9.424  23.565  0.00  0.00    +0.000 OA
ATOM     35  H   UNL     1      -1.457   9.244  23.207  0.00  0.00    +0.000 HD
ATOM     36  H   UNL     1      -0.531   9.314  24.667  0.00  0.00    +0.000 HD
ENDBRANCH   3  32
TORSDOF 7
ENDMDL
MODEL 6
REMARK VINA RESULT:      -7.8      1.450      1.789
REMARK  Name = 
REMARK  8 active torsions:
REMARK  status: ('A' for Active; 'I' for Inactive)
REMARK    1  A    between atoms: N_2  and  C_3
REMARK    2  A    between atoms: C_5  and  N_6
REMARK    3  A    between atoms: N_6  and  C_7
REMARK    4  A    between atoms: N_6  and  C_8
REMARK    5  A    between atoms: C_14  and  N_15
REMARK    6  A    between atoms: C_17  and  C_18
REMARK    7  A    between atoms: N_22  and  C_23
REMARK    8  A    between atoms: C_26  and  C_27
REMARK                            x       y       z     vdW  Elec       q    Type
REMARK                         _______ _______ _______ _____ _____    ______ ____
ROOT
ATOM      1  N   UNL     1      -0.118  10.165  19.517  0.00  0.00    +0.000 N 
ATOM      2  C   UNL     1      -0.322  10.469  20.831  0.00  0.00    +0.000 A 
ATOM      3  C   UNL     1       0.441   9.572  21.564  0.00  0.00    +0.000 A 
ATOM      4  C   UNL     1       1.084   8.768  20.584  0.00  0.00    +0.000 A 
ATOM      5  N   UNL     1       1.937   7.751  20.858  0.00  0.00    +0.000 N 
ATOM      6  N   UNL     1       0.736   9.151  19.351  0.00  0.00    +0.000 NA
ATOM      7  H   UNL     1       2.335   7.689  21.793  0.00  0.00    +0.000 HD
ENDROOT
BRANCH   1  13
ATOM      8  C   UNL     1      -2.196  10.644  18.218  0.00  0.00    +0.000 C 
ATOM      9  C   UNL     1      -2.956  11.393  19.318  0.00  0.00    +0.000 C 
ATOM     10  C   UNL     1      -2.598  12.883  19.521  0.00  0.00    +0.000 C 
ATOM     11  C   UNL     1      -1.063  13.107  19.389  0.00  0.00    +0.000 C 
ATOM     12  C   UNL     1      -0.364  12.328  18.276  0.00  0.00    +0.000 C 
ATOM     13  C   UNL     1      -0.674  10.828  18.334  0.00  0.00    +0.000 C 
BRANCH   8  15
ATOM     14  C   UNL     1      -3.028  11.436  15.876  0.00  0.00    +0.000 C 
ATOM     15  N   UNL     1      -2.651  11.084  16.930  0.00  0.00    +0.000 NA
ENDBRANCH   8  15
BRANCH  10  16
ATOM     16  N   UNL     1      -3.077  13.404  20.853  0.00  0.00    +0.000 NA
ATOM     17  C   UNL     1      -4.322  14.185  20.672  0.00  0.00    +0.000 C 
BRANCH  16  18
ATOM     18  C   UNL     1      -3.420  12.325  21.828  0.00  0.00    +0.000 C 
ATOM     19  C   UNL     1      -2.671  12.380  23.174  0.00  0.00    +0.000 C 
ATOM     20  O   UNL     1      -3.925  12.267  23.904  0.00  0.00    +0.000 OA
ATOM     21  C   UNL     1      -4.613  12.773  22.723  0.00  0.00    +0.000 C 
ENDBRANCH  16  18
ENDBRANCH  10  16
ENDBRANCH   1  13
BRANCH   5  22
ATOM     22  C   UNL     1       2.143   6.577  20.096  0.00  0.00    +0.000 A 
ATOM     23  C   UNL     1       2.852   6.641  18.891  0.00  0.00    +0.000 A 
ATOM     24  C   UNL     1       3.045   5.496  18.108  0.00  0.00    +0.000 A 
ATOM     25  C   UNL     1       2.539   4.253  18.517  0.00  0.00    +0.000 A 
ATOM     26  C   UNL     1       1.806   4.189  19.708  0.00  0.00    +0.000 A 
ATOM     27  C   UNL     1       1.602   5.340  20.476  0.00  0.00    +0.000 A 
BRANCH  25  28
ATOM     28  C   UNL     1       2.784   3.000  17.713  0.00  0.00    +0.000 C 
ATOM     29  F   UNL     1       2.061   1.927  18.142  0.00  0.00    +0.000 F 
ATOM     30  F   UNL     1       2.466   3.156  16.397  0.00  0.00    +0.000 F 
ATOM     31  F   UNL     1       4.087   2.603  17.737  0.00  0.00    +0.000 F 
ENDBRANCH  25  28
ENDBRANCH   5  22
BRANCH   3  32
ATOM     32  C   UNL     1       0.534   9.495  23.005  0.00  0.00    +0.000 C 
ATOM     33  N   UNL     1      -0.663   9.450  23.669  0.00  0.00    +0.000 N 
ATOM     34  O   UNL     1       1.597   9.439  23.612  0.00  0.00    +0.000 OA
ATOM     35  H   UNL     1      -1.517   9.210  23.187  0.00  0.00    +0.000 HD
ATOM     36  H   UNL     1      -0.624   9.290  24.667  0.00  0.00    +0.000 HD
ENDBRANCH   3  32
TORSDOF 7
ENDMDL
MODEL 7
REMARK VINA RESULT:      -7.7      1.951      2.673
REMARK  Name = 
REMARK  8 active torsions:
REMARK  status: ('A' for Active; 'I' for Inactive)
REMARK    1  A    between atoms: N_2  and  C_3
REMARK    2  A    between atoms: C_5  and  N_6
REMARK    3  A    between atoms: N_6  and  C_7
REMARK    4  A    between atoms: N_6  and  C_8
REMARK    5  A    between atoms: C_14  and  N_15
REMARK    6  A    between atoms: C_17  and  C_18
REMARK    7  A    between atoms: N_22  and  C_23
REMARK    8  A    between atoms: C_26  and  C_27
REMARK                            x       y       z     vdW  Elec       q    Type
REMARK                         _______ _______ _______ _____ _____    ______ ____
ROOT
ATOM      1  N   UNL     1       0.036  10.080  19.527  0.00  0.00    +0.000 N 
ATOM      2  C   UNL     1      -0.122  10.404  20.842  0.00  0.00    +0.000 A 
ATOM      3  C   UNL     1       0.633   9.493  21.564  0.00  0.00    +0.000 A 
ATOM      4  C   UNL     1       1.223   8.658  20.576  0.00  0.00    +0.000 A 
ATOM      5  N   UNL     1       2.052   7.617  20.838  0.00  0.00    +0.000 N 
ATOM      6  N   UNL     1       0.853   9.038  19.349  0.00  0.00    +0.000 NA
ATOM      7  H   UNL     1       2.474   7.554  21.763  0.00  0.00    +0.000 HD
ENDROOT
BRANCH   1  13
ATOM      8  C   UNL     1      -2.070  10.735  18.356  0.00  0.00    +0.000 C 
ATOM      9  C   UNL     1      -2.653  11.619  19.464  0.00  0.00    +0.000 C 
ATOM     10  C   UNL     1      -2.114  13.065  19.558  0.00  0.00    +0.000 C 
ATOM     11  C   UNL     1      -0.579  13.102  19.303  0.00  0.00    +0.000 C 
ATOM     12  C   UNL     1      -0.061  12.195  18.188  0.00  0.00    +0.000 C 
ATOM     13  C   UNL     1      -0.533  10.746  18.352  0.00  0.00    +0.000 C 
BRANCH   8  15
ATOM     14  C   UNL     1      -2.990  11.515  16.042  0.00  0.00    +0.000 C 
ATOM     15  N   UNL     1      -2.571  11.165  17.081  0.00  0.00    +0.000 NA
ENDBRANCH   8  15
BRANCH  10  16
ATOM     16  N   UNL     1      -2.426  13.700  20.889  0.00  0.00    +0.000 NA
ATOM     17  C   UNL     1      -3.306  12.810  21.681  0.00  0.00    +0.000 C 
BRANCH  16  18
ATOM     18  C   UNL     1      -1.219  13.929  21.739  0.00  0.00    +0.000 C 
ATOM     19  C   UNL     1      -1.300  15.128  22.704  0.00  0.00    +0.000 C 
ATOM     20  O   UNL     1      -0.879  14.291  23.818  0.00  0.00    +0.000 OA
ATOM     21  C   UNL     1      -1.343  13.130  23.070  0.00  0.00    +0.000 C 
ENDBRANCH  16  18
ENDBRANCH  10  16
ENDBRANCH   1  13
BRANCH   5  22
ATOM     22  C   UNL     1       2.200   6.429  20.086  0.00  0.00    +0.000 A 
ATOM     23  C   UNL     1       1.580   5.250  20.513  0.00  0.00    +0.000 A 
ATOM     24  C   UNL     1       1.734   4.055  19.797  0.00  0.00    +0.000 A 
ATOM     25  C   UNL     1       2.507   4.015  18.627  0.00  0.00    +0.000 A 
ATOM     26  C   UNL     1       3.150   5.186  18.210  0.00  0.00    +0.000 A 
ATOM     27  C   UNL     1       3.007   6.370  18.940  0.00  0.00    +0.000 A 
BRANCH  25  28
ATOM     28  C   UNL     1       2.639   2.751  17.814  0.00  0.00    +0.000 C 
ATOM     29  F   UNL     1       3.828   2.109  17.993  0.00  0.00    +0.000 F 
ATOM     30  F   UNL     1       1.677   1.834  18.117  0.00  0.00    +0.000 F 
ATOM     31  F   UNL     1       2.535   2.970  16.474  0.00  0.00    +0.000 F 
ENDBRANCH  25  28
ENDBRANCH   5  22
BRANCH   3  32
ATOM     32  C   UNL     1       0.765   9.429  23.002  0.00  0.00    +0.000 C 
ATOM     33  N   UNL     1      -0.414   9.401  23.699  0.00  0.00    +0.000 N 
ATOM     34  O   UNL     1       1.843   9.369  23.582  0.00  0.00    +0.000 OA
ATOM     35  H   UNL     1      -1.283   9.164  23.243  0.00  0.00    +0.000 HD
ATOM     36  H   UNL     1      -0.350   9.250  24.697  0.00  0.00    +0.000 HD
ENDBRANCH   3  32
TORSDOF 7
ENDMDL
MODEL 8
REMARK VINA RESULT:      -7.6      1.920      2.567
REMARK  Name = 
REMARK  8 active torsions:
REMARK  status: ('A' for Active; 'I' for Inactive)
REMARK    1  A    between atoms: N_2  and  C_3
REMARK    2  A    between atoms: C_5  and  N_6
REMARK    3  A    between atoms: N_6  and  C_7
REMARK    4  A    between atoms: N_6  and  C_8
REMARK    5  A    between atoms: C_14  and  N_15
REMARK    6  A    between atoms: C_17  and  C_18
REMARK    7  A    between atoms: N_22  and  C_23
REMARK    8  A    between atoms: C_26  and  C_27
REMARK                            x       y       z     vdW  Elec       q    Type
REMARK                         _______ _______ _______ _____ _____    ______ ____
ROOT
ATOM      1  N   UNL     1      -0.009  10.079  19.521  0.00  0.00    +0.000 N 
ATOM      2  C   UNL     1      -0.165  10.408  20.836  0.00  0.00    +0.000 A 
ATOM      3  C   UNL     1       0.596   9.502  21.559  0.00  0.00    +0.000 A 
ATOM      4  C   UNL     1       1.188   8.666  20.574  0.00  0.00    +0.000 A 
ATOM      5  N   UNL     1       2.022   7.631  20.838  0.00  0.00    +0.000 N 
ATOM      6  N   UNL     1       0.813   9.040  19.345  0.00  0.00    +0.000 NA
ATOM      7  H   UNL     1       2.446   7.573  21.761  0.00  0.00    +0.000 HD
ENDROOT
BRANCH   1  13
ATOM      8  C   UNL     1      -2.120  10.727  18.355  0.00  0.00    +0.000 C 
ATOM      9  C   UNL     1      -2.699  11.616  19.461  0.00  0.00    +0.000 C 
ATOM     10  C   UNL     1      -2.161  13.062  19.545  0.00  0.00    +0.000 C 
ATOM     11  C   UNL     1      -0.627  13.099  19.284  0.00  0.00    +0.000 C 
ATOM     12  C   UNL     1      -0.113  12.187  18.171  0.00  0.00    +0.000 C 
ATOM     13  C   UNL     1      -0.582  10.739  18.345  0.00  0.00    +0.000 C 
BRANCH   8  15
ATOM     14  C   UNL     1      -3.042  11.502  16.042  0.00  0.00    +0.000 C 
ATOM     15  N   UNL     1      -2.626  11.148  17.080  0.00  0.00    +0.000 NA
ENDBRANCH   8  15
BRANCH  10  16
ATOM     16  N   UNL     1      -2.468  13.705  20.874  0.00  0.00    +0.000 NA
ATOM     17  C   UNL     1      -3.386  12.841  21.653  0.00  0.00    +0.000 C 
BRANCH  16  18
ATOM     18  C   UNL     1      -1.265  13.892  21.739  0.00  0.00    +0.000 C 
ATOM     19  C   UNL     1      -1.322  15.085  22.713  0.00  0.00    +0.000 C 
ATOM     20  O   UNL     1      -0.938  14.228  23.825  0.00  0.00    +0.000 OA
ATOM     21  C   UNL     1      -1.427  13.087  23.063  0.00  0.00    +0.000 C 
ENDBRANCH  16  18
ENDBRANCH  10  16
ENDBRANCH   1  13
BRANCH   5  22
ATOM     22  C   UNL     1       2.173   6.441  20.089  0.00  0.00    +0.000 A 
ATOM     23  C   UNL     1       2.918   6.451  18.904  0.00  0.00    +0.000 A 
ATOM     24  C   UNL     1       3.060   5.290  18.133  0.00  0.00    +0.000 A 
ATOM     25  C   UNL     1       2.465   4.084  18.535  0.00  0.00    +0.000 A 
ATOM     26  C   UNL     1       1.697   4.076  19.705  0.00  0.00    +0.000 A 
ATOM     27  C   UNL     1       1.545   5.244  20.461  0.00  0.00    +0.000 A 
BRANCH  25  28
ATOM     28  C   UNL     1       2.652   2.813  17.745  0.00  0.00    +0.000 C 
ATOM     29  F   UNL     1       1.738   1.846  18.043  0.00  0.00    +0.000 F 
ATOM     30  F   UNL     1       2.549   3.015  16.401  0.00  0.00    +0.000 F 
ATOM     31  F   UNL     1       3.873   2.242  17.944  0.00  0.00    +0.000 F 
ENDBRANCH  25  28
ENDBRANCH   5  22
BRANCH   3  32
ATOM     32  C   UNL     1       0.730   9.444  22.998  0.00  0.00    +0.000 C 
ATOM     33  N   UNL     1      -0.447   9.422  23.697  0.00  0.00    +0.000 N 
ATOM     34  O   UNL     1       1.810   9.384  23.575  0.00  0.00    +0.000 OA
ATOM     35  H   UNL     1      -1.318   9.186  23.244  0.00  0.00    +0.000 HD
ATOM     36  H   UNL     1      -0.381   9.276  24.695  0.00  0.00    +0.000 HD
ENDBRANCH   3  32
TORSDOF 7
ENDMDL
MODEL 9
REMARK VINA RESULT:      -7.6      1.078      1.431
REMARK  Name = 
REMARK  8 active torsions:
REMARK  status: ('A' for Active; 'I' for Inactive)
REMARK    1  A    between atoms: N_2  and  C_3
REMARK    2  A    between atoms: C_5  and  N_6
REMARK    3  A    between atoms: N_6  and  C_7
REMARK    4  A    between atoms: N_6  and  C_8
REMARK    5  A    between atoms: C_14  and  N_15
REMARK    6  A    between atoms: C_17  and  C_18
REMARK    7  A    between atoms: N_22  and  C_23
REMARK    8  A    between atoms: C_26  and  C_27
REMARK                            x       y       z     vdW  Elec       q    Type
REMARK                         _______ _______ _______ _____ _____    ______ ____
ROOT
ATOM      1  N   UNL     1      -0.807  10.249  18.763  0.00  0.00    +0.000 N 
ATOM      2  C   UNL     1      -1.143  10.677  20.014  0.00  0.00    +0.000 A 
ATOM      3  C   UNL     1      -0.286  10.031  20.892  0.00  0.00    +0.000 A 
ATOM      4  C   UNL     1       0.546   9.235  20.058  0.00  0.00    +0.000 A 
ATOM      5  N   UNL     1       1.541   8.429  20.503  0.00  0.00    +0.000 N 
ATOM      6  N   UNL     1       0.217   9.390  18.771  0.00  0.00    +0.000 NA
ATOM      7  H   UNL     1       1.884   8.559  21.453  0.00  0.00    +0.000 HD
ENDROOT
BRANCH   1  13
ATOM      8  C   UNL     1      -2.477   9.669  16.999  0.00  0.00    +0.000 C 
ATOM      9  C   UNL     1      -3.729   9.716  17.881  0.00  0.00    +0.000 C 
ATOM     10  C   UNL     1      -4.332  11.111  18.161  0.00  0.00    +0.000 C 
ATOM     11  C   UNL     1      -3.209  12.162  18.402  0.00  0.00    +0.000 C 
ATOM     12  C   UNL     1      -1.986  12.059  17.493  0.00  0.00    +0.000 C 
ATOM     13  C   UNL     1      -1.391  10.647  17.479  0.00  0.00    +0.000 C 
BRANCH   8  15
ATOM     14  C   UNL     1      -3.114  10.186  14.523  0.00  0.00    +0.000 C 
ATOM     15  N   UNL     1      -2.832   9.954  15.638  0.00  0.00    +0.000 NA
ENDBRANCH   8  15
BRANCH  10  16
ATOM     16  N   UNL     1      -5.277  11.095  19.337  0.00  0.00    +0.000 NA
ATOM     17  C   UNL     1      -5.653  12.480  19.703  0.00  0.00    +0.000 C 
BRANCH  16  18
ATOM     18  C   UNL     1      -6.564  10.392  19.057  0.00  0.00    +0.000 C 
ATOM     19  C   UNL     1      -6.645   8.931  19.542  0.00  0.00    +0.000 C 
ATOM     20  O   UNL     1      -7.914   9.195  20.204  0.00  0.00    +0.000 OA
ATOM     21  C   UNL     1      -7.558  10.607  20.237  0.00  0.00    +0.000 C 
ENDBRANCH  16  18
ENDBRANCH  10  16
ENDBRANCH   1  13
BRANCH   5  22
ATOM     22  C   UNL     1       1.992   7.224  19.917  0.00  0.00    +0.000 A 
ATOM     23  C   UNL     1       2.643   7.249  18.678  0.00  0.00    +0.000 A 
ATOM     24  C   UNL     1       3.075   6.064  18.068  0.00  0.00    +0.000 A 
ATOM     25  C   UNL     1       2.874   4.822  18.689  0.00  0.00    +0.000 A 
ATOM     26  C   UNL     1       2.200   4.790  19.915  0.00  0.00    +0.000 A 
ATOM     27  C   UNL     1       1.755   5.975  20.510  0.00  0.00    +0.000 A 
BRANCH  25  28
ATOM     28  C   UNL     1       3.380   3.542  18.071  0.00  0.00    +0.000 C 
ATOM     29  F   UNL     1       3.049   2.426  18.780  0.00  0.00    +0.000 F 
ATOM     30  F   UNL     1       2.890   3.341  16.816  0.00  0.00    +0.000 F 
ATOM     31  F   UNL     1       4.737   3.515  17.950  0.00  0.00    +0.000 F 
ENDBRANCH  25  28
ENDBRANCH   5  22
BRANCH   3  32
ATOM     32  C   UNL     1      -0.274  10.155  22.333  0.00  0.00    +0.000 C 
ATOM     33  N   UNL     1      -0.827  11.307  22.827  0.00  0.00    +0.000 N 
ATOM     34  O   UNL     1       0.165   9.292  23.083  0.00  0.00    +0.000 OA
ATOM     35  H   UNL     1      -1.434  11.878  22.259  0.00  0.00    +0.000 HD
ATOM     36  H   UNL     1      -0.925  11.369  23.832  0.00  0.00    +0.000 HD
ENDBRANCH   3  32
TORSDOF 7
ENDMDL
