MODEL 1
REMARK VINA RESULT:      -6.9      0.000      0.000
REMARK  Name = 
REMARK  3 active torsions:
REMARK  status: ('A' for Active; 'I' for Inactive)
REMARK    1  A    between atoms: C_2  and  N_3
REMARK    2  A    between atoms: C_6  and  N_7
REMARK    3  A    between atoms: C_14  and  C_15
REMARK                            x       y       z     vdW  Elec       q    Type
REMARK                         _______ _______ _______ _____ _____    ______ ____
ROOT
ATOM      1  N   UNL     1       2.077   8.240  18.479  0.00  0.00    +0.000 N 
ATOM      2  C   UNL     1       1.860   8.035  19.901  0.00  0.00    +0.000 C 
ATOM      3  C   UNL     1       1.929   6.573  20.237  0.00  0.00    +0.000 C 
ATOM      4  C   UNL     1       3.283   6.082  19.793  0.00  0.00    +0.000 C 
ATOM      5  N   UNL     1       3.572   6.373  18.389  0.00  0.00    +0.000 N 
ATOM      6  C   UNL     1       4.527   5.635  17.662  0.00  0.00    +0.000 A 
ATOM      7  N   UNL     1       4.792   5.685  16.375  0.00  0.00    +0.000 NA
ATOM      8  C   UNL     1       5.775   4.773  16.024  0.00  0.00    +0.000 A 
ATOM      9  C   UNL     1       6.298   4.061  17.085  0.00  0.00    +0.000 A 
ATOM     10  S   UNL     1       5.508   4.505  18.528  0.00  0.00    +0.000 S 
ATOM     11  C   UNL     1       3.003   7.480  17.735  0.00  0.00    +0.000 C 
ATOM     12  O   UNL     1       3.256   7.818  16.577  0.00  0.00    +0.000 OA
ENDROOT
BRANCH   8  13
ATOM     13  C   UNL     1       6.228   4.609  14.648  0.00  0.00    +0.000 A 
ATOM     14  C   UNL     1       7.340   5.326  14.187  0.00  0.00    +0.000 A 
ATOM     15  C   UNL     1       7.800   5.158  12.877  0.00  0.00    +0.000 A 
ATOM     16  C   UNL     1       7.145   4.281  12.012  0.00  0.00    +0.000 A 
ATOM     17  C   UNL     1       6.028   3.577  12.450  0.00  0.00    +0.000 A 
ATOM     18  C   UNL     1       5.571   3.741  13.761  0.00  0.00    +0.000 A 
ENDBRANCH   8  13
BRANCH   1  22
ATOM     19  N   UNL     1      -0.077  10.912  18.986  0.00  0.00    +0.000 N 
ATOM     20  C   UNL     1       1.299  11.378  19.269  0.00  0.00    +0.000 C 
ATOM     21  C   UNL     1       2.171  10.748  18.197  0.00  0.00    +0.000 C 
ATOM     22  C   UNL     1       1.480   9.434  17.834  0.00  0.00    +0.000 C 
ATOM     23  C   UNL     1      -0.006   9.660  18.172  0.00  0.00    +0.000 C 
BRANCH  19  25
ATOM     24  N   UNL     1      -2.125  12.321  19.197  0.00  0.00    +0.000 NA
ATOM     25  C   UNL     1      -1.174  11.668  19.096  0.00  0.00    +0.000 C 
ENDBRANCH  19  25
ENDBRANCH   1  22
TORSDOF 3
ENDMDL
MODEL 2
REMARK VINA RESULT:      -6.9      2.397      3.949
REMARK  Name = 
REMARK  3 active torsions:
REMARK  status: ('A' for Active; 'I' for Inactive)
REMARK    1  A    between atoms: C_2  and  N_3
REMARK    2  A    between atoms: C_6  and  N_7
REMARK    3  A    between atoms: C_14  and  C_15
REMARK                            x       y       z     vdW  Elec       q    Type
REMARK                         _______ _______ _______ _____ _____    ______ ____
ROOT
ATOM      1  N   UNL     1       0.727  11.446  19.200  0.00  0.00    +0.000 N 
ATOM      2  C   UNL     1      -0.057  11.613  20.412  0.00  0.00    +0.000 C 
ATOM      3  C   UNL     1      -0.761  10.334  20.763  0.00  0.00    +0.000 C 
ATOM      4  C   UNL     1       0.301   9.274  20.913  0.00  0.00    +0.000 C 
ATOM      5  N   UNL     1       1.174   9.160  19.745  0.00  0.00    +0.000 N 
ATOM      6  C   UNL     1       1.900   7.982  19.479  0.00  0.00    +0.000 A 
ATOM      7  N   UNL     1       2.606   7.682  18.410  0.00  0.00    +0.000 NA
ATOM      8  C   UNL     1       3.144   6.409  18.499  0.00  0.00    +0.000 A 
ATOM      9  C   UNL     1       2.879   5.759  19.688  0.00  0.00    +0.000 A 
ATOM     10  S   UNL     1       1.901   6.740  20.681  0.00  0.00    +0.000 S 
ATOM     11  C   UNL     1       1.426  10.259  18.905  0.00  0.00    +0.000 C 
ATOM     12  O   UNL     1       2.201  10.246  17.948  0.00  0.00    +0.000 OA
ENDROOT
BRANCH   8  13
ATOM     13  C   UNL     1       3.943   5.825  17.428  0.00  0.00    +0.000 A 
ATOM     14  C   UNL     1       4.657   6.657  16.555  0.00  0.00    +0.000 A 
ATOM     15  C   UNL     1       5.447   6.108  15.540  0.00  0.00    +0.000 A 
ATOM     16  C   UNL     1       5.523   4.724  15.381  0.00  0.00    +0.000 A 
ATOM     17  C   UNL     1       4.805   3.887  16.231  0.00  0.00    +0.000 A 
ATOM     18  C   UNL     1       4.018   4.435  17.247  0.00  0.00    +0.000 A 
ENDBRANCH   8  13
BRANCH   1  22
ATOM     19  N   UNL     1       0.238  14.873  18.960  0.00  0.00    +0.000 N 
ATOM     20  C   UNL     1       1.562  14.646  19.584  0.00  0.00    +0.000 C 
ATOM     21  C   UNL     1       2.174  13.482  18.824  0.00  0.00    +0.000 C 
ATOM     22  C   UNL     1       0.991  12.637  18.355  0.00  0.00    +0.000 C 
ATOM     23  C   UNL     1      -0.190  13.622  18.263  0.00  0.00    +0.000 C 
BRANCH  19  25
ATOM     24  N   UNL     1      -0.754  17.120  18.523  0.00  0.00    +0.000 NA
ATOM     25  C   UNL     1      -0.296  16.077  18.728  0.00  0.00    +0.000 C 
ENDBRANCH  19  25
ENDBRANCH   1  22
TORSDOF 3
ENDMDL
MODEL 3
REMARK VINA RESULT:      -6.7      3.740      5.785
REMARK  Name = 
REMARK  3 active torsions:
REMARK  status: ('A' for Active; 'I' for Inactive)
REMARK    1  A    between atoms: C_2  and  N_3
REMARK    2  A    between atoms: C_6  and  N_7
REMARK    3  A    between atoms: C_14  and  C_15
REMARK                            x       y       z     vdW  Elec       q    Type
REMARK                         _______ _______ _______ _____ _____    ______ ____
ROOT
ATOM      1  N   UNL     1       0.190  11.044  19.931  0.00  0.00    +0.000 N 
ATOM      2  C   UNL     1       0.515  12.069  18.953  0.00  0.00    +0.000 C 
ATOM      3  C   UNL     1       1.945  11.942  18.514  0.00  0.00    +0.000 C 
ATOM      4  C   UNL     1       2.112  10.551  17.957  0.00  0.00    +0.000 C 
ATOM      5  N   UNL     1       1.690   9.501  18.883  0.00  0.00    +0.000 N 
ATOM      6  C   UNL     1       2.168   8.181  18.772  0.00  0.00    +0.000 A 
ATOM      7  N   UNL     1       1.993   7.176  19.601  0.00  0.00    +0.000 NA
ATOM      8  C   UNL     1       2.654   6.038  19.167  0.00  0.00    +0.000 A 
ATOM      9  C   UNL     1       3.297   6.180  17.953  0.00  0.00    +0.000 A 
ATOM     10  S   UNL     1       3.110   7.774  17.380  0.00  0.00    +0.000 S 
ATOM     11  C   UNL     1       0.694   9.730  19.849  0.00  0.00    +0.000 C 
ATOM     12  O   UNL     1       0.248   8.873  20.613  0.00  0.00    +0.000 OA
ENDROOT
BRANCH   8  13
ATOM     13  C   UNL     1       2.643   4.794  19.926  0.00  0.00    +0.000 A 
ATOM     14  C   UNL     1       3.651   3.842  19.725  0.00  0.00    +0.000 A 
ATOM     15  C   UNL     1       3.665   2.656  20.465  0.00  0.00    +0.000 A 
ATOM     16  C   UNL     1       2.666   2.404  21.406  0.00  0.00    +0.000 A 
ATOM     17  C   UNL     1       1.647   3.333  21.603  0.00  0.00    +0.000 A 
ATOM     18  C   UNL     1       1.635   4.520  20.866  0.00  0.00    +0.000 A 
ENDBRANCH   8  13
BRANCH   1  22
ATOM     19  N   UNL     1      -0.935  13.332  22.284  0.00  0.00    +0.000 N 
ATOM     20  C   UNL     1      -1.619  13.625  21.003  0.00  0.00    +0.000 C 
ATOM     21  C   UNL     1      -1.965  12.271  20.409  0.00  0.00    +0.000 C 
ATOM     22  C   UNL     1      -0.884  11.317  20.916  0.00  0.00    +0.000 C 
ATOM     23  C   UNL     1      -0.391  11.941  22.236  0.00  0.00    +0.000 C 
BRANCH  19  25
ATOM     24  N   UNL     1      -1.253  14.625  24.394  0.00  0.00    +0.000 NA
ATOM     25  C   UNL     1      -1.108  14.027  23.413  0.00  0.00    +0.000 C 
ENDBRANCH  19  25
ENDBRANCH   1  22
TORSDOF 3
ENDMDL
MODEL 4
REMARK VINA RESULT:      -6.6      1.020      1.117
REMARK  Name = 
REMARK  3 active torsions:
REMARK  status: ('A' for Active; 'I' for Inactive)
REMARK    1  A    between atoms: C_2  and  N_3
REMARK    2  A    between atoms: C_6  and  N_7
REMARK    3  A    between atoms: C_14  and  C_15
REMARK                            x       y       z     vdW  Elec       q    Type
REMARK                         _______ _______ _______ _____ _____    ______ ____
ROOT
ATOM      1  N   UNL     1       1.839   8.266  19.253  0.00  0.00    +0.000 N 
ATOM      2  C   UNL     1       1.467   7.932  20.617  0.00  0.00    +0.000 C 
ATOM      3  C   UNL     1       1.307   6.446  20.769  0.00  0.00    +0.000 C 
ATOM      4  C   UNL     1       2.617   5.819  20.366  0.00  0.00    +0.000 C 
ATOM      5  N   UNL     1       3.069   6.225  19.036  0.00  0.00    +0.000 N 
ATOM      6  C   UNL     1       3.977   5.445  18.294  0.00  0.00    +0.000 A 
ATOM      7  N   UNL     1       4.362   5.604  17.047  0.00  0.00    +0.000 NA
ATOM      8  C   UNL     1       5.240   4.606  16.655  0.00  0.00    +0.000 A 
ATOM      9  C   UNL     1       5.563   3.707  17.652  0.00  0.00    +0.000 A 
ATOM     10  S   UNL     1       4.713   4.092  19.078  0.00  0.00    +0.000 S 
ATOM     11  C   UNL     1       2.717   7.472  18.489  0.00  0.00    +0.000 C 
ATOM     12  O   UNL     1       3.118   7.900  17.405  0.00  0.00    +0.000 OA
ENDROOT
BRANCH   8  13
ATOM     13  C   UNL     1       5.790   4.539  15.307  0.00  0.00    +0.000 A 
ATOM     14  C   UNL     1       7.007   5.169  15.014  0.00  0.00    +0.000 A 
ATOM     15  C   UNL     1       7.557   5.091  13.731  0.00  0.00    +0.000 A 
ATOM     16  C   UNL     1       6.891   4.390  12.725  0.00  0.00    +0.000 A 
ATOM     17  C   UNL     1       5.673   3.773  12.997  0.00  0.00    +0.000 A 
ATOM     18  C   UNL     1       5.125   3.849  14.280  0.00  0.00    +0.000 A 
ENDBRANCH   8  13
BRANCH   1  22
ATOM     19  N   UNL     1      -0.842  10.301  18.407  0.00  0.00    +0.000 N 
ATOM     20  C   UNL     1      -0.446  10.625  19.797  0.00  0.00    +0.000 C 
ATOM     21  C   UNL     1       1.073  10.610  19.801  0.00  0.00    +0.000 C 
ATOM     22  C   UNL     1       1.470   9.602  18.724  0.00  0.00    +0.000 C 
ATOM     23  C   UNL     1       0.288   9.588  17.736  0.00  0.00    +0.000 C 
BRANCH  19  25
ATOM     24  N   UNL     1      -2.736  11.367  17.183  0.00  0.00    +0.000 NA
ATOM     25  C   UNL     1      -1.856  10.875  17.752  0.00  0.00    +0.000 C 
ENDBRANCH  19  25
ENDBRANCH   1  22
TORSDOF 3
ENDMDL
MODEL 5
REMARK VINA RESULT:      -6.5      3.081      8.534
REMARK  Name = 
REMARK  3 active torsions:
REMARK  status: ('A' for Active; 'I' for Inactive)
REMARK    1  A    between atoms: C_2  and  N_3
REMARK    2  A    between atoms: C_6  and  N_7
REMARK    3  A    between atoms: C_14  and  C_15
REMARK                            x       y       z     vdW  Elec       q    Type
REMARK                         _______ _______ _______ _____ _____    ______ ____
ROOT
ATOM      1  N   UNL     1       2.746   6.046  18.787  0.00  0.00    +0.000 N 
ATOM      2  C   UNL     1       2.257   4.955  19.613  0.00  0.00    +0.000 C 
ATOM      3  C   UNL     1       2.101   5.403  21.037  0.00  0.00    +0.000 C 
ATOM      4  C   UNL     1       1.156   6.577  21.028  0.00  0.00    +0.000 C 
ATOM      5  N   UNL     1       1.569   7.647  20.121  0.00  0.00    +0.000 N 
ATOM      6  C   UNL     1       1.120   8.972  20.287  0.00  0.00    +0.000 A 
ATOM      7  N   UNL     1       1.509  10.053  19.648  0.00  0.00    +0.000 NA
ATOM      8  C   UNL     1       0.862  11.183  20.121  0.00  0.00    +0.000 A 
ATOM      9  C   UNL     1      -0.075  10.934  21.103  0.00  0.00    +0.000 A 
ATOM     10  S   UNL     1      -0.105   9.271  21.471  0.00  0.00    +0.000 S 
ATOM     11  C   UNL     1       2.332   7.381  18.970  0.00  0.00    +0.000 C 
ATOM     12  O   UNL     1       2.655   8.225  18.133  0.00  0.00    +0.000 OA
ENDROOT
BRANCH   8  13
ATOM     13  C   UNL     1       1.140  12.515  19.597  0.00  0.00    +0.000 A 
ATOM     14  C   UNL     1       0.272  13.576  19.888  0.00  0.00    +0.000 A 
ATOM     15  C   UNL     1       0.541  14.863  19.412  0.00  0.00    +0.000 A 
ATOM     16  C   UNL     1       1.673  15.101  18.633  0.00  0.00    +0.000 A 
ATOM     17  C   UNL     1       2.535  14.052  18.322  0.00  0.00    +0.000 A 
ATOM     18  C   UNL     1       2.268  12.766  18.800  0.00  0.00    +0.000 A 
ENDBRANCH   8  13
BRANCH   1  22
ATOM     19  N   UNL     1       5.708   4.642  17.649  0.00  0.00    +0.000 N 
ATOM     20  C   UNL     1       4.670   3.586  17.635  0.00  0.00    +0.000 C 
ATOM     21  C   UNL     1       3.409   4.262  17.127  0.00  0.00    +0.000 C 
ATOM     22  C   UNL     1       3.525   5.721  17.568  0.00  0.00    +0.000 C 
ATOM     23  C   UNL     1       5.038   5.978  17.695  0.00  0.00    +0.000 C 
BRANCH  19  25
ATOM     24  N   UNL     1       8.087   4.303  16.979  0.00  0.00    +0.000 NA
ATOM     25  C   UNL     1       6.983   4.459  17.292  0.00  0.00    +0.000 C 
ENDBRANCH  19  25
ENDBRANCH   1  22
TORSDOF 3
ENDMDL
MODEL 6
REMARK VINA RESULT:      -6.5      1.947      3.055
REMARK  Name = 
REMARK  3 active torsions:
REMARK  status: ('A' for Active; 'I' for Inactive)
REMARK    1  A    between atoms: C_2  and  N_3
REMARK    2  A    between atoms: C_6  and  N_7
REMARK    3  A    between atoms: C_14  and  C_15
REMARK                            x       y       z     vdW  Elec       q    Type
REMARK                         _______ _______ _______ _____ _____    ______ ____
ROOT
ATOM      1  N   UNL     1       0.784  10.299  19.535  0.00  0.00    +0.000 N 
ATOM      2  C   UNL     1       0.104  10.286  20.820  0.00  0.00    +0.000 C 
ATOM      3  C   UNL     1      -0.400   8.907  21.134  0.00  0.00    +0.000 C 
ATOM      4  C   UNL     1       0.794   7.987  21.113  0.00  0.00    +0.000 C 
ATOM      5  N   UNL     1       1.560   8.060  19.869  0.00  0.00    +0.000 N 
ATOM      6  C   UNL     1       2.398   7.006  19.454  0.00  0.00    +0.000 A 
ATOM      7  N   UNL     1       3.030   6.868  18.310  0.00  0.00    +0.000 NA
ATOM      8  C   UNL     1       3.727   5.671  18.257  0.00  0.00    +0.000 A 
ATOM      9  C   UNL     1       3.659   4.919  19.413  0.00  0.00    +0.000 A 
ATOM     10  S   UNL     1       2.665   5.701  20.556  0.00  0.00    +0.000 S 
ATOM     11  C   UNL     1       1.593   9.233  19.095  0.00  0.00    +0.000 C 
ATOM     12  O   UNL     1       2.270   9.381  18.076  0.00  0.00    +0.000 OA
ENDROOT
BRANCH   8  13
ATOM     13  C   UNL     1       4.488   5.265  17.081  0.00  0.00    +0.000 A 
ATOM     14  C   UNL     1       4.892   6.224  16.143  0.00  0.00    +0.000 A 
ATOM     15  C   UNL     1       5.643   5.850  15.025  0.00  0.00    +0.000 A 
ATOM     16  C   UNL     1       5.988   4.513  14.827  0.00  0.00    +0.000 A 
ATOM     17  C   UNL     1       5.577   3.547  15.741  0.00  0.00    +0.000 A 
ATOM     18  C   UNL     1       4.830   3.921  16.861  0.00  0.00    +0.000 A 
ENDBRANCH   8  13
BRANCH   1  22
ATOM     19  N   UNL     1       0.142  13.704  19.710  0.00  0.00    +0.000 N 
ATOM     20  C   UNL     1       1.577  13.497  20.012  0.00  0.00    +0.000 C 
ATOM     21  C   UNL     1       2.047  12.430  19.039  0.00  0.00    +0.000 C 
ATOM     22  C   UNL     1       0.818  11.564  18.763  0.00  0.00    +0.000 C 
ATOM     23  C   UNL     1      -0.386  12.492  19.013  0.00  0.00    +0.000 C 
BRANCH  19  25
ATOM     24  N   UNL     1      -1.002  15.921  19.696  0.00  0.00    +0.000 NA
ATOM     25  C   UNL     1      -0.469  14.893  19.705  0.00  0.00    +0.000 C 
ENDBRANCH  19  25
ENDBRANCH   1  22
TORSDOF 3
ENDMDL
MODEL 7
REMARK VINA RESULT:      -6.5      1.990      3.251
REMARK  Name = 
REMARK  3 active torsions:
REMARK  status: ('A' for Active; 'I' for Inactive)
REMARK    1  A    between atoms: C_2  and  N_3
REMARK    2  A    between atoms: C_6  and  N_7
REMARK    3  A    between atoms: C_14  and  C_15
REMARK                            x       y       z     vdW  Elec       q    Type
REMARK                         _______ _______ _______ _____ _____    ______ ____
ROOT
ATOM      1  N   UNL     1       0.668  10.224  19.901  0.00  0.00    +0.000 N 
ATOM      2  C   UNL     1      -0.001  10.142  21.189  0.00  0.00    +0.000 C 
ATOM      3  C   UNL     1      -0.498   8.746  21.434  0.00  0.00    +0.000 C 
ATOM      4  C   UNL     1       0.698   7.833  21.355  0.00  0.00    +0.000 C 
ATOM      5  N   UNL     1       1.453   7.973  20.111  0.00  0.00    +0.000 N 
ATOM      6  C   UNL     1       2.291   6.946  19.635  0.00  0.00    +0.000 A 
ATOM      7  N   UNL     1       2.915   6.870  18.480  0.00  0.00    +0.000 NA
ATOM      8  C   UNL     1       3.616   5.681  18.359  0.00  0.00    +0.000 A 
ATOM      9  C   UNL     1       3.559   4.869  19.474  0.00  0.00    +0.000 A 
ATOM     10  S   UNL     1       2.572   5.586  20.665  0.00  0.00    +0.000 S 
ATOM     11  C   UNL     1       1.477   9.186  19.399  0.00  0.00    +0.000 C 
ATOM     12  O   UNL     1       2.145   9.389  18.384  0.00  0.00    +0.000 OA
ENDROOT
BRANCH   8  13
ATOM     13  C   UNL     1       4.368   5.339  17.157  0.00  0.00    +0.000 A 
ATOM     14  C   UNL     1       4.626   3.997  16.851  0.00  0.00    +0.000 A 
ATOM     15  C   UNL     1       5.325   3.655  15.689  0.00  0.00    +0.000 A 
ATOM     16  C   UNL     1       5.781   4.653  14.827  0.00  0.00    +0.000 A 
ATOM     17  C   UNL     1       5.547   5.992  15.128  0.00  0.00    +0.000 A 
ATOM     18  C   UNL     1       4.846   6.333  16.288  0.00  0.00    +0.000 A 
ENDBRANCH   8  13
BRANCH   1  22
ATOM     19  N   UNL     1      -0.214  13.569  20.170  0.00  0.00    +0.000 N 
ATOM     20  C   UNL     1       1.195  13.435  20.603  0.00  0.00    +0.000 C 
ATOM     21  C   UNL     1       1.827  12.452  19.633  0.00  0.00    +0.000 C 
ATOM     22  C   UNL     1       0.691  11.528  19.196  0.00  0.00    +0.000 C 
ATOM     23  C   UNL     1      -0.591  12.365  19.368  0.00  0.00    +0.000 C 
BRANCH  19  25
ATOM     24  N   UNL     1      -1.499  15.708  20.146  0.00  0.00    +0.000 NA
ATOM     25  C   UNL     1      -0.901  14.716  20.159  0.00  0.00    +0.000 C 
ENDBRANCH  19  25
ENDBRANCH   1  22
TORSDOF 3
ENDMDL
MODEL 8
REMARK VINA RESULT:      -6.3      3.110      5.222
REMARK  Name = 
REMARK  3 active torsions:
REMARK  status: ('A' for Active; 'I' for Inactive)
REMARK    1  A    between atoms: C_2  and  N_3
REMARK    2  A    between atoms: C_6  and  N_7
REMARK    3  A    between atoms: C_14  and  C_15
REMARK                            x       y       z     vdW  Elec       q    Type
REMARK                         _______ _______ _______ _____ _____    ______ ____
ROOT
ATOM      1  N   UNL     1       0.709  12.527  19.270  0.00  0.00    +0.000 N 
ATOM      2  C   UNL     1      -0.157  12.882  20.381  0.00  0.00    +0.000 C 
ATOM      3  C   UNL     1      -1.066  11.738  20.725  0.00  0.00    +0.000 C 
ATOM      4  C   UNL     1      -0.185  10.557  21.046  0.00  0.00    +0.000 C 
ATOM      5  N   UNL     1       0.772  10.244  19.986  0.00  0.00    +0.000 N 
ATOM      6  C   UNL     1       1.347   8.964  19.864  0.00  0.00    +0.000 A 
ATOM      7  N   UNL     1       2.104   8.497  18.895  0.00  0.00    +0.000 NA
ATOM      8  C   UNL     1       2.445   7.172  19.110  0.00  0.00    +0.000 A 
ATOM      9  C   UNL     1       1.976   6.649  20.299  0.00  0.00    +0.000 A 
ATOM     10  S   UNL     1       1.054   7.820  21.126  0.00  0.00    +0.000 S 
ATOM     11  C   UNL     1       1.258  11.238  19.118  0.00  0.00    +0.000 C 
ATOM     12  O   UNL     1       2.114  11.054  18.250  0.00  0.00    +0.000 OA
ENDROOT
BRANCH   8  13
ATOM     13  C   UNL     1       3.254   6.412  18.165  0.00  0.00    +0.000 A 
ATOM     14  C   UNL     1       3.091   5.025  18.060  0.00  0.00    +0.000 A 
ATOM     15  C   UNL     1       3.843   4.289  17.140  0.00  0.00    +0.000 A 
ATOM     16  C   UNL     1       4.773   4.931  16.322  0.00  0.00    +0.000 A 
ATOM     17  C   UNL     1       4.959   6.307  16.428  0.00  0.00    +0.000 A 
ATOM     18  C   UNL     1       4.204   7.043  17.345  0.00  0.00    +0.000 A 
ENDBRANCH   8  13
BRANCH   1  22
ATOM     19  N   UNL     1       1.753  15.835  19.225  0.00  0.00    +0.000 N 
ATOM     20  C   UNL     1       2.953  14.983  19.384  0.00  0.00    +0.000 C 
ATOM     21  C   UNL     1       2.735  13.799  18.458  0.00  0.00    +0.000 C 
ATOM     22  C   UNL     1       1.220  13.609  18.394  0.00  0.00    +0.000 C 
ATOM     23  C   UNL     1       0.632  15.000  18.696  0.00  0.00    +0.000 C 
BRANCH  19  25
ATOM     24  N   UNL     1       1.788  18.329  19.159  0.00  0.00    +0.000 NA
ATOM     25  C   UNL     1       1.769  17.172  19.187  0.00  0.00    +0.000 C 
ENDBRANCH  19  25
ENDBRANCH   1  22
TORSDOF 3
ENDMDL
MODEL 9
REMARK VINA RESULT:      -6.3      1.375      1.954
REMARK  Name = 
REMARK  3 active torsions:
REMARK  status: ('A' for Active; 'I' for Inactive)
REMARK    1  A    between atoms: C_2  and  N_3
REMARK    2  A    between atoms: C_6  and  N_7
REMARK    3  A    between atoms: C_14  and  C_15
REMARK                            x       y       z     vdW  Elec       q    Type
REMARK                         _______ _______ _______ _____ _____    ______ ____
ROOT
ATOM      1  N   UNL     1       1.313   9.272  19.075  0.00  0.00    +0.000 N 
ATOM      2  C   UNL     1       0.823   9.158  20.438  0.00  0.00    +0.000 C 
ATOM      3  C   UNL     1       0.600   7.717  20.797  0.00  0.00    +0.000 C 
ATOM      4  C   UNL     1       1.914   7.006  20.604  0.00  0.00    +0.000 C 
ATOM      5  N   UNL     1       2.484   7.194  19.270  0.00  0.00    +0.000 N 
ATOM      6  C   UNL     1       3.420   6.289  18.732  0.00  0.00    +0.000 A 
ATOM      7  N   UNL     1       3.908   6.248  17.511  0.00  0.00    +0.000 NA
ATOM      8  C   UNL     1       4.778   5.183  17.348  0.00  0.00    +0.000 A 
ATOM      9  C   UNL     1       4.990   4.439  18.492  0.00  0.00    +0.000 A 
ATOM     10  S   UNL     1       4.044   5.055  19.769  0.00  0.00    +0.000 S 
ATOM     11  C   UNL     1       2.220   8.350  18.515  0.00  0.00    +0.000 C 
ATOM     12  O   UNL     1       2.720   8.600  17.416  0.00  0.00    +0.000 OA
ENDROOT
BRANCH   8  13
ATOM     13  C   UNL     1       5.430   4.898  16.076  0.00  0.00    +0.000 A 
ATOM     14  C   UNL     1       4.741   4.197  15.077  0.00  0.00    +0.000 A 
ATOM     15  C   UNL     1       5.346   3.940  13.844  0.00  0.00    +0.000 A 
ATOM     16  C   UNL     1       6.650   4.370  13.599  0.00  0.00    +0.000 A 
ATOM     17  C   UNL     1       7.354   5.051  14.589  0.00  0.00    +0.000 A 
ATOM     18  C   UNL     1       6.748   5.312  15.821  0.00  0.00    +0.000 A 
ENDBRANCH   8  13
BRANCH   1  22
ATOM     19  N   UNL     1       0.368  12.593  19.413  0.00  0.00    +0.000 N 
ATOM     20  C   UNL     1       1.848  12.543  19.377  0.00  0.00    +0.000 C 
ATOM     21  C   UNL     1       2.194  11.514  18.316  0.00  0.00    +0.000 C 
ATOM     22  C   UNL     1       1.034  10.519  18.323  0.00  0.00    +0.000 C 
ATOM     23  C   UNL     1      -0.173  11.320  18.848  0.00  0.00    +0.000 C 
BRANCH  19  25
ATOM     24  N   UNL     1      -0.979  14.676  19.680  0.00  0.00    +0.000 NA
ATOM     25  C   UNL     1      -0.351  13.711  19.555  0.00  0.00    +0.000 C 
ENDBRANCH  19  25
ENDBRANCH   1  22
TORSDOF 3
ENDMDL
