MODEL 1
REMARK VINA RESULT:      -7.4      0.000      0.000
REMARK  Name = 
REMARK  7 active torsions:
REMARK  status: ('A' for Active; 'I' for Inactive)
REMARK    1  A    between atoms: C_1  and  C_2
REMARK    2  A    between atoms: C_2  and  S_3
REMARK    3  A    between atoms: S_3  and  C_4
REMARK    4  A    between atoms: C_7  and  C_8
REMARK    5  A    between atoms: N_13  and  C_14
REMARK    6  A    between atoms: C_17  and  S_18
REMARK    7  A    between atoms: S_18  and  C_19
REMARK                            x       y       z     vdW  Elec       q    Type
REMARK                         _______ _______ _______ _____ _____    ______ ____
ROOT
ATOM      1  C   UNL     1       3.702   3.775  19.596  0.00  0.00    +0.000 A 
ATOM      2  C   UNL     1       3.727   2.658  20.442  0.00  0.00    +0.000 A 
ATOM      3 CL   UNL     1       4.655   1.232  20.300  0.00  0.00    +0.000 Cl
ATOM      4  N   UNL     1       2.928   2.833  21.541  0.00  0.00    +0.000 NA
ATOM      5  C   UNL     1       2.418   4.027  21.406  0.00  0.00    +0.000 A 
ATOM      6  N   UNL     1       2.802   4.643  20.236  0.00  0.00    +0.000 N 
ENDROOT
BRANCH   1  10
ATOM      7  C   UNL     1       6.110   4.590  16.103  0.00  0.00    +0.000 A 
ATOM      8  C   UNL     1       6.519   5.017  17.366  0.00  0.00    +0.000 A 
ATOM      9  C   UNL     1       5.751   4.729  18.502  0.00  0.00    +0.000 A 
ATOM     10  C   UNL     1       4.520   4.068  18.399  0.00  0.00    +0.000 A 
ATOM     11  C   UNL     1       4.089   3.721  17.107  0.00  0.00    +0.000 A 
ATOM     12  C   UNL     1       4.893   3.925  15.983  0.00  0.00    +0.000 A 
BRANCH   7  13
ATOM     13  S   UNL     1       7.038   4.954  14.629  0.00  0.00    +0.000 S 
BRANCH  13  15
ATOM     14  C   UNL     1       6.947   3.915  12.110  0.00  0.00    +0.000 C 
ATOM     15  C   UNL     1       6.225   3.839  13.441  0.00  0.00    +0.000 C 
ENDBRANCH  13  15
ENDBRANCH   7  13
ENDBRANCH   1  10
BRANCH   6  16
ATOM     16  C   UNL     1       2.345   5.933  19.832  0.00  0.00    +0.000 A 
ATOM     17  C   UNL     1       1.761   6.792  20.778  0.00  0.00    +0.000 A 
ATOM     18  C   UNL     1       1.434   8.105  20.422  0.00  0.00    +0.000 A 
ATOM     19  C   UNL     1       1.691   8.553  19.123  0.00  0.00    +0.000 A 
ATOM     20  C   UNL     1       2.215   7.690  18.160  0.00  0.00    +0.000 A 
ATOM     21  C   UNL     1       2.524   6.372  18.514  0.00  0.00    +0.000 A 
BRANCH  19  22
ATOM     22  S   UNL     1       1.281  10.221  18.661  0.00  0.00    +0.000 S 
ATOM     23  C   UNL     1      -0.357  10.091  17.994  0.00  0.00    +0.000 C 
ATOM     24  O   UNL     1       1.209  11.002  19.880  0.00  0.00    +0.000 OA
ATOM     25  O   UNL     1       2.177  10.599  17.585  0.00  0.00    +0.000 OA
ENDBRANCH  19  22
ENDBRANCH   6  16
TORSDOF 5
ENDMDL
MODEL 2
REMARK VINA RESULT:      -7.3      0.727      1.280
REMARK  Name = 
REMARK  7 active torsions:
REMARK  status: ('A' for Active; 'I' for Inactive)
REMARK    1  A    between atoms: C_1  and  C_2
REMARK    2  A    between atoms: C_2  and  S_3
REMARK    3  A    between atoms: S_3  and  C_4
REMARK    4  A    between atoms: C_7  and  C_8
REMARK    5  A    between atoms: N_13  and  C_14
REMARK    6  A    between atoms: C_17  and  S_18
REMARK    7  A    between atoms: S_18  and  C_19
REMARK                            x       y       z     vdW  Elec       q    Type
REMARK                         _______ _______ _______ _____ _____    ______ ____
ROOT
ATOM      1  C   UNL     1       3.690   3.773  19.614  0.00  0.00    +0.000 A 
ATOM      2  C   UNL     1       3.737   2.667  20.474  0.00  0.00    +0.000 A 
ATOM      3 CL   UNL     1       4.674   1.247  20.336  0.00  0.00    +0.000 Cl
ATOM      4  N   UNL     1       2.953   2.849  21.583  0.00  0.00    +0.000 NA
ATOM      5  C   UNL     1       2.431   4.038  21.441  0.00  0.00    +0.000 A 
ATOM      6  N   UNL     1       2.793   4.642  20.257  0.00  0.00    +0.000 N 
ENDROOT
BRANCH   1  10
ATOM      7  C   UNL     1       5.999   4.642  16.068  0.00  0.00    +0.000 A 
ATOM      8  C   UNL     1       4.831   3.885  15.990  0.00  0.00    +0.000 A 
ATOM      9  C   UNL     1       4.068   3.626  17.136  0.00  0.00    +0.000 A 
ATOM     10  C   UNL     1       4.488   4.057  18.401  0.00  0.00    +0.000 A 
ATOM     11  C   UNL     1       5.710   4.747  18.467  0.00  0.00    +0.000 A 
ATOM     12  C   UNL     1       6.427   5.085  17.317  0.00  0.00    +0.000 A 
BRANCH   7  13
ATOM     13  S   UNL     1       7.015   4.976  14.646  0.00  0.00    +0.000 S 
BRANCH  13  15
ATOM     14  C   UNL     1       7.023   3.943  12.123  0.00  0.00    +0.000 C 
ATOM     15  C   UNL     1       6.228   3.890  13.414  0.00  0.00    +0.000 C 
ENDBRANCH  13  15
ENDBRANCH   7  13
ENDBRANCH   1  10
BRANCH   6  16
ATOM     16  C   UNL     1       2.319   5.923  19.844  0.00  0.00    +0.000 A 
ATOM     17  C   UNL     1       1.748   6.791  20.788  0.00  0.00    +0.000 A 
ATOM     18  C   UNL     1       1.405   8.097  20.421  0.00  0.00    +0.000 A 
ATOM     19  C   UNL     1       1.634   8.528  19.111  0.00  0.00    +0.000 A 
ATOM     20  C   UNL     1       2.146   7.655  18.151  0.00  0.00    +0.000 A 
ATOM     21  C   UNL     1       2.471   6.344  18.517  0.00  0.00    +0.000 A 
BRANCH  19  22
ATOM     22  S   UNL     1       1.204  10.187  18.633  0.00  0.00    +0.000 S 
ATOM     23  C   UNL     1       0.981  11.033  20.176  0.00  0.00    +0.000 C 
ATOM     24  O   UNL     1       2.360  10.758  17.970  0.00  0.00    +0.000 OA
ATOM     25  O   UNL     1      -0.081  10.120  17.966  0.00  0.00    +0.000 OA
ENDBRANCH  19  22
ENDBRANCH   6  16
TORSDOF 5
ENDMDL
MODEL 3
REMARK VINA RESULT:      -7.3      0.778      1.309
REMARK  Name = 
REMARK  7 active torsions:
REMARK  status: ('A' for Active; 'I' for Inactive)
REMARK    1  A    between atoms: C_1  and  C_2
REMARK    2  A    between atoms: C_2  and  S_3
REMARK    3  A    between atoms: S_3  and  C_4
REMARK    4  A    between atoms: C_7  and  C_8
REMARK    5  A    between atoms: N_13  and  C_14
REMARK    6  A    between atoms: C_17  and  S_18
REMARK    7  A    between atoms: S_18  and  C_19
REMARK                            x       y       z     vdW  Elec       q    Type
REMARK                         _______ _______ _______ _____ _____    ______ ____
ROOT
ATOM      1  C   UNL     1       3.591   3.861  19.419  0.00  0.00    +0.000 A 
ATOM      2  C   UNL     1       3.493   2.696  20.192  0.00  0.00    +0.000 A 
ATOM      3 CL   UNL     1       4.264   1.191  19.956  0.00  0.00    +0.000 Cl
ATOM      4  N   UNL     1       2.712   2.885  21.302  0.00  0.00    +0.000 NA
ATOM      5  C   UNL     1       2.333   4.132  21.245  0.00  0.00    +0.000 A 
ATOM      6  N   UNL     1       2.786   4.778  20.116  0.00  0.00    +0.000 N 
ENDROOT
BRANCH   1  10
ATOM      7  C   UNL     1       6.091   4.639  15.983  0.00  0.00    +0.000 A 
ATOM      8  C   UNL     1       6.478   5.057  17.255  0.00  0.00    +0.000 A 
ATOM      9  C   UNL     1       5.681   4.781  18.373  0.00  0.00    +0.000 A 
ATOM     10  C   UNL     1       4.441   4.141  18.241  0.00  0.00    +0.000 A 
ATOM     11  C   UNL     1       4.033   3.803  16.940  0.00  0.00    +0.000 A 
ATOM     12  C   UNL     1       4.866   3.995  15.834  0.00  0.00    +0.000 A 
BRANCH   7  13
ATOM     13  S   UNL     1       7.058   4.988  14.531  0.00  0.00    +0.000 S 
BRANCH  13  15
ATOM     14  C   UNL     1       7.084   3.835  12.060  0.00  0.00    +0.000 C 
ATOM     15  C   UNL     1       6.238   3.906  13.317  0.00  0.00    +0.000 C 
ENDBRANCH  13  15
ENDBRANCH   7  13
ENDBRANCH   1  10
BRANCH   6  16
ATOM     16  C   UNL     1       2.470   6.132  19.796  0.00  0.00    +0.000 A 
ATOM     17  C   UNL     1       2.632   6.592  18.479  0.00  0.00    +0.000 A 
ATOM     18  C   UNL     1       2.199   7.875  18.128  0.00  0.00    +0.000 A 
ATOM     19  C   UNL     1       1.607   8.692  19.094  0.00  0.00    +0.000 A 
ATOM     20  C   UNL     1       1.495   8.268  20.419  0.00  0.00    +0.000 A 
ATOM     21  C   UNL     1       1.946   6.991  20.771  0.00  0.00    +0.000 A 
BRANCH  19  22
ATOM     22  S   UNL     1       1.050  10.325  18.658  0.00  0.00    +0.000 S 
ATOM     23  C   UNL     1       0.808  11.127  20.221  0.00  0.00    +0.000 C 
ATOM     24  O   UNL     1       2.145  10.987  17.978  0.00  0.00    +0.000 OA
ATOM     25  O   UNL     1      -0.244  10.180  18.021  0.00  0.00    +0.000 OA
ENDBRANCH  19  22
ENDBRANCH   6  16
TORSDOF 5
ENDMDL
MODEL 4
REMARK VINA RESULT:      -7.1      0.245      1.384
REMARK  Name = 
REMARK  7 active torsions:
REMARK  status: ('A' for Active; 'I' for Inactive)
REMARK    1  A    between atoms: C_1  and  C_2
REMARK    2  A    between atoms: C_2  and  S_3
REMARK    3  A    between atoms: S_3  and  C_4
REMARK    4  A    between atoms: C_7  and  C_8
REMARK    5  A    between atoms: N_13  and  C_14
REMARK    6  A    between atoms: C_17  and  S_18
REMARK    7  A    between atoms: S_18  and  C_19
REMARK                            x       y       z     vdW  Elec       q    Type
REMARK                         _______ _______ _______ _____ _____    ______ ____
ROOT
ATOM      1  C   UNL     1       3.572   3.872  19.442  0.00  0.00    +0.000 A 
ATOM      2  C   UNL     1       3.463   2.714  20.223  0.00  0.00    +0.000 A 
ATOM      3 CL   UNL     1       4.209   1.196  19.992  0.00  0.00    +0.000 Cl
ATOM      4  N   UNL     1       2.692   2.921  21.337  0.00  0.00    +0.000 NA
ATOM      5  C   UNL     1       2.332   4.174  21.275  0.00  0.00    +0.000 A 
ATOM      6  N   UNL     1       2.786   4.805  20.138  0.00  0.00    +0.000 N 
ENDROOT
BRANCH   1  10
ATOM      7  C   UNL     1       6.027   4.671  15.978  0.00  0.00    +0.000 A 
ATOM      8  C   UNL     1       4.779   4.066  15.842  0.00  0.00    +0.000 A 
ATOM      9  C   UNL     1       3.971   3.832  16.963  0.00  0.00    +0.000 A 
ATOM     10  C   UNL     1       4.418   4.131  18.256  0.00  0.00    +0.000 A 
ATOM     11  C   UNL     1       5.713   4.664  18.376  0.00  0.00    +0.000 A 
ATOM     12  C   UNL     1       6.485   4.983  17.256  0.00  0.00    +0.000 A 
BRANCH   7  13
ATOM     13  S   UNL     1       7.099   4.966  14.589  0.00  0.00    +0.000 S 
BRANCH  13  15
ATOM     14  C   UNL     1       7.073   4.033  12.027  0.00  0.00    +0.000 C 
ATOM     15  C   UNL     1       6.337   3.877  13.344  0.00  0.00    +0.000 C 
ENDBRANCH  13  15
ENDBRANCH   7  13
ENDBRANCH   1  10
BRANCH   6  16
ATOM     16  C   UNL     1       2.489   6.162  19.812  0.00  0.00    +0.000 A 
ATOM     17  C   UNL     1       2.721   6.630  18.508  0.00  0.00    +0.000 A 
ATOM     18  C   UNL     1       2.308   7.916  18.143  0.00  0.00    +0.000 A 
ATOM     19  C   UNL     1       1.666   8.728  19.082  0.00  0.00    +0.000 A 
ATOM     20  C   UNL     1       1.484   8.295  20.396  0.00  0.00    +0.000 A 
ATOM     21  C   UNL     1       1.915   7.015  20.763  0.00  0.00    +0.000 A 
BRANCH  19  22
ATOM     22  S   UNL     1       1.134  10.364  18.629  0.00  0.00    +0.000 S 
ATOM     23  C   UNL     1      -0.506  10.122  17.999  0.00  0.00    +0.000 C 
ATOM     24  O   UNL     1       1.037  11.140  19.849  0.00  0.00    +0.000 OA
ATOM     25  O   UNL     1       1.978  10.800  17.533  0.00  0.00    +0.000 OA
ENDBRANCH  19  22
ENDBRANCH   6  16
TORSDOF 5
ENDMDL
MODEL 5
REMARK VINA RESULT:      -6.6      0.826      1.002
REMARK  Name = 
REMARK  7 active torsions:
REMARK  status: ('A' for Active; 'I' for Inactive)
REMARK    1  A    between atoms: C_1  and  C_2
REMARK    2  A    between atoms: C_2  and  S_3
REMARK    3  A    between atoms: S_3  and  C_4
REMARK    4  A    between atoms: C_7  and  C_8
REMARK    5  A    between atoms: N_13  and  C_14
REMARK    6  A    between atoms: C_17  and  S_18
REMARK    7  A    between atoms: S_18  and  C_19
REMARK                            x       y       z     vdW  Elec       q    Type
REMARK                         _______ _______ _______ _____ _____    ______ ____
ROOT
ATOM      1  C   UNL     1       3.639   3.798  19.666  0.00  0.00    +0.000 A 
ATOM      2  C   UNL     1       3.718   2.676  20.502  0.00  0.00    +0.000 A 
ATOM      3 CL   UNL     1       4.661   1.265  20.308  0.00  0.00    +0.000 Cl
ATOM      4  N   UNL     1       2.964   2.830  21.636  0.00  0.00    +0.000 NA
ATOM      5  C   UNL     1       2.431   4.017  21.532  0.00  0.00    +0.000 A 
ATOM      6  N   UNL     1       2.755   4.647  20.352  0.00  0.00    +0.000 N 
ENDROOT
BRANCH   1  10
ATOM      7  C   UNL     1       5.882   4.676  16.080  0.00  0.00    +0.000 A 
ATOM      8  C   UNL     1       6.343   5.090  17.328  0.00  0.00    +0.000 A 
ATOM      9  C   UNL     1       5.630   4.782  18.494  0.00  0.00    +0.000 A 
ATOM     10  C   UNL     1       4.401   4.112  18.437  0.00  0.00    +0.000 A 
ATOM     11  C   UNL     1       3.915   3.777  17.163  0.00  0.00    +0.000 A 
ATOM     12  C   UNL     1       4.666   4.002  16.006  0.00  0.00    +0.000 A 
BRANCH   7  13
ATOM     13  S   UNL     1       6.740   5.065  14.570  0.00  0.00    +0.000 S 
BRANCH  13  15
ATOM     14  C   UNL     1       5.485   3.835  12.485  0.00  0.00    +0.000 C 
ATOM     15  C   UNL     1       6.448   3.540  13.619  0.00  0.00    +0.000 C 
ENDBRANCH  13  15
ENDBRANCH   7  13
ENDBRANCH   1  10
BRANCH   6  16
ATOM     16  C   UNL     1       2.261   5.932  19.978  0.00  0.00    +0.000 A 
ATOM     17  C   UNL     1       1.561   6.709  20.916  0.00  0.00    +0.000 A 
ATOM     18  C   UNL     1       1.191   8.021  20.602  0.00  0.00    +0.000 A 
ATOM     19  C   UNL     1       1.523   8.551  19.352  0.00  0.00    +0.000 A 
ATOM     20  C   UNL     1       2.165   7.769  18.391  0.00  0.00    +0.000 A 
ATOM     21  C   UNL     1       2.517   6.451  18.702  0.00  0.00    +0.000 A 
BRANCH  19  22
ATOM     22  S   UNL     1       1.060  10.219  18.943  0.00  0.00    +0.000 S 
ATOM     23  C   UNL     1       2.391  10.795  17.921  0.00  0.00    +0.000 C 
ATOM     24  O   UNL     1      -0.135  10.148  18.125  0.00  0.00    +0.000 OA
ATOM     25  O   UNL     1       1.076  10.983  20.175  0.00  0.00    +0.000 OA
ENDBRANCH  19  22
ENDBRANCH   6  16
TORSDOF 5
ENDMDL
MODEL 6
REMARK VINA RESULT:      -6.6      5.162      7.549
REMARK  Name = 
REMARK  7 active torsions:
REMARK  status: ('A' for Active; 'I' for Inactive)
REMARK    1  A    between atoms: C_1  and  C_2
REMARK    2  A    between atoms: C_2  and  S_3
REMARK    3  A    between atoms: S_3  and  C_4
REMARK    4  A    between atoms: C_7  and  C_8
REMARK    5  A    between atoms: N_13  and  C_14
REMARK    6  A    between atoms: C_17  and  S_18
REMARK    7  A    between atoms: S_18  and  C_19
REMARK                            x       y       z     vdW  Elec       q    Type
REMARK                         _______ _______ _______ _____ _____    ______ ____
ROOT
ATOM      1  C   UNL     1      -0.186  10.906  18.592  0.00  0.00    +0.000 A 
ATOM      2  C   UNL     1      -1.552  10.947  18.281  0.00  0.00    +0.000 A 
ATOM      3 CL   UNL     1      -2.606   9.650  17.934  0.00  0.00    +0.000 Cl
ATOM      4  N   UNL     1      -2.052  12.221  18.349  0.00  0.00    +0.000 NA
ATOM      5  C   UNL     1      -1.041  12.967  18.702  0.00  0.00    +0.000 A 
ATOM      6  N   UNL     1       0.131  12.255  18.827  0.00  0.00    +0.000 N 
ENDROOT
BRANCH   1  10
ATOM      7  C   UNL     1       2.372   7.469  19.146  0.00  0.00    +0.000 A 
ATOM      8  C   UNL     1       1.691   8.032  20.224  0.00  0.00    +0.000 A 
ATOM      9  C   UNL     1       0.841   9.129  20.040  0.00  0.00    +0.000 A 
ATOM     10  C   UNL     1       0.701   9.738  18.786  0.00  0.00    +0.000 A 
ATOM     11  C   UNL     1       1.460   9.206  17.730  0.00  0.00    +0.000 A 
ATOM     12  C   UNL     1       2.239   8.056  17.890  0.00  0.00    +0.000 A 
BRANCH   7  13
ATOM     13  S   UNL     1       3.481   6.091  19.334  0.00  0.00    +0.000 S 
BRANCH  13  15
ATOM     14  C   UNL     1       1.896   4.405  17.893  0.00  0.00    +0.000 C 
ATOM     15  C   UNL     1       2.299   4.707  19.323  0.00  0.00    +0.000 C 
ENDBRANCH  13  15
ENDBRANCH   7  13
ENDBRANCH   1  10
BRANCH   6  16
ATOM     16  C   UNL     1       1.386  12.846  19.157  0.00  0.00    +0.000 A 
ATOM     17  C   UNL     1       2.234  13.296  18.132  0.00  0.00    +0.000 A 
ATOM     18  C   UNL     1       3.403  13.998  18.448  0.00  0.00    +0.000 A 
ATOM     19  C   UNL     1       3.719  14.245  19.786  0.00  0.00    +0.000 A 
ATOM     20  C   UNL     1       2.915  13.751  20.814  0.00  0.00    +0.000 A 
ATOM     21  C   UNL     1       1.756  13.034  20.495  0.00  0.00    +0.000 A 
BRANCH  19  22
ATOM     22  S   UNL     1       5.201  15.138  20.200  0.00  0.00    +0.000 S 
ATOM     23  C   UNL     1       4.688  16.835  20.219  0.00  0.00    +0.000 C 
ATOM     24  O   UNL     1       5.568  14.764  21.551  0.00  0.00    +0.000 OA
ATOM     25  O   UNL     1       6.129  14.960  19.100  0.00  0.00    +0.000 OA
ENDBRANCH  19  22
ENDBRANCH   6  16
TORSDOF 5
ENDMDL
MODEL 7
REMARK VINA RESULT:      -6.6      5.130      7.520
REMARK  Name = 
REMARK  7 active torsions:
REMARK  status: ('A' for Active; 'I' for Inactive)
REMARK    1  A    between atoms: C_1  and  C_2
REMARK    2  A    between atoms: C_2  and  S_3
REMARK    3  A    between atoms: S_3  and  C_4
REMARK    4  A    between atoms: C_7  and  C_8
REMARK    5  A    between atoms: N_13  and  C_14
REMARK    6  A    between atoms: C_17  and  S_18
REMARK    7  A    between atoms: S_18  and  C_19
REMARK                            x       y       z     vdW  Elec       q    Type
REMARK                         _______ _______ _______ _____ _____    ______ ____
ROOT
ATOM      1  C   UNL     1      -0.209  10.896  18.634  0.00  0.00    +0.000 A 
ATOM      2  C   UNL     1      -1.573  10.932  18.315  0.00  0.00    +0.000 A 
ATOM      3 CL   UNL     1      -2.610   9.635  17.917  0.00  0.00    +0.000 Cl
ATOM      4  N   UNL     1      -2.088  12.197  18.421  0.00  0.00    +0.000 NA
ATOM      5  C   UNL     1      -1.088  12.942  18.807  0.00  0.00    +0.000 A 
ATOM      6  N   UNL     1       0.091  12.239  18.916  0.00  0.00    +0.000 N 
ENDROOT
BRANCH   1  10
ATOM      7  C   UNL     1       2.450   7.525  19.117  0.00  0.00    +0.000 A 
ATOM      8  C   UNL     1       2.293   8.137  17.874  0.00  0.00    +0.000 A 
ATOM      9  C   UNL     1       1.452   9.247  17.724  0.00  0.00    +0.000 A 
ATOM     10  C   UNL     1       0.691   9.732  18.795  0.00  0.00    +0.000 A 
ATOM     11  C   UNL     1       0.802   9.049  20.017  0.00  0.00    +0.000 A 
ATOM     12  C   UNL     1       1.707   7.999  20.195  0.00  0.00    +0.000 A 
BRANCH   7  13
ATOM     13  S   UNL     1       3.487   6.098  19.352  0.00  0.00    +0.000 S 
BRANCH  13  15
ATOM     14  C   UNL     1       1.858   4.474  17.889  0.00  0.00    +0.000 C 
ATOM     15  C   UNL     1       3.183   5.206  17.795  0.00  0.00    +0.000 C 
ENDBRANCH  13  15
ENDBRANCH   7  13
ENDBRANCH   1  10
BRANCH   6  16
ATOM     16  C   UNL     1       1.338  12.833  19.274  0.00  0.00    +0.000 A 
ATOM     17  C   UNL     1       2.238  13.220  18.269  0.00  0.00    +0.000 A 
ATOM     18  C   UNL     1       3.400  13.924  18.603  0.00  0.00    +0.000 A 
ATOM     19  C   UNL     1       3.657  14.238  19.940  0.00  0.00    +0.000 A 
ATOM     20  C   UNL     1       2.798  13.807  20.953  0.00  0.00    +0.000 A 
ATOM     21  C   UNL     1       1.647  13.087  20.617  0.00  0.00    +0.000 A 
BRANCH  19  22
ATOM     22  S   UNL     1       5.130  15.134  20.377  0.00  0.00    +0.000 S 
ATOM     23  C   UNL     1       6.129  15.057  18.914  0.00  0.00    +0.000 C 
ATOM     24  O   UNL     1       4.747  16.517  20.587  0.00  0.00    +0.000 OA
ATOM     25  O   UNL     1       5.797  14.379  21.419  0.00  0.00    +0.000 OA
ENDBRANCH  19  22
ENDBRANCH   6  16
TORSDOF 5
ENDMDL
MODEL 8
REMARK VINA RESULT:      -6.6      4.338      8.282
REMARK  Name = 
REMARK  7 active torsions:
REMARK  status: ('A' for Active; 'I' for Inactive)
REMARK    1  A    between atoms: C_1  and  C_2
REMARK    2  A    between atoms: C_2  and  S_3
REMARK    3  A    between atoms: S_3  and  C_4
REMARK    4  A    between atoms: C_7  and  C_8
REMARK    5  A    between atoms: N_13  and  C_14
REMARK    6  A    between atoms: C_17  and  S_18
REMARK    7  A    between atoms: S_18  and  C_19
REMARK                            x       y       z     vdW  Elec       q    Type
REMARK                         _______ _______ _______ _____ _____    ______ ____
ROOT
ATOM      1  C   UNL     1      -0.147  10.171  21.020  0.00  0.00    +0.000 A 
ATOM      2  C   UNL     1      -0.372  10.722  22.288  0.00  0.00    +0.000 A 
ATOM      3 CL   UNL     1      -1.445  11.974  22.733  0.00  0.00    +0.000 Cl
ATOM      4  N   UNL     1       0.348  10.078  23.260  0.00  0.00    +0.000 NA
ATOM      5  C   UNL     1       1.003   9.139  22.633  0.00  0.00    +0.000 A 
ATOM      6  N   UNL     1       0.791   9.156  21.272  0.00  0.00    +0.000 N 
ENDROOT
BRANCH   1  10
ATOM      7  C   UNL     1      -2.090  10.985  17.248  0.00  0.00    +0.000 A 
ATOM      8  C   UNL     1      -1.348  11.972  17.895  0.00  0.00    +0.000 A 
ATOM      9  C   UNL     1      -0.696  11.700  19.105  0.00  0.00    +0.000 A 
ATOM     10  C   UNL     1      -0.824  10.455  19.736  0.00  0.00    +0.000 A 
ATOM     11  C   UNL     1      -1.644   9.503  19.106  0.00  0.00    +0.000 A 
ATOM     12  C   UNL     1      -2.222   9.740  17.856  0.00  0.00    +0.000 A 
BRANCH   7  13
ATOM     13  S   UNL     1      -2.956  11.290  15.724  0.00  0.00    +0.000 S 
BRANCH  13  15
ATOM     14  C   UNL     1      -5.032  11.992  17.345  0.00  0.00    +0.000 C 
ATOM     15  C   UNL     1      -4.673  11.001  16.254  0.00  0.00    +0.000 C 
ENDBRANCH  13  15
ENDBRANCH   7  13
ENDBRANCH   1  10
BRANCH   6  16
ATOM     16  C   UNL     1       1.428   8.264  20.359  0.00  0.00    +0.000 A 
ATOM     17  C   UNL     1       1.890   8.745  19.123  0.00  0.00    +0.000 A 
ATOM     18  C   UNL     1       2.633   7.911  18.281  0.00  0.00    +0.000 A 
ATOM     19  C   UNL     1       2.910   6.600  18.677  0.00  0.00    +0.000 A 
ATOM     20  C   UNL     1       2.406   6.094  19.875  0.00  0.00    +0.000 A 
ATOM     21  C   UNL     1       1.647   6.925  20.707  0.00  0.00    +0.000 A 
BRANCH  19  22
ATOM     22  S   UNL     1       3.856   5.532  17.615  0.00  0.00    +0.000 S 
ATOM     23  C   UNL     1       5.124   4.888  18.675  0.00  0.00    +0.000 C 
ATOM     24  O   UNL     1       2.993   4.433  17.229  0.00  0.00    +0.000 OA
ATOM     25  O   UNL     1       4.488   6.371  16.616  0.00  0.00    +0.000 OA
ENDBRANCH  19  22
ENDBRANCH   6  16
TORSDOF 5
ENDMDL
MODEL 9
REMARK VINA RESULT:      -6.5      5.142      7.448
REMARK  Name = 
REMARK  7 active torsions:
REMARK  status: ('A' for Active; 'I' for Inactive)
REMARK    1  A    between atoms: C_1  and  C_2
REMARK    2  A    between atoms: C_2  and  S_3
REMARK    3  A    between atoms: S_3  and  C_4
REMARK    4  A    between atoms: C_7  and  C_8
REMARK    5  A    between atoms: N_13  and  C_14
REMARK    6  A    between atoms: C_17  and  S_18
REMARK    7  A    between atoms: S_18  and  C_19
REMARK                            x       y       z     vdW  Elec       q    Type
REMARK                         _______ _______ _______ _____ _____    ______ ____
ROOT
ATOM      1  C   UNL     1      -0.212  10.932  18.623  0.00  0.00    +0.000 A 
ATOM      2  C   UNL     1      -1.579  10.969  18.314  0.00  0.00    +0.000 A 
ATOM      3 CL   UNL     1      -2.628   9.670  17.958  0.00  0.00    +0.000 Cl
ATOM      4  N   UNL     1      -2.085  12.240  18.393  0.00  0.00    +0.000 NA
ATOM      5  C   UNL     1      -1.077  12.988  18.751  0.00  0.00    +0.000 A 
ATOM      6  N   UNL     1       0.098  12.280  18.868  0.00  0.00    +0.000 N 
ENDROOT
BRANCH   1  10
ATOM      7  C   UNL     1       2.361   7.501  19.148  0.00  0.00    +0.000 A 
ATOM      8  C   UNL     1       1.722   8.087  20.240  0.00  0.00    +0.000 A 
ATOM      9  C   UNL     1       0.866   9.182  20.066  0.00  0.00    +0.000 A 
ATOM     10  C   UNL     1       0.680   9.766  18.806  0.00  0.00    +0.000 A 
ATOM     11  C   UNL     1       1.398   9.211  17.734  0.00  0.00    +0.000 A 
ATOM     12  C   UNL     1       2.181   8.064  17.887  0.00  0.00    +0.000 A 
BRANCH   7  13
ATOM     13  S   UNL     1       3.476   6.126  19.322  0.00  0.00    +0.000 S 
BRANCH  13  15
ATOM     14  C   UNL     1       4.350   4.957  17.019  0.00  0.00    +0.000 C 
ATOM     15  C   UNL     1       4.425   6.270  17.775  0.00  0.00    +0.000 C 
ENDBRANCH  13  15
ENDBRANCH   7  13
ENDBRANCH   1  10
BRANCH   6  16
ATOM     16  C   UNL     1       1.352  12.874  19.202  0.00  0.00    +0.000 A 
ATOM     17  C   UNL     1       2.213  13.302  18.178  0.00  0.00    +0.000 A 
ATOM     18  C   UNL     1       3.379  14.006  18.494  0.00  0.00    +0.000 A 
ATOM     19  C   UNL     1       3.681  14.279  19.831  0.00  0.00    +0.000 A 
ATOM     20  C   UNL     1       2.863  13.807  20.858  0.00  0.00    +0.000 A 
ATOM     21  C   UNL     1       1.707  13.087  20.540  0.00  0.00    +0.000 A 
BRANCH  19  22
ATOM     22  S   UNL     1       5.161  15.176  20.244  0.00  0.00    +0.000 S 
ATOM     23  C   UNL     1       6.182  15.005  18.804  0.00  0.00    +0.000 C 
ATOM     24  O   UNL     1       4.797  16.573  20.374  0.00  0.00    +0.000 OA
ATOM     25  O   UNL     1       5.800  14.467  21.336  0.00  0.00    +0.000 OA
ENDBRANCH  19  22
ENDBRANCH   6  16
TORSDOF 5
ENDMDL
