MODEL 1
REMARK VINA RESULT:      -6.9      0.000      0.000
REMARK  Name = 
REMARK  4 active torsions:
REMARK  status: ('A' for Active; 'I' for Inactive)
REMARK    1  A    between atoms: C_2  and  C_14
REMARK    2  A    between atoms: N_3  and  N_4
REMARK    3  A    between atoms: C_5  and  C_6
REMARK    4  A    between atoms: N_16  and  C_17
REMARK                            x       y       z     vdW  Elec       q    Type
REMARK                         _______ _______ _______ _____ _____    ______ ____
ROOT
ATOM      1  O   UNL     1       5.169   7.021  15.396  0.00  0.00    +0.000 OA
ATOM      2  C   UNL     1       5.491   5.964  15.928  0.00  0.00    +0.000 C 
ATOM      3  N   UNL     1       5.204   5.545  17.220  0.00  0.00    +0.000 N 
ATOM      4  H   UNL     1       5.536   4.635  17.535  0.00  0.00    +0.000 HD
ENDROOT
BRANCH   2   5
ATOM      5  C   UNL     1       6.310   4.950  15.115  0.00  0.00    +0.000 C 
ATOM      6  O   UNL     1       7.485   4.749  15.390  0.00  0.00    +0.000 OA
ATOM      7  N   UNL     1       5.576   4.345  14.108  0.00  0.00    +0.000 N 
ATOM      8  H   UNL     1       4.600   4.630  14.040  0.00  0.00    +0.000 HD
BRANCH   7   9
ATOM      9  C   UNL     1       6.099   3.358  13.225  0.00  0.00    +0.000 C 
ATOM     10  C   UNL     1       5.465   3.094  11.883  0.00  0.00    +0.000 C 
ATOM     11  C   UNL     1       6.804   3.764  11.959  0.00  0.00    +0.000 C 
ENDBRANCH   7   9
ENDBRANCH   2   5
BRANCH   3  12
ATOM     12  N   UNL     1       4.507   6.377  18.041  0.00  0.00    +0.000 NA
ATOM     13  C   UNL     1       3.219   6.427  17.903  0.00  0.00    +0.000 C 
BRANCH  13  14
ATOM     14  C   UNL     1       2.415   7.313  18.787  0.00  0.00    +0.000 A 
ATOM     15  C   UNL     1       2.059   8.586  18.309  0.00  0.00    +0.000 A 
ATOM     16  C   UNL     1       1.311   9.463  19.098  0.00  0.00    +0.000 A 
ATOM     17  C   UNL     1       0.910   9.072  20.370  0.00  0.00    +0.000 A 
ATOM     18 CL   UNL     1      -0.010  10.152  21.343  0.00  0.00    +0.000 Cl
ATOM     19  C   UNL     1       1.253   7.812  20.862  0.00  0.00    +0.000 A 
ATOM     20  C   UNL     1       2.004   6.931  20.073  0.00  0.00    +0.000 A 
ATOM     21 CL   UNL     1       2.388   5.392  20.757  0.00  0.00    +0.000 Cl
ENDBRANCH  13  14
ENDBRANCH   3  12
TORSDOF 4
ENDMDL
MODEL 2
REMARK VINA RESULT:      -6.7      6.585      7.607
REMARK  Name = 
REMARK  4 active torsions:
REMARK  status: ('A' for Active; 'I' for Inactive)
REMARK    1  A    between atoms: C_2  and  C_14
REMARK    2  A    between atoms: N_3  and  N_4
REMARK    3  A    between atoms: C_5  and  C_6
REMARK    4  A    between atoms: N_16  and  C_17
REMARK                            x       y       z     vdW  Elec       q    Type
REMARK                         _______ _______ _______ _____ _____    ______ ____
ROOT
ATOM      1  O   UNL     1       7.180   7.443  16.689  0.00  0.00    +0.000 OA
ATOM      2  C   UNL     1       7.546   7.063  17.796  0.00  0.00    +0.000 C 
ATOM      3  N   UNL     1       8.311   7.762  18.720  0.00  0.00    +0.000 N 
ATOM      4  H   UNL     1       8.544   7.322  19.609  0.00  0.00    +0.000 HD
ENDROOT
BRANCH   2   5
ATOM      5  C   UNL     1       7.139   5.657  18.263  0.00  0.00    +0.000 C 
ATOM      6  O   UNL     1       7.949   4.740  18.225  0.00  0.00    +0.000 OA
ATOM      7  N   UNL     1       5.827   5.591  18.702  0.00  0.00    +0.000 N 
ATOM      8  H   UNL     1       5.307   6.467  18.674  0.00  0.00    +0.000 HD
BRANCH   7   9
ATOM      9  C   UNL     1       5.214   4.407  19.201  0.00  0.00    +0.000 C 
ATOM     10  C   UNL     1       3.726   4.334  19.433  0.00  0.00    +0.000 C 
ATOM     11  C   UNL     1       4.346   3.563  18.306  0.00  0.00    +0.000 C 
ENDBRANCH   7   9
ENDBRANCH   2   5
BRANCH   3  12
ATOM     12  N   UNL     1       8.751   9.009  18.400  0.00  0.00    +0.000 NA
ATOM     13  C   UNL     1       9.123   9.788  19.366  0.00  0.00    +0.000 C 
BRANCH  13  14
ATOM     14  C   UNL     1       9.623  11.156  19.061  0.00  0.00    +0.000 A 
ATOM     15  C   UNL     1      10.198  11.391  17.801  0.00  0.00    +0.000 A 
ATOM     16  C   UNL     1      10.690  12.654  17.463  0.00  0.00    +0.000 A 
ATOM     17  C   UNL     1      10.609  13.693  18.383  0.00  0.00    +0.000 A 
ATOM     18 CL   UNL     1      11.216  15.247  17.968  0.00  0.00    +0.000 Cl
ATOM     19  C   UNL     1      10.040  13.480  19.639  0.00  0.00    +0.000 A 
ATOM     20  C   UNL     1       9.547  12.214  19.981  0.00  0.00    +0.000 A 
ATOM     21 CL   UNL     1       8.861  12.033  21.556  0.00  0.00    +0.000 Cl
ENDBRANCH  13  14
ENDBRANCH   3  12
TORSDOF 4
ENDMDL
MODEL 3
REMARK VINA RESULT:      -6.6      6.804      7.949
REMARK  Name = 
REMARK  4 active torsions:
REMARK  status: ('A' for Active; 'I' for Inactive)
REMARK    1  A    between atoms: C_2  and  C_14
REMARK    2  A    between atoms: N_3  and  N_4
REMARK    3  A    between atoms: C_5  and  C_6
REMARK    4  A    between atoms: N_16  and  C_17
REMARK                            x       y       z     vdW  Elec       q    Type
REMARK                         _______ _______ _______ _____ _____    ______ ____
ROOT
ATOM      1  O   UNL     1       7.842   7.245  16.585  0.00  0.00    +0.000 OA
ATOM      2  C   UNL     1       7.762   7.181  17.807  0.00  0.00    +0.000 C 
ATOM      3  N   UNL     1       8.226   8.102  18.735  0.00  0.00    +0.000 N 
ATOM      4  H   UNL     1       8.092   7.922  19.728  0.00  0.00    +0.000 HD
ENDROOT
BRANCH   2   5
ATOM      5  C   UNL     1       7.079   5.956  18.436  0.00  0.00    +0.000 C 
ATOM      6  O   UNL     1       7.744   5.124  19.037  0.00  0.00    +0.000 OA
ATOM      7  N   UNL     1       5.708   5.943  18.241  0.00  0.00    +0.000 N 
ATOM      8  H   UNL     1       5.326   6.734  17.726  0.00  0.00    +0.000 HD
BRANCH   7   9
ATOM      9  C   UNL     1       4.844   4.926  18.739  0.00  0.00    +0.000 C 
ATOM     10  C   UNL     1       3.418   4.808  18.262  0.00  0.00    +0.000 C 
ATOM     11  C   UNL     1       4.430   3.778  17.858  0.00  0.00    +0.000 C 
ENDBRANCH   7   9
ENDBRANCH   2   5
BRANCH   3  12
ATOM     12  N   UNL     1       8.874   9.213  18.290  0.00  0.00    +0.000 NA
ATOM     13  C   UNL     1       9.267  10.080  19.169  0.00  0.00    +0.000 C 
BRANCH  13  14
ATOM     14  C   UNL     1       9.990  11.304  18.728  0.00  0.00    +0.000 A 
ATOM     15  C   UNL     1      11.306  11.499  19.179  0.00  0.00    +0.000 A 
ATOM     16  C   UNL     1      12.030  12.634  18.804  0.00  0.00    +0.000 A 
ATOM     17  C   UNL     1      11.443  13.580  17.972  0.00  0.00    +0.000 A 
ATOM     18 CL   UNL     1      12.333  14.978  17.510  0.00  0.00    +0.000 Cl
ATOM     19  C   UNL     1      10.137  13.404  17.513  0.00  0.00    +0.000 A 
ATOM     20  C   UNL     1       9.409  12.268  17.889  0.00  0.00    +0.000 A 
ATOM     21 CL   UNL     1       7.799  12.126  17.280  0.00  0.00    +0.000 Cl
ENDBRANCH  13  14
ENDBRANCH   3  12
TORSDOF 4
ENDMDL
MODEL 4
REMARK VINA RESULT:      -6.5      6.375      7.188
REMARK  Name = 
REMARK  4 active torsions:
REMARK  status: ('A' for Active; 'I' for Inactive)
REMARK    1  A    between atoms: C_2  and  C_14
REMARK    2  A    between atoms: N_3  and  N_4
REMARK    3  A    between atoms: C_5  and  C_6
REMARK    4  A    between atoms: N_16  and  C_17
REMARK                            x       y       z     vdW  Elec       q    Type
REMARK                         _______ _______ _______ _____ _____    ______ ____
ROOT
ATOM      1  O   UNL     1       8.182   6.406  19.068  0.00  0.00    +0.000 OA
ATOM      2  C   UNL     1       7.728   6.797  17.998  0.00  0.00    +0.000 C 
ATOM      3  N   UNL     1       7.757   8.088  17.488  0.00  0.00    +0.000 N 
ATOM      4  H   UNL     1       7.340   8.274  16.578  0.00  0.00    +0.000 HD
ENDROOT
BRANCH   2   5
ATOM      5  C   UNL     1       7.036   5.780  17.077  0.00  0.00    +0.000 C 
ATOM      6  O   UNL     1       7.324   5.735  15.889  0.00  0.00    +0.000 OA
ATOM      7  N   UNL     1       6.117   4.987  17.742  0.00  0.00    +0.000 N 
ATOM      8  H   UNL     1       6.023   5.161  18.742  0.00  0.00    +0.000 HD
BRANCH   7   9
ATOM      9  C   UNL     1       5.356   3.957  17.118  0.00  0.00    +0.000 C 
ATOM     10  C   UNL     1       4.181   3.321  17.816  0.00  0.00    +0.000 C 
ATOM     11  C   UNL     1       3.953   4.228  16.644  0.00  0.00    +0.000 C 
ENDBRANCH   7   9
ENDBRANCH   2   5
BRANCH   3  12
ATOM     12  N   UNL     1       8.322   9.076  18.233  0.00  0.00    +0.000 NA
ATOM     13  C   UNL     1       8.558  10.212  17.657  0.00  0.00    +0.000 C 
BRANCH  13  14
ATOM     14  C   UNL     1       9.163  11.326  18.437  0.00  0.00    +0.000 A 
ATOM     15  C   UNL     1      10.174  11.018  19.363  0.00  0.00    +0.000 A 
ATOM     16  C   UNL     1      10.773  12.022  20.128  0.00  0.00    +0.000 A 
ATOM     17  C   UNL     1      10.367  13.342  19.970  0.00  0.00    +0.000 A 
ATOM     18 CL   UNL     1      11.103  14.579  20.912  0.00  0.00    +0.000 Cl
ATOM     19  C   UNL     1       9.366  13.667  19.054  0.00  0.00    +0.000 A 
ATOM     20  C   UNL     1       8.763  12.662  18.287  0.00  0.00    +0.000 A 
ATOM     21 CL   UNL     1       7.530  13.148  17.179  0.00  0.00    +0.000 Cl
ENDBRANCH  13  14
ENDBRANCH   3  12
TORSDOF 4
ENDMDL
MODEL 5
REMARK VINA RESULT:      -6.5      6.996      7.705
REMARK  Name = 
REMARK  4 active torsions:
REMARK  status: ('A' for Active; 'I' for Inactive)
REMARK    1  A    between atoms: C_2  and  C_14
REMARK    2  A    between atoms: N_3  and  N_4
REMARK    3  A    between atoms: C_5  and  C_6
REMARK    4  A    between atoms: N_16  and  C_17
REMARK                            x       y       z     vdW  Elec       q    Type
REMARK                         _______ _______ _______ _____ _____    ______ ____
ROOT
ATOM      1  O   UNL     1       7.194   8.887  17.209  0.00  0.00    +0.000 OA
ATOM      2  C   UNL     1       7.875   8.184  17.949  0.00  0.00    +0.000 C 
ATOM      3  N   UNL     1       8.795   8.602  18.901  0.00  0.00    +0.000 N 
ATOM      4  H   UNL     1       9.295   7.905  19.451  0.00  0.00    +0.000 HD
ENDROOT
BRANCH   2   5
ATOM      5  C   UNL     1       7.734   6.658  17.849  0.00  0.00    +0.000 C 
ATOM      6  O   UNL     1       7.948   5.957  18.829  0.00  0.00    +0.000 OA
ATOM      7  N   UNL     1       7.353   6.231  16.588  0.00  0.00    +0.000 N 
ATOM      8  H   UNL     1       7.204   6.966  15.898  0.00  0.00    +0.000 HD
BRANCH   7   9
ATOM      9  C   UNL     1       7.137   4.867  16.241  0.00  0.00    +0.000 C 
ATOM     10  C   UNL     1       5.757   4.347  15.931  0.00  0.00    +0.000 C 
ATOM     11  C   UNL     1       6.767   4.488  14.833  0.00  0.00    +0.000 C 
ENDBRANCH   7   9
ENDBRANCH   2   5
BRANCH   3  12
ATOM     12  N   UNL     1       9.022   9.935  19.055  0.00  0.00    +0.000 NA
ATOM     13  C   UNL     1       9.807  10.519  18.207  0.00  0.00    +0.000 C 
BRANCH  13  14
ATOM     14  C   UNL     1      10.074  11.978  18.329  0.00  0.00    +0.000 A 
ATOM     15  C   UNL     1      11.264  12.388  18.954  0.00  0.00    +0.000 A 
ATOM     16  C   UNL     1      11.563  13.744  19.103  0.00  0.00    +0.000 A 
ATOM     17  C   UNL     1      10.675  14.701  18.627  0.00  0.00    +0.000 A 
ATOM     18 CL   UNL     1      11.042  16.371  18.811  0.00  0.00    +0.000 Cl
ATOM     19  C   UNL     1       9.488  14.314  18.003  0.00  0.00    +0.000 A 
ATOM     20  C   UNL     1       9.185  12.955  17.853  0.00  0.00    +0.000 A 
ATOM     21 CL   UNL     1       7.695  12.560  17.073  0.00  0.00    +0.000 Cl
ENDBRANCH  13  14
ENDBRANCH   3  12
TORSDOF 4
ENDMDL
MODEL 6
REMARK VINA RESULT:      -6.4      1.212      1.696
REMARK  Name = 
REMARK  4 active torsions:
REMARK  status: ('A' for Active; 'I' for Inactive)
REMARK    1  A    between atoms: C_2  and  C_14
REMARK    2  A    between atoms: N_3  and  N_4
REMARK    3  A    between atoms: C_5  and  C_6
REMARK    4  A    between atoms: N_16  and  C_17
REMARK                            x       y       z     vdW  Elec       q    Type
REMARK                         _______ _______ _______ _____ _____    ______ ____
ROOT
ATOM      1  O   UNL     1       5.120   6.960  15.757  0.00  0.00    +0.000 OA
ATOM      2  C   UNL     1       5.517   5.878  16.177  0.00  0.00    +0.000 C 
ATOM      3  N   UNL     1       5.287   5.321  17.428  0.00  0.00    +0.000 N 
ATOM      4  H   UNL     1       5.679   4.407  17.646  0.00  0.00    +0.000 HD
ENDROOT
BRANCH   2   5
ATOM      5  C   UNL     1       6.374   4.999  15.254  0.00  0.00    +0.000 C 
ATOM      6  O   UNL     1       7.582   4.922  15.429  0.00  0.00    +0.000 OA
ATOM      7  N   UNL     1       5.631   4.357  14.277  0.00  0.00    +0.000 N 
ATOM      8  H   UNL     1       4.627   4.532  14.297  0.00  0.00    +0.000 HD
BRANCH   7   9
ATOM      9  C   UNL     1       6.186   3.473  13.308  0.00  0.00    +0.000 C 
ATOM     10  C   UNL     1       5.511   3.244  11.980  0.00  0.00    +0.000 C 
ATOM     11  C   UNL     1       6.795   4.015  12.042  0.00  0.00    +0.000 C 
ENDBRANCH   7   9
ENDBRANCH   2   5
BRANCH   3  12
ATOM     12  N   UNL     1       4.562   6.027  18.338  0.00  0.00    +0.000 NA
ATOM     13  C   UNL     1       3.291   6.163  18.128  0.00  0.00    +0.000 C 
BRANCH  13  14
ATOM     14  C   UNL     1       2.457   6.916  19.104  0.00  0.00    +0.000 A 
ATOM     15  C   UNL     1       2.077   6.272  20.293  0.00  0.00    +0.000 A 
ATOM     16  C   UNL     1       1.289   6.928  21.242  0.00  0.00    +0.000 A 
ATOM     17  C   UNL     1       0.876   8.234  21.008  0.00  0.00    +0.000 A 
ATOM     18 CL   UNL     1      -0.097   9.042  22.175  0.00  0.00    +0.000 Cl
ATOM     19  C   UNL     1       1.243   8.891  19.833  0.00  0.00    +0.000 A 
ATOM     20  C   UNL     1       2.033   8.236  18.880  0.00  0.00    +0.000 A 
ATOM     21 CL   UNL     1       2.441   9.117  17.452  0.00  0.00    +0.000 Cl
ENDBRANCH  13  14
ENDBRANCH   3  12
TORSDOF 4
ENDMDL
MODEL 7
REMARK VINA RESULT:      -6.4      3.081      3.893
REMARK  Name = 
REMARK  4 active torsions:
REMARK  status: ('A' for Active; 'I' for Inactive)
REMARK    1  A    between atoms: C_2  and  C_14
REMARK    2  A    between atoms: N_3  and  N_4
REMARK    3  A    between atoms: C_5  and  C_6
REMARK    4  A    between atoms: N_16  and  C_17
REMARK                            x       y       z     vdW  Elec       q    Type
REMARK                         _______ _______ _______ _____ _____    ______ ____
ROOT
ATOM      1  O   UNL     1       7.239   4.819  16.558  0.00  0.00    +0.000 OA
ATOM      2  C   UNL     1       6.499   4.412  15.668  0.00  0.00    +0.000 C 
ATOM      3  N   UNL     1       5.247   3.830  15.808  0.00  0.00    +0.000 N 
ATOM      4  H   UNL     1       4.738   3.536  14.977  0.00  0.00    +0.000 HD
ENDROOT
BRANCH   2   5
ATOM      5  C   UNL     1       6.966   4.537  14.209  0.00  0.00    +0.000 C 
ATOM      6  O   UNL     1       7.754   5.417  13.891  0.00  0.00    +0.000 OA
ATOM      7  N   UNL     1       6.409   3.578  13.380  0.00  0.00    +0.000 N 
ATOM      8  H   UNL     1       5.781   2.913  13.830  0.00  0.00    +0.000 HD
BRANCH   7   9
ATOM      9  C   UNL     1       6.694   3.468  11.989  0.00  0.00    +0.000 C 
ATOM     10  C   UNL     1       7.432   2.277  11.433  0.00  0.00    +0.000 C 
ATOM     11  C   UNL     1       5.973   2.454  11.141  0.00  0.00    +0.000 C 
ENDBRANCH   7   9
ENDBRANCH   2   5
BRANCH   3  12
ATOM     12  N   UNL     1       4.746   3.644  17.060  0.00  0.00    +0.000 NA
ATOM     13  C   UNL     1       3.459   3.665  17.207  0.00  0.00    +0.000 C 
BRANCH  13  14
ATOM     14  C   UNL     1       2.865   3.454  18.556  0.00  0.00    +0.000 A 
ATOM     15  C   UNL     1       2.300   2.200  18.847  0.00  0.00    +0.000 A 
ATOM     16  C   UNL     1       1.723   1.948  20.093  0.00  0.00    +0.000 A 
ATOM     17  C   UNL     1       1.709   2.948  21.060  0.00  0.00    +0.000 A 
ATOM     18 CL   UNL     1       0.997   2.638  22.595  0.00  0.00    +0.000 Cl
ATOM     19  C   UNL     1       2.266   4.198  20.790  0.00  0.00    +0.000 A 
ATOM     20  C   UNL     1       2.844   4.454  19.540  0.00  0.00    +0.000 A 
ATOM     21 CL   UNL     1       3.509   6.028  19.286  0.00  0.00    +0.000 Cl
ENDBRANCH  13  14
ENDBRANCH   3  12
TORSDOF 4
ENDMDL
MODEL 8
REMARK VINA RESULT:      -6.3      3.471      4.627
REMARK  Name = 
REMARK  4 active torsions:
REMARK  status: ('A' for Active; 'I' for Inactive)
REMARK    1  A    between atoms: C_2  and  C_14
REMARK    2  A    between atoms: N_3  and  N_4
REMARK    3  A    between atoms: C_5  and  C_6
REMARK    4  A    between atoms: N_16  and  C_17
REMARK                            x       y       z     vdW  Elec       q    Type
REMARK                         _______ _______ _______ _____ _____    ______ ____
ROOT
ATOM      1  O   UNL     1       2.239   4.287  21.507  0.00  0.00    +0.000 OA
ATOM      2  C   UNL     1       2.726   4.766  20.487  0.00  0.00    +0.000 C 
ATOM      3  N   UNL     1       2.541   6.045  19.981  0.00  0.00    +0.000 N 
ATOM      4  H   UNL     1       3.010   6.312  19.118  0.00  0.00    +0.000 HD
ENDROOT
BRANCH   2   5
ATOM      5  C   UNL     1       3.654   3.888  19.634  0.00  0.00    +0.000 C 
ATOM      6  O   UNL     1       3.956   2.765  20.013  0.00  0.00    +0.000 OA
ATOM      7  N   UNL     1       4.061   4.509  18.465  0.00  0.00    +0.000 N 
ATOM      8  H   UNL     1       3.692   5.447  18.310  0.00  0.00    +0.000 HD
BRANCH   7   9
ATOM      9  C   UNL     1       4.909   3.902  17.495  0.00  0.00    +0.000 C 
ATOM     10  C   UNL     1       4.953   4.400  16.073  0.00  0.00    +0.000 C 
ATOM     11  C   UNL     1       6.123   4.630  16.982  0.00  0.00    +0.000 C 
ENDBRANCH   7   9
ENDBRANCH   2   5
BRANCH   3  12
ATOM     12  N   UNL     1       1.714   6.900  20.642  0.00  0.00    +0.000 NA
ATOM     13  C   UNL     1       1.681   8.135  20.254  0.00  0.00    +0.000 C 
BRANCH  13  14
ATOM     14  C   UNL     1       0.782   9.103  20.939  0.00  0.00    +0.000 A 
ATOM     15  C   UNL     1       0.638   9.005  22.334  0.00  0.00    +0.000 A 
ATOM     16  C   UNL     1      -0.198   9.882  23.029  0.00  0.00    +0.000 A 
ATOM     17  C   UNL     1      -0.894  10.865  22.335  0.00  0.00    +0.000 A 
ATOM     18 CL   UNL     1      -1.925  11.944  23.191  0.00  0.00    +0.000 Cl
ATOM     19  C   UNL     1      -0.763  10.978  20.951  0.00  0.00    +0.000 A 
ATOM     20  C   UNL     1       0.073  10.100  20.251  0.00  0.00    +0.000 A 
ATOM     21 CL   UNL     1       0.178  10.305  18.539  0.00  0.00    +0.000 Cl
ENDBRANCH  13  14
ENDBRANCH   3  12
TORSDOF 4
ENDMDL
MODEL 9
REMARK VINA RESULT:      -6.3      1.145      1.268
REMARK  Name = 
REMARK  4 active torsions:
REMARK  status: ('A' for Active; 'I' for Inactive)
REMARK    1  A    between atoms: C_2  and  C_14
REMARK    2  A    between atoms: N_3  and  N_4
REMARK    3  A    between atoms: C_5  and  C_6
REMARK    4  A    between atoms: N_16  and  C_17
REMARK                            x       y       z     vdW  Elec       q    Type
REMARK                         _______ _______ _______ _____ _____    ______ ____
ROOT
ATOM      1  O   UNL     1       5.388   6.969  15.803  0.00  0.00    +0.000 OA
ATOM      2  C   UNL     1       5.009   5.906  16.284  0.00  0.00    +0.000 C 
ATOM      3  N   UNL     1       4.176   5.723  17.379  0.00  0.00    +0.000 N 
ATOM      4  H   UNL     1       3.939   4.777  17.673  0.00  0.00    +0.000 HD
ENDROOT
BRANCH   2   5
ATOM      5  C   UNL     1       5.484   4.595  15.638  0.00  0.00    +0.000 C 
ATOM      6  O   UNL     1       5.471   3.555  16.282  0.00  0.00    +0.000 OA
ATOM      7  N   UNL     1       5.889   4.757  14.324  0.00  0.00    +0.000 N 
ATOM      8  H   UNL     1       5.813   5.701  13.949  0.00  0.00    +0.000 HD
BRANCH   7   9
ATOM      9  C   UNL     1       6.356   3.693  13.499  0.00  0.00    +0.000 C 
ATOM     10  C   UNL     1       5.602   3.272  12.264  0.00  0.00    +0.000 C 
ATOM     11  C   UNL     1       6.918   3.978  12.133  0.00  0.00    +0.000 C 
ENDBRANCH   7   9
ENDBRANCH   2   5
BRANCH   3  12
ATOM     12  N   UNL     1       3.717   6.816  18.046  0.00  0.00    +0.000 NA
ATOM     13  C   UNL     1       2.477   7.153  17.882  0.00  0.00    +0.000 C 
BRANCH  13  14
ATOM     14  C   UNL     1       1.929   8.334  18.602  0.00  0.00    +0.000 A 
ATOM     15  C   UNL     1       1.843   9.555  17.911  0.00  0.00    +0.000 A 
ATOM     16  C   UNL     1       1.344  10.698  18.538  0.00  0.00    +0.000 A 
ATOM     17  C   UNL     1       0.925  10.630  19.862  0.00  0.00    +0.000 A 
ATOM     18 CL   UNL     1       0.312  12.038  20.636  0.00  0.00    +0.000 Cl
ATOM     19  C   UNL     1       1.002   9.426  20.565  0.00  0.00    +0.000 A 
ATOM     20  C   UNL     1       1.503   8.278  19.938  0.00  0.00    +0.000 A 
ATOM     21 CL   UNL     1       1.567   6.831  20.878  0.00  0.00    +0.000 Cl
ENDBRANCH  13  14
ENDBRANCH   3  12
TORSDOF 4
ENDMDL
