MODEL 1
REMARK VINA RESULT:      -7.4      0.000      0.000
REMARK  Name = 
REMARK  5 active torsions:
REMARK  status: ('A' for Active; 'I' for Inactive)
REMARK    1  A    between atoms: C_1  and  C_2
REMARK    2  A    between atoms: C_4  and  O_5
REMARK    3  A    between atoms: C_9  and  O_10
REMARK    4  A    between atoms: C_14  and  O_15
REMARK    5  A    between atoms: C_16  and  O_17
REMARK                            x       y       z     vdW  Elec       q    Type
REMARK                         _______ _______ _______ _____ _____    ______ ____
ROOT
ATOM      1  C   UNL     1       8.287   9.181  17.468  0.00  0.00    +0.000 C 
ATOM      2  C   UNL     1       7.399   8.013  17.790  0.00  0.00    +0.000 A 
ATOM      3  C   UNL     1       8.023   6.844  18.251  0.00  0.00    +0.000 A 
ATOM      4  C   UNL     1       7.307   5.677  18.280  0.00  0.00    +0.000 A 
ATOM      5  C   UNL     1       5.994   5.693  17.831  0.00  0.00    +0.000 A 
ATOM      6  C   UNL     1       5.240   6.858  17.665  0.00  0.00    +0.000 A 
ATOM      7  C   UNL     1       5.989   8.042  17.585  0.00  0.00    +0.000 A 
ATOM      8  C   UNL     1       3.716   6.698  17.488  0.00  0.00    +0.000 C 
ATOM      9  C   UNL     1       3.298   5.225  17.919  0.00  0.00    +0.000 C 
ATOM     10  C   UNL     1       1.852   4.739  17.900  0.00  0.00    +0.000 C 
ATOM     11  C   UNL     1       1.544   3.422  17.800  0.00  0.00    +0.000 C 
ATOM     12  C   UNL     1       2.550   2.311  17.586  0.00  0.00    +0.000 C 
ATOM     13  C   UNL     1       3.998   2.803  17.578  0.00  0.00    +0.000 C 
ATOM     14  C   UNL     1       4.093   4.230  17.066  0.00  0.00    +0.000 C 
ATOM     15  C   UNL     1       5.541   4.541  17.060  0.00  0.00    +0.000 C 
ATOM     16  O   UNL     1       6.332   3.915  16.353  0.00  0.00    +0.000 OA
ENDROOT
BRANCH   4  17
ATOM     17  O   UNL     1       7.892   4.532  18.712  0.00  0.00    +0.000 OA
ATOM     18  H   UNL     1       8.852   4.699  18.740  0.00  0.00    +0.000 HD
ENDBRANCH   4  17
BRANCH   8  19
ATOM     19  O   UNL     1       3.014   7.634  18.308  0.00  0.00    +0.000 OA
ATOM     20  H   UNL     1       2.135   7.276  18.522  0.00  0.00    +0.000 HD
ENDBRANCH   8  19
BRANCH  12  21
ATOM     21  O   UNL     1       2.415   1.341  18.624  0.00  0.00    +0.000 OA
ATOM     22  H   UNL     1       3.039   0.609  18.413  0.00  0.00    +0.000 HD
ENDBRANCH  12  21
BRANCH  13  23
ATOM     23  O   UNL     1       4.547   2.730  18.912  0.00  0.00    +0.000 OA
ATOM     24  H   UNL     1       3.809   2.548  19.518  0.00  0.00    +0.000 HD
ENDBRANCH  13  23
TORSDOF 4
ENDMDL
MODEL 2
REMARK VINA RESULT:      -6.8      2.198      5.120
REMARK  Name = 
REMARK  5 active torsions:
REMARK  status: ('A' for Active; 'I' for Inactive)
REMARK    1  A    between atoms: C_1  and  C_2
REMARK    2  A    between atoms: C_4  and  O_5
REMARK    3  A    between atoms: C_9  and  O_10
REMARK    4  A    between atoms: C_14  and  O_15
REMARK    5  A    between atoms: C_16  and  O_17
REMARK                            x       y       z     vdW  Elec       q    Type
REMARK                         _______ _______ _______ _____ _____    ______ ____
ROOT
ATOM      1  C   UNL     1       1.182   2.665  22.193  0.00  0.00    +0.000 C 
ATOM      2  C   UNL     1       2.101   2.988  21.049  0.00  0.00    +0.000 A 
ATOM      3  C   UNL     1       3.213   2.153  20.868  0.00  0.00    +0.000 A 
ATOM      4  C   UNL     1       4.223   2.564  20.039  0.00  0.00    +0.000 A 
ATOM      5  C   UNL     1       4.114   3.803  19.425  0.00  0.00    +0.000 A 
ATOM      6  C   UNL     1       2.919   4.519  19.318  0.00  0.00    +0.000 A 
ATOM      7  C   UNL     1       1.909   4.123  20.208  0.00  0.00    +0.000 A 
ATOM      8  C   UNL     1       2.887   5.702  18.329  0.00  0.00    +0.000 C 
ATOM      9  C   UNL     1       4.143   5.600  17.360  0.00  0.00    +0.000 C 
ATOM     10  C   UNL     1       4.400   6.597  16.233  0.00  0.00    +0.000 C 
ATOM     11  C   UNL     1       5.645   6.805  15.736  0.00  0.00    +0.000 C 
ATOM     12  C   UNL     1       6.912   6.186  16.286  0.00  0.00    +0.000 C 
ATOM     13  C   UNL     1       6.656   5.208  17.433  0.00  0.00    +0.000 C 
ATOM     14  C   UNL     1       5.413   5.591  18.218  0.00  0.00    +0.000 C 
ATOM     15  C   UNL     1       5.331   4.601  19.316  0.00  0.00    +0.000 C 
ATOM     16  O   UNL     1       6.212   4.512  20.172  0.00  0.00    +0.000 OA
ENDROOT
BRANCH   4  17
ATOM     17  O   UNL     1       5.314   1.778  19.857  0.00  0.00    +0.000 OA
ATOM     18  H   UNL     1       5.147   0.948  20.339  0.00  0.00    +0.000 HD
ENDBRANCH   4  17
BRANCH   8  19
ATOM     19  O   UNL     1       1.695   5.666  17.542  0.00  0.00    +0.000 OA
ATOM     20  H   UNL     1       1.233   4.823  17.697  0.00  0.00    +0.000 HD
ENDBRANCH   8  19
BRANCH  12  21
ATOM     21  O   UNL     1       7.589   5.485  15.245  0.00  0.00    +0.000 OA
ATOM     22  H   UNL     1       8.553   5.650  15.369  0.00  0.00    +0.000 HD
ENDBRANCH  12  21
BRANCH  13  23
ATOM     23  O   UNL     1       6.504   3.869  16.911  0.00  0.00    +0.000 OA
ATOM     24  H   UNL     1       7.206   3.737  16.250  0.00  0.00    +0.000 HD
ENDBRANCH  13  23
TORSDOF 4
ENDMDL
MODEL 3
REMARK VINA RESULT:      -6.4      2.125      5.291
REMARK  Name = 
REMARK  5 active torsions:
REMARK  status: ('A' for Active; 'I' for Inactive)
REMARK    1  A    between atoms: C_1  and  C_2
REMARK    2  A    between atoms: C_4  and  O_5
REMARK    3  A    between atoms: C_9  and  O_10
REMARK    4  A    between atoms: C_14  and  O_15
REMARK    5  A    between atoms: C_16  and  O_17
REMARK                            x       y       z     vdW  Elec       q    Type
REMARK                         _______ _______ _______ _____ _____    ______ ____
ROOT
ATOM      1  C   UNL     1       0.897   2.463  22.481  0.00  0.00    +0.000 C 
ATOM      2  C   UNL     1       1.578   2.923  21.224  0.00  0.00    +0.000 A 
ATOM      3  C   UNL     1       1.953   1.935  20.302  0.00  0.00    +0.000 A 
ATOM      4  C   UNL     1       2.822   2.262  19.294  0.00  0.00    +0.000 A 
ATOM      5  C   UNL     1       3.314   3.558  19.238  0.00  0.00    +0.000 A 
ATOM      6  C   UNL     1       2.746   4.639  19.918  0.00  0.00    +0.000 A 
ATOM      7  C   UNL     1       1.898   4.291  20.981  0.00  0.00    +0.000 A 
ATOM      8  C   UNL     1       3.190   6.055  19.497  0.00  0.00    +0.000 C 
ATOM      9  C   UNL     1       3.934   5.967  18.095  0.00  0.00    +0.000 C 
ATOM     10  C   UNL     1       4.475   7.196  17.369  0.00  0.00    +0.000 C 
ATOM     11  C   UNL     1       5.483   7.104  16.466  0.00  0.00    +0.000 C 
ATOM     12  C   UNL     1       6.254   5.839  16.154  0.00  0.00    +0.000 C 
ATOM     13  C   UNL     1       5.729   4.614  16.902  0.00  0.00    +0.000 C 
ATOM     14  C   UNL     1       5.117   5.003  18.238  0.00  0.00    +0.000 C 
ATOM     15  C   UNL     1       4.714   3.723  18.864  0.00  0.00    +0.000 C 
ATOM     16  O   UNL     1       5.541   2.857  19.153  0.00  0.00    +0.000 OA
ENDROOT
BRANCH   4  17
ATOM     17  O   UNL     1       3.207   1.320  18.397  0.00  0.00    +0.000 OA
ATOM     18  H   UNL     1       4.101   1.032  18.657  0.00  0.00    +0.000 HD
ENDBRANCH   4  17
BRANCH   8  19
ATOM     19  O   UNL     1       2.058   6.916  19.364  0.00  0.00    +0.000 OA
ATOM     20  H   UNL     1       1.346   6.605  19.950  0.00  0.00    +0.000 HD
ENDBRANCH   8  19
BRANCH  12  21
ATOM     21  O   UNL     1       6.181   5.572  14.754  0.00  0.00    +0.000 OA
ATOM     22  H   UNL     1       7.008   5.093  14.512  0.00  0.00    +0.000 HD
ENDBRANCH  12  21
BRANCH  13  23
ATOM     23  O   UNL     1       4.740   3.934  16.097  0.00  0.00    +0.000 OA
ATOM     24  H   UNL     1       4.297   3.286  16.672  0.00  0.00    +0.000 HD
ENDBRANCH  13  23
TORSDOF 4
ENDMDL
MODEL 4
REMARK VINA RESULT:      -6.3      8.642     11.023
REMARK  Name = 
REMARK  5 active torsions:
REMARK  status: ('A' for Active; 'I' for Inactive)
REMARK    1  A    between atoms: C_1  and  C_2
REMARK    2  A    between atoms: C_4  and  O_5
REMARK    3  A    between atoms: C_9  and  O_10
REMARK    4  A    between atoms: C_14  and  O_15
REMARK    5  A    between atoms: C_16  and  O_17
REMARK                            x       y       z     vdW  Elec       q    Type
REMARK                         _______ _______ _______ _____ _____    ______ ____
ROOT
ATOM      1  C   UNL     1       8.135  12.687  24.674  0.00  0.00    +0.000 C 
ATOM      2  C   UNL     1       8.569  12.778  23.239  0.00  0.00    +0.000 A 
ATOM      3  C   UNL     1       8.565  11.589  22.493  0.00  0.00    +0.000 A 
ATOM      4  C   UNL     1       9.216  11.558  21.289  0.00  0.00    +0.000 A 
ATOM      5  C   UNL     1       9.873  12.703  20.861  0.00  0.00    +0.000 A 
ATOM      6  C   UNL     1       9.651  13.976  21.393  0.00  0.00    +0.000 A 
ATOM      7  C   UNL     1       9.029  13.992  22.651  0.00  0.00    +0.000 A 
ATOM      8  C   UNL     1      10.196  15.181  20.601  0.00  0.00    +0.000 C 
ATOM      9  C   UNL     1      10.574  14.706  19.131  0.00  0.00    +0.000 C 
ATOM     10  C   UNL     1      11.113  15.658  18.067  0.00  0.00    +0.000 C 
ATOM     11  C   UNL     1      11.858  15.214  17.025  0.00  0.00    +0.000 C 
ATOM     12  C   UNL     1      12.333  13.788  16.844  0.00  0.00    +0.000 C 
ATOM     13  C   UNL     1      11.814  12.839  17.926  0.00  0.00    +0.000 C 
ATOM     14  C   UNL     1      11.596  13.568  19.241  0.00  0.00    +0.000 C 
ATOM     15  C   UNL     1      11.157  12.522  20.193  0.00  0.00    +0.000 C 
ATOM     16  O   UNL     1      11.886  11.575  20.492  0.00  0.00    +0.000 OA
ENDROOT
BRANCH   4  17
ATOM     17  O   UNL     1       9.234  10.417  20.556  0.00  0.00    +0.000 OA
ATOM     18  H   UNL     1       9.389   9.684  21.179  0.00  0.00    +0.000 HD
ENDBRANCH   4  17
BRANCH   8  19
ATOM     19  O   UNL     1       9.210  16.211  20.511  0.00  0.00    +0.000 OA
ATOM     20  H   UNL     1       8.328  15.806  20.441  0.00  0.00    +0.000 HD
ENDBRANCH   8  19
BRANCH  12  21
ATOM     21  O   UNL     1      11.898  13.299  15.577  0.00  0.00    +0.000 OA
ATOM     22  H   UNL     1      12.657  12.807  15.185  0.00  0.00    +0.000 HD
ENDBRANCH  12  21
BRANCH  13  23
ATOM     23  O   UNL     1      10.574  12.236  17.495  0.00  0.00    +0.000 OA
ATOM     24  H   UNL     1      10.581  12.229  16.523  0.00  0.00    +0.000 HD
ENDBRANCH  13  23
TORSDOF 4
ENDMDL
MODEL 5
REMARK VINA RESULT:      -6.2      2.407      4.553
REMARK  Name = 
REMARK  5 active torsions:
REMARK  status: ('A' for Active; 'I' for Inactive)
REMARK    1  A    between atoms: C_1  and  C_2
REMARK    2  A    between atoms: C_4  and  O_5
REMARK    3  A    between atoms: C_9  and  O_10
REMARK    4  A    between atoms: C_14  and  O_15
REMARK    5  A    between atoms: C_16  and  O_17
REMARK                            x       y       z     vdW  Elec       q    Type
REMARK                         _______ _______ _______ _____ _____    ______ ____
ROOT
ATOM      1  C   UNL     1       0.684   7.913  21.755  0.00  0.00    +0.000 C 
ATOM      2  C   UNL     1       1.425   7.135  20.705  0.00  0.00    +0.000 A 
ATOM      3  C   UNL     1       1.495   5.744  20.871  0.00  0.00    +0.000 A 
ATOM      4  C   UNL     1       2.388   5.030  20.117  0.00  0.00    +0.000 A 
ATOM      5  C   UNL     1       3.205   5.716  19.231  0.00  0.00    +0.000 A 
ATOM      6  C   UNL     1       2.966   7.025  18.802  0.00  0.00    +0.000 A 
ATOM      7  C   UNL     1       2.089   7.763  19.612  0.00  0.00    +0.000 A 
ATOM      8  C   UNL     1       3.758   7.526  17.577  0.00  0.00    +0.000 C 
ATOM      9  C   UNL     1       4.410   6.278  16.837  0.00  0.00    +0.000 C 
ATOM     10  C   UNL     1       5.235   6.413  15.560  0.00  0.00    +0.000 C 
ATOM     11  C   UNL     1       6.154   5.482  15.205  0.00  0.00    +0.000 C 
ATOM     12  C   UNL     1       6.551   4.289  16.048  0.00  0.00    +0.000 C 
ATOM     13  C   UNL     1       5.742   4.169  17.340  0.00  0.00    +0.000 C 
ATOM     14  C   UNL     1       5.297   5.533  17.840  0.00  0.00    +0.000 C 
ATOM     15  C   UNL     1       4.587   5.263  19.112  0.00  0.00    +0.000 C 
ATOM     16  O   UNL     1       5.162   4.761  20.078  0.00  0.00    +0.000 OA
ENDROOT
BRANCH   4  17
ATOM     17  O   UNL     1       2.482   3.685  20.268  0.00  0.00    +0.000 OA
ATOM     18  H   UNL     1       3.432   3.471  20.307  0.00  0.00    +0.000 HD
ENDBRANCH   4  17
BRANCH   8  19
ATOM     19  O   UNL     1       2.893   8.202  16.663  0.00  0.00    +0.000 OA
ATOM     20  H   UNL     1       3.425   8.765  16.073  0.00  0.00    +0.000 HD
ENDBRANCH   8  19
BRANCH  12  21
ATOM     21  O   UNL     1       6.368   3.092  15.294  0.00  0.00    +0.000 OA
ATOM     22  H   UNL     1       6.078   3.364  14.393  0.00  0.00    +0.000 HD
ENDBRANCH  12  21
BRANCH  13  23
ATOM     23  O   UNL     1       4.584   3.335  17.117  0.00  0.00    +0.000 OA
ATOM     24  H   UNL     1       3.955   3.519  17.835  0.00  0.00    +0.000 HD
ENDBRANCH  13  23
TORSDOF 4
ENDMDL
MODEL 6
REMARK VINA RESULT:      -6.2      7.546     11.888
REMARK  Name = 
REMARK  5 active torsions:
REMARK  status: ('A' for Active; 'I' for Inactive)
REMARK    1  A    between atoms: C_1  and  C_2
REMARK    2  A    between atoms: C_4  and  O_5
REMARK    3  A    between atoms: C_9  and  O_10
REMARK    4  A    between atoms: C_14  and  O_15
REMARK    5  A    between atoms: C_16  and  O_17
REMARK                            x       y       z     vdW  Elec       q    Type
REMARK                         _______ _______ _______ _____ _____    ______ ____
ROOT
ATOM      1  C   UNL     1       8.697   9.170  18.598  0.00  0.00    +0.000 C 
ATOM      2  C   UNL     1       9.373  10.487  18.853  0.00  0.00    +0.000 A 
ATOM      3  C   UNL     1       9.405  10.942  20.180  0.00  0.00    +0.000 A 
ATOM      4  C   UNL     1       9.742  12.247  20.426  0.00  0.00    +0.000 A 
ATOM      5  C   UNL     1      10.021  13.074  19.348  0.00  0.00    +0.000 A 
ATOM      6  C   UNL     1      10.311  12.609  18.062  0.00  0.00    +0.000 A 
ATOM      7  C   UNL     1       9.913  11.288  17.806  0.00  0.00    +0.000 A 
ATOM      8  C   UNL     1      10.923  13.615  17.065  0.00  0.00    +0.000 C 
ATOM      9  C   UNL     1      11.443  14.886  17.867  0.00  0.00    +0.000 C 
ATOM     10  C   UNL     1      12.139  16.062  17.188  0.00  0.00    +0.000 C 
ATOM     11  C   UNL     1      12.151  17.299  17.744  0.00  0.00    +0.000 C 
ATOM     12  C   UNL     1      11.410  17.691  19.005  0.00  0.00    +0.000 C 
ATOM     13  C   UNL     1      10.691  16.516  19.670  0.00  0.00    +0.000 C 
ATOM     14  C   UNL     1      10.263  15.480  18.644  0.00  0.00    +0.000 C 
ATOM     15  C   UNL     1       9.537  14.448  19.420  0.00  0.00    +0.000 C 
ATOM     16  O   UNL     1       8.501  14.711  20.032  0.00  0.00    +0.000 OA
ENDROOT
BRANCH   4  17
ATOM     17  O   UNL     1       9.769  12.712  21.700  0.00  0.00    +0.000 OA
ATOM     18  H   UNL     1      10.504  12.259  22.151  0.00  0.00    +0.000 HD
ENDBRANCH   4  17
BRANCH   8  19
ATOM     19  O   UNL     1      12.025  13.026  16.372  0.00  0.00    +0.000 OA
ATOM     20  H   UNL     1      11.771  12.862  15.447  0.00  0.00    +0.000 HD
ENDBRANCH   8  19
BRANCH  12  21
ATOM     21  O   UNL     1      12.330  18.240  19.946  0.00  0.00    +0.000 OA
ATOM     22  H   UNL     1      11.796  18.595  20.694  0.00  0.00    +0.000 HD
ENDBRANCH  12  21
BRANCH  13  23
ATOM     23  O   UNL     1      11.558  15.900  20.647  0.00  0.00    +0.000 OA
ATOM     24  H   UNL     1      11.475  16.414  21.469  0.00  0.00    +0.000 HD
ENDBRANCH  13  23
TORSDOF 4
ENDMDL
MODEL 7
REMARK VINA RESULT:      -6.0      7.812     10.236
REMARK  Name = 
REMARK  5 active torsions:
REMARK  status: ('A' for Active; 'I' for Inactive)
REMARK    1  A    between atoms: C_1  and  C_2
REMARK    2  A    between atoms: C_4  and  O_5
REMARK    3  A    between atoms: C_9  and  O_10
REMARK    4  A    between atoms: C_14  and  O_15
REMARK    5  A    between atoms: C_16  and  O_17
REMARK                            x       y       z     vdW  Elec       q    Type
REMARK                         _______ _______ _______ _____ _____    ______ ____
ROOT
ATOM      1  C   UNL     1      -4.016  14.148  23.981  0.00  0.00    +0.000 C 
ATOM      2  C   UNL     1      -2.988  13.615  23.025  0.00  0.00    +0.000 A 
ATOM      3  C   UNL     1      -2.714  14.385  21.885  0.00  0.00    +0.000 A 
ATOM      4  C   UNL     1      -2.014  13.818  20.853  0.00  0.00    +0.000 A 
ATOM      5  C   UNL     1      -1.620  12.493  20.969  0.00  0.00    +0.000 A 
ATOM      6  C   UNL     1      -1.585  11.791  22.177  0.00  0.00    +0.000 A 
ATOM      7  C   UNL     1      -2.348  12.355  23.212  0.00  0.00    +0.000 A 
ATOM      8  C   UNL     1      -0.815  10.455  22.200  0.00  0.00    +0.000 C 
ATOM      9  C   UNL     1       0.100  10.364  20.903  0.00  0.00    +0.000 C 
ATOM     10  C   UNL     1       1.025   9.182  20.627  0.00  0.00    +0.000 C 
ATOM     11  C   UNL     1       1.423   8.868  19.369  0.00  0.00    +0.000 C 
ATOM     12  C   UNL     1       0.933   9.549  18.109  0.00  0.00    +0.000 C 
ATOM     13  C   UNL     1      -0.015  10.717  18.386  0.00  0.00    +0.000 C 
ATOM     14  C   UNL     1      -0.799  10.499  19.669  0.00  0.00    +0.000 C 
ATOM     15  C   UNL     1      -1.704  11.666  19.770  0.00  0.00    +0.000 C 
ATOM     16  O   UNL     1      -2.571  11.886  18.923  0.00  0.00    +0.000 OA
ENDROOT
BRANCH   4  17
ATOM     17  O   UNL     1      -1.748  14.540  19.736  0.00  0.00    +0.000 OA
ATOM     18  H   UNL     1      -1.082  14.040  19.230  0.00  0.00    +0.000 HD
ENDBRANCH   4  17
BRANCH   8  19
ATOM     19  O   UNL     1       0.018  10.376  23.358  0.00  0.00    +0.000 OA
ATOM     20  H   UNL     1       0.149   9.441  23.596  0.00  0.00    +0.000 HD
ENDBRANCH   8  19
BRANCH  12  21
ATOM     21  O   UNL     1       2.049  10.046  17.372  0.00  0.00    +0.000 OA
ATOM     22  H   UNL     1       2.857   9.659  17.782  0.00  0.00    +0.000 HD
ENDBRANCH  12  21
BRANCH  13  23
ATOM     23  O   UNL     1       0.737  11.947  18.482  0.00  0.00    +0.000 OA
ATOM     24  H   UNL     1       0.195  12.647  18.078  0.00  0.00    +0.000 HD
ENDBRANCH  13  23
TORSDOF 4
ENDMDL
MODEL 8
REMARK VINA RESULT:      -6.0      2.291      3.995
REMARK  Name = 
REMARK  5 active torsions:
REMARK  status: ('A' for Active; 'I' for Inactive)
REMARK    1  A    between atoms: C_1  and  C_2
REMARK    2  A    between atoms: C_4  and  O_5
REMARK    3  A    between atoms: C_9  and  O_10
REMARK    4  A    between atoms: C_14  and  O_15
REMARK    5  A    between atoms: C_16  and  O_17
REMARK                            x       y       z     vdW  Elec       q    Type
REMARK                         _______ _______ _______ _____ _____    ______ ____
ROOT
ATOM      1  C   UNL     1       6.903   4.005  13.789  0.00  0.00    +0.000 C 
ATOM      2  C   UNL     1       5.919   4.463  14.828  0.00  0.00    +0.000 A 
ATOM      3  C   UNL     1       5.992   5.806  15.228  0.00  0.00    +0.000 A 
ATOM      4  C   UNL     1       5.327   6.198  16.359  0.00  0.00    +0.000 A 
ATOM      5  C   UNL     1       4.623   5.243  17.079  0.00  0.00    +0.000 A 
ATOM      6  C   UNL     1       4.261   3.993  16.571  0.00  0.00    +0.000 A 
ATOM      7  C   UNL     1       4.984   3.580  15.442  0.00  0.00    +0.000 A 
ATOM      8  C   UNL     1       3.206   3.187  17.355  0.00  0.00    +0.000 C 
ATOM      9  C   UNL     1       2.480   4.153  18.389  0.00  0.00    +0.000 C 
ATOM     10  C   UNL     1       1.353   3.686  19.305  0.00  0.00    +0.000 C 
ATOM     11  C   UNL     1       1.069   4.324  20.468  0.00  0.00    +0.000 C 
ATOM     12  C   UNL     1       1.872   5.469  21.047  0.00  0.00    +0.000 C 
ATOM     13  C   UNL     1       3.018   5.919  20.140  0.00  0.00    +0.000 C 
ATOM     14  C   UNL     1       3.547   4.765  19.305  0.00  0.00    +0.000 C 
ATOM     15  C   UNL     1       4.676   5.334  18.534  0.00  0.00    +0.000 C 
ATOM     16  O   UNL     1       5.678   5.783  19.093  0.00  0.00    +0.000 OA
ENDROOT
BRANCH   4  17
ATOM     17  O   UNL     1       5.392   7.489  16.771  0.00  0.00    +0.000 OA
ATOM     18  H   UNL     1       5.689   7.474  17.699  0.00  0.00    +0.000 HD
ENDBRANCH   4  17
BRANCH   8  19
ATOM     19  O   UNL     1       2.226   2.645  16.467  0.00  0.00    +0.000 OA
ATOM     20  H   UNL     1       2.643   2.450  15.610  0.00  0.00    +0.000 HD
ENDBRANCH   8  19
BRANCH  12  21
ATOM     21  O   UNL     1       1.014   6.587  21.268  0.00  0.00    +0.000 OA
ATOM     22  H   UNL     1       0.626   6.827  20.394  0.00  0.00    +0.000 HD
ENDBRANCH  12  21
BRANCH  13  23
ATOM     23  O   UNL     1       2.567   6.980  19.269  0.00  0.00    +0.000 OA
ATOM     24  H   UNL     1       2.787   7.822  19.704  0.00  0.00    +0.000 HD
ENDBRANCH  13  23
TORSDOF 4
ENDMDL
MODEL 9
REMARK VINA RESULT:      -6.0      6.656      9.135
REMARK  Name = 
REMARK  5 active torsions:
REMARK  status: ('A' for Active; 'I' for Inactive)
REMARK    1  A    between atoms: C_1  and  C_2
REMARK    2  A    between atoms: C_4  and  O_5
REMARK    3  A    between atoms: C_9  and  O_10
REMARK    4  A    between atoms: C_14  and  O_15
REMARK    5  A    between atoms: C_16  and  O_17
REMARK                            x       y       z     vdW  Elec       q    Type
REMARK                         _______ _______ _______ _____ _____    ______ ____
ROOT
ATOM      1  C   UNL     1       2.994   6.561  19.402  0.00  0.00    +0.000 C 
ATOM      2  C   UNL     1       2.018   7.679  19.635  0.00  0.00    +0.000 A 
ATOM      3  C   UNL     1       1.758   8.535  18.555  0.00  0.00    +0.000 A 
ATOM      4  C   UNL     1       1.114   9.721  18.789  0.00  0.00    +0.000 A 
ATOM      5  C   UNL     1       0.762  10.039  20.093  0.00  0.00    +0.000 A 
ATOM      6  C   UNL     1       0.710   9.110  21.135  0.00  0.00    +0.000 A 
ATOM      7  C   UNL     1       1.416   7.920  20.905  0.00  0.00    +0.000 A 
ATOM      8  C   UNL     1      -0.013   9.536  22.429  0.00  0.00    +0.000 C 
ATOM      9  C   UNL     1      -0.880  10.836  22.134  0.00  0.00    +0.000 C 
ATOM     10  C   UNL     1      -1.754  11.504  23.191  0.00  0.00    +0.000 C 
ATOM     11  C   UNL     1      -2.097  12.814  23.107  0.00  0.00    +0.000 C 
ATOM     12  C   UNL     1      -1.588  13.778  22.057  0.00  0.00    +0.000 C 
ATOM     13  C   UNL     1      -0.692  13.112  21.013  0.00  0.00    +0.000 C 
ATOM     14  C   UNL     1       0.055  11.927  21.602  0.00  0.00    +0.000 C 
ATOM     15  C   UNL     1       0.916  11.430  20.503  0.00  0.00    +0.000 C 
ATOM     16  O   UNL     1       1.802  12.130  20.011  0.00  0.00    +0.000 OA
ENDROOT
BRANCH   4  17
ATOM     17  O   UNL     1       0.861  10.570  17.761  0.00  0.00    +0.000 OA
ATOM     18  H   UNL     1       1.651  10.567  17.191  0.00  0.00    +0.000 HD
ENDBRANCH   4  17
BRANCH   8  19
ATOM     19  O   UNL     1      -0.883   8.497  22.883  0.00  0.00    +0.000 OA
ATOM     20  H   UNL     1      -0.895   8.491  23.857  0.00  0.00    +0.000 HD
ENDBRANCH   8  19
BRANCH  12  21
ATOM     21  O   UNL     1      -2.695  14.372  21.381  0.00  0.00    +0.000 OA
ATOM     22  H   UNL     1      -3.256  14.796  22.071  0.00  0.00    +0.000 HD
ENDBRANCH  12  21
BRANCH  13  23
ATOM     23  O   UNL     1      -1.488  12.673  19.891  0.00  0.00    +0.000 OA
ATOM     24  H   UNL     1      -1.373  13.328  19.182  0.00  0.00    +0.000 HD
ENDBRANCH  13  23
TORSDOF 4
ENDMDL
