MODEL 1
REMARK VINA RESULT:      -7.3      0.000      0.000
REMARK  Name = 
REMARK  7 active torsions:
REMARK  status: ('A' for Active; 'I' for Inactive)
REMARK    1  A    between atoms: C_1  and  C_2
REMARK    2  A    between atoms: N_4  and  C_5
REMARK    3  A    between atoms: N_4  and  C_13
REMARK    4  A    between atoms: C_5  and  C_6
REMARK    5  A    between atoms: C_6  and  N_7
REMARK    6  A    between atoms: N_17  and  C_18
REMARK    7  A    between atoms: C_18  and  C_19
REMARK                            x       y       z     vdW  Elec       q    Type
REMARK                         _______ _______ _______ _____ _____    ______ ____
ROOT
ATOM      1  C   UNL     1       2.075   5.144  18.705  0.00  0.00    +0.000 C 
ATOM      2  C   UNL     1       2.284   5.200  20.223  0.00  0.00    +0.000 C 
ATOM      3  C   UNL     1       1.568   6.407  20.809  0.00  0.00    +0.000 C 
ATOM      4  C   UNL     1       2.009   7.697  20.115  0.00  0.00    +0.000 C 
ATOM      5  N   UNL     1       1.743   7.657  18.665  0.00  0.00    +0.000 NA
ATOM      6  C   UNL     1       2.421   6.499  18.040  0.00  0.00    +0.000 C 
ENDROOT
BRANCH   1  10
ATOM      7  C   UNL     1       0.794   2.537  18.733  0.00  0.00    +0.000 C 
ATOM      8  C   UNL     1       2.180   2.682  18.147  0.00  0.00    +0.000 C 
ATOM      9  O   UNL     1       2.743   1.687  17.686  0.00  0.00    +0.000 OA
ATOM     10  N   UNL     1       2.746   3.960  18.112  0.00  0.00    +0.000 N 
BRANCH  10  11
ATOM     11  C   UNL     1       4.067   4.100  17.464  0.00  0.00    +0.000 C 
BRANCH  11  12
ATOM     12  C   UNL     1       5.328   3.941  18.355  0.00  0.00    +0.000 C 
BRANCH  12  13
ATOM     13  N   UNL     1       6.459   4.848  18.082  0.00  0.00    +0.000 NA
ATOM     14  C   UNL     1       6.094   5.880  17.098  0.00  0.00    +0.000 C 
ATOM     15  C   UNL     1       7.283   6.790  16.787  0.00  0.00    +0.000 C 
ATOM     16  C   UNL     1       7.835   7.436  18.052  0.00  0.00    +0.000 C 
ATOM     17  C   UNL     1       8.134   6.372  19.100  0.00  0.00    +0.000 C 
ATOM     18  C   UNL     1       6.921   5.470  19.336  0.00  0.00    +0.000 C 
ENDBRANCH  12  13
ENDBRANCH  11  12
ENDBRANCH  10  11
ENDBRANCH   1  10
BRANCH   5  19
ATOM     19  C   UNL     1       2.215   8.886  17.996  0.00  0.00    +0.000 C 
BRANCH  19  20
ATOM     20  C   UNL     1       1.333  10.098  18.198  0.00  0.00    +0.000 A 
ATOM     21  C   UNL     1       1.889  11.352  18.485  0.00  0.00    +0.000 A 
ATOM     22  C   UNL     1       1.066  12.457  18.718  0.00  0.00    +0.000 A 
ATOM     23  C   UNL     1      -0.321  12.317  18.667  0.00  0.00    +0.000 A 
ATOM     24  C   UNL     1      -0.880  11.075  18.366  0.00  0.00    +0.000 A 
ATOM     25 CL   UNL     1      -2.591  10.902  18.291  0.00  0.00    +0.000 Cl
ATOM     26  C   UNL     1      -0.064   9.970  18.134  0.00  0.00    +0.000 A 
ENDBRANCH  19  20
ENDBRANCH   5  19
TORSDOF 6
ENDMDL
MODEL 2
REMARK VINA RESULT:      -7.1      1.297      1.610
REMARK  Name = 
REMARK  7 active torsions:
REMARK  status: ('A' for Active; 'I' for Inactive)
REMARK    1  A    between atoms: C_1  and  C_2
REMARK    2  A    between atoms: N_4  and  C_5
REMARK    3  A    between atoms: N_4  and  C_13
REMARK    4  A    between atoms: C_5  and  C_6
REMARK    5  A    between atoms: C_6  and  N_7
REMARK    6  A    between atoms: N_17  and  C_18
REMARK    7  A    between atoms: C_18  and  C_19
REMARK                            x       y       z     vdW  Elec       q    Type
REMARK                         _______ _______ _______ _____ _____    ______ ____
ROOT
ATOM      1  C   UNL     1       2.230   4.928  19.197  0.00  0.00    +0.000 C 
ATOM      2  C   UNL     1       2.307   5.252  20.694  0.00  0.00    +0.000 C 
ATOM      3  C   UNL     1       1.485   6.493  21.007  0.00  0.00    +0.000 C 
ATOM      4  C   UNL     1       1.921   7.673  20.136  0.00  0.00    +0.000 C 
ATOM      5  N   UNL     1       1.782   7.374  18.699  0.00  0.00    +0.000 NA
ATOM      6  C   UNL     1       2.565   6.171  18.336  0.00  0.00    +0.000 C 
ENDROOT
BRANCH   1  10
ATOM      7  C   UNL     1       0.886   2.409  18.665  0.00  0.00    +0.000 C 
ATOM      8  C   UNL     1       2.397   2.467  18.651  0.00  0.00    +0.000 C 
ATOM      9  O   UNL     1       3.034   1.440  18.410  0.00  0.00    +0.000 OA
ATOM     10  N   UNL     1       3.007   3.706  18.869  0.00  0.00    +0.000 N 
BRANCH  10  11
ATOM     11  C   UNL     1       4.480   3.764  18.774  0.00  0.00    +0.000 C 
BRANCH  11  12
ATOM     12  C   UNL     1       5.097   4.294  17.451  0.00  0.00    +0.000 C 
BRANCH  12  13
ATOM     13  N   UNL     1       6.343   5.077  17.561  0.00  0.00    +0.000 NA
ATOM     14  C   UNL     1       6.216   6.385  16.898  0.00  0.00    +0.000 C 
ATOM     15  C   UNL     1       7.524   7.172  16.980  0.00  0.00    +0.000 C 
ATOM     16  C   UNL     1       7.977   7.352  18.423  0.00  0.00    +0.000 C 
ATOM     17  C   UNL     1       8.027   6.005  19.132  0.00  0.00    +0.000 C 
ATOM     18  C   UNL     1       6.706   5.249  18.980  0.00  0.00    +0.000 C 
ENDBRANCH  12  13
ENDBRANCH  11  12
ENDBRANCH  10  11
ENDBRANCH   1  10
BRANCH   5  19
ATOM     19  C   UNL     1       2.248   8.500  17.865  0.00  0.00    +0.000 C 
BRANCH  19  20
ATOM     20  C   UNL     1       1.583   9.826  18.159  0.00  0.00    +0.000 A 
ATOM     21  C   UNL     1       0.194   9.913  18.325  0.00  0.00    +0.000 A 
ATOM     22  C   UNL     1      -0.418  11.150  18.548  0.00  0.00    +0.000 A 
ATOM     23  C   UNL     1       0.354  12.310  18.606  0.00  0.00    +0.000 A 
ATOM     24  C   UNL     1       1.738  12.227  18.457  0.00  0.00    +0.000 A 
ATOM     25 CL   UNL     1       2.694  13.656  18.540  0.00  0.00    +0.000 Cl
ATOM     26  C   UNL     1       2.354  10.997  18.234  0.00  0.00    +0.000 A 
ENDBRANCH  19  20
ENDBRANCH   5  19
TORSDOF 6
ENDMDL
MODEL 3
REMARK VINA RESULT:      -6.8      2.349      4.813
REMARK  Name = 
REMARK  7 active torsions:
REMARK  status: ('A' for Active; 'I' for Inactive)
REMARK    1  A    between atoms: C_1  and  C_2
REMARK    2  A    between atoms: N_4  and  C_5
REMARK    3  A    between atoms: N_4  and  C_13
REMARK    4  A    between atoms: C_5  and  C_6
REMARK    5  A    between atoms: C_6  and  N_7
REMARK    6  A    between atoms: N_17  and  C_18
REMARK    7  A    between atoms: C_18  and  C_19
REMARK                            x       y       z     vdW  Elec       q    Type
REMARK                         _______ _______ _______ _____ _____    ______ ____
ROOT
ATOM      1  C   UNL     1       4.682   6.334  18.385  0.00  0.00    +0.000 C 
ATOM      2  C   UNL     1       4.162   6.772  17.011  0.00  0.00    +0.000 C 
ATOM      3  C   UNL     1       3.294   8.013  17.147  0.00  0.00    +0.000 C 
ATOM      4  C   UNL     1       2.160   7.782  18.148  0.00  0.00    +0.000 C 
ATOM      5  N   UNL     1       2.673   7.425  19.483  0.00  0.00    +0.000 NA
ATOM      6  C   UNL     1       3.527   6.217  19.411  0.00  0.00    +0.000 C 
ENDROOT
BRANCH   1  10
ATOM      7  C   UNL     1       7.574   6.583  18.468  0.00  0.00    +0.000 C 
ATOM      8  C   UNL     1       6.948   5.222  18.267  0.00  0.00    +0.000 C 
ATOM      9  O   UNL     1       7.679   4.237  18.145  0.00  0.00    +0.000 OA
ATOM     10  N   UNL     1       5.552   5.136  18.276  0.00  0.00    +0.000 N 
BRANCH  10  11
ATOM     11  C   UNL     1       4.954   3.790  18.159  0.00  0.00    +0.000 C 
BRANCH  11  12
ATOM     12  C   UNL     1       4.701   2.996  19.469  0.00  0.00    +0.000 C 
BRANCH  12  13
ATOM     13  N   UNL     1       3.309   2.597  19.751  0.00  0.00    +0.000 NA
ATOM     14  C   UNL     1       2.812   3.218  20.990  0.00  0.00    +0.000 C 
ATOM     15  C   UNL     1       1.384   2.765  21.298  0.00  0.00    +0.000 C 
ATOM     16  C   UNL     1       0.443   3.069  20.139  0.00  0.00    +0.000 C 
ATOM     17  C   UNL     1       1.001   2.497  18.843  0.00  0.00    +0.000 C 
ATOM     18  C   UNL     1       2.442   2.951  18.612  0.00  0.00    +0.000 C 
ENDBRANCH  12  13
ENDBRANCH  11  12
ENDBRANCH  10  11
ENDBRANCH   1  10
BRANCH   5  19
ATOM     19  C   UNL     1       1.573   7.157  20.432  0.00  0.00    +0.000 C 
BRANCH  19  20
ATOM     20  C   UNL     1       0.950   8.391  21.046  0.00  0.00    +0.000 A 
ATOM     21  C   UNL     1       0.164   8.300  22.202  0.00  0.00    +0.000 A 
ATOM     22  C   UNL     1      -0.449   9.437  22.736  0.00  0.00    +0.000 A 
ATOM     23  C   UNL     1      -0.281  10.676  22.117  0.00  0.00    +0.000 A 
ATOM     24  C   UNL     1       0.513  10.775  20.975  0.00  0.00    +0.000 A 
ATOM     25 CL   UNL     1       0.732  12.304  20.215  0.00  0.00    +0.000 Cl
ATOM     26  C   UNL     1       1.126   9.644  20.437  0.00  0.00    +0.000 A 
ENDBRANCH  19  20
ENDBRANCH   5  19
TORSDOF 6
ENDMDL
MODEL 4
REMARK VINA RESULT:      -6.8      3.439      6.059
REMARK  Name = 
REMARK  7 active torsions:
REMARK  status: ('A' for Active; 'I' for Inactive)
REMARK    1  A    between atoms: C_1  and  C_2
REMARK    2  A    between atoms: N_4  and  C_5
REMARK    3  A    between atoms: N_4  and  C_13
REMARK    4  A    between atoms: C_5  and  C_6
REMARK    5  A    between atoms: C_6  and  N_7
REMARK    6  A    between atoms: N_17  and  C_18
REMARK    7  A    between atoms: C_18  and  C_19
REMARK                            x       y       z     vdW  Elec       q    Type
REMARK                         _______ _______ _______ _____ _____    ______ ____
ROOT
ATOM      1  C   UNL     1       5.065   6.194  18.123  0.00  0.00    +0.000 C 
ATOM      2  C   UNL     1       4.486   6.962  16.928  0.00  0.00    +0.000 C 
ATOM      3  C   UNL     1       3.541   8.051  17.412  0.00  0.00    +0.000 C 
ATOM      4  C   UNL     1       2.448   7.470  18.312  0.00  0.00    +0.000 C 
ATOM      5  N   UNL     1       3.015   6.790  19.490  0.00  0.00    +0.000 NA
ATOM      6  C   UNL     1       3.945   5.714  19.078  0.00  0.00    +0.000 C 
ENDROOT
BRANCH   1  10
ATOM      7  C   UNL     1       7.905   6.402  18.693  0.00  0.00    +0.000 C 
ATOM      8  C   UNL     1       7.388   5.227  17.895  0.00  0.00    +0.000 C 
ATOM      9  O   UNL     1       8.184   4.372  17.501  0.00  0.00    +0.000 OA
ATOM     10  N   UNL     1       6.010   5.138  17.677  0.00  0.00    +0.000 N 
BRANCH  10  11
ATOM     11  C   UNL     1       5.509   3.944  16.965  0.00  0.00    +0.000 C 
BRANCH  11  12
ATOM     12  C   UNL     1       5.034   4.125  15.498  0.00  0.00    +0.000 C 
BRANCH  12  13
ATOM     13  N   UNL     1       6.052   3.967  14.442  0.00  0.00    +0.000 NA
ATOM     14  C   UNL     1       5.445   3.552  13.167  0.00  0.00    +0.000 C 
ATOM     15  C   UNL     1       6.511   3.350  12.090  0.00  0.00    +0.000 C 
ATOM     16  C   UNL     1       7.349   4.606  11.893  0.00  0.00    +0.000 C 
ATOM     17  C   UNL     1       7.908   5.081  13.227  0.00  0.00    +0.000 C 
ATOM     18  C   UNL     1       6.802   5.226  14.273  0.00  0.00    +0.000 C 
ENDBRANCH  12  13
ENDBRANCH  11  12
ENDBRANCH  10  11
ENDBRANCH   1  10
BRANCH   5  19
ATOM     19  C   UNL     1       1.957   6.191  20.329  0.00  0.00    +0.000 C 
BRANCH  19  20
ATOM     20  C   UNL     1       1.877   4.682  20.269  0.00  0.00    +0.000 A 
ATOM     21  C   UNL     1       1.671   3.925  21.431  0.00  0.00    +0.000 A 
ATOM     22  C   UNL     1       1.647   2.529  21.374  0.00  0.00    +0.000 A 
ATOM     23  C   UNL     1       1.827   1.877  20.154  0.00  0.00    +0.000 A 
ATOM     24  C   UNL     1       2.016   2.625  18.993  0.00  0.00    +0.000 A 
ATOM     25 CL   UNL     1       2.228   1.823  17.484  0.00  0.00    +0.000 Cl
ATOM     26  C   UNL     1       2.043   4.017  19.043  0.00  0.00    +0.000 A 
ENDBRANCH  19  20
ENDBRANCH   5  19
TORSDOF 6
ENDMDL
MODEL 5
REMARK VINA RESULT:      -6.7      1.375      1.906
REMARK  Name = 
REMARK  7 active torsions:
REMARK  status: ('A' for Active; 'I' for Inactive)
REMARK    1  A    between atoms: C_1  and  C_2
REMARK    2  A    between atoms: N_4  and  C_5
REMARK    3  A    between atoms: N_4  and  C_13
REMARK    4  A    between atoms: C_5  and  C_6
REMARK    5  A    between atoms: C_6  and  N_7
REMARK    6  A    between atoms: N_17  and  C_18
REMARK    7  A    between atoms: C_18  and  C_19
REMARK                            x       y       z     vdW  Elec       q    Type
REMARK                         _______ _______ _______ _____ _____    ______ ____
ROOT
ATOM      1  C   UNL     1       2.245   4.913  19.369  0.00  0.00    +0.000 C 
ATOM      2  C   UNL     1       2.297   5.313  20.849  0.00  0.00    +0.000 C 
ATOM      3  C   UNL     1       1.438   6.545  21.091  0.00  0.00    +0.000 C 
ATOM      4  C   UNL     1       1.850   7.692  20.165  0.00  0.00    +0.000 C 
ATOM      5  N   UNL     1       1.734   7.316  18.744  0.00  0.00    +0.000 NA
ATOM      6  C   UNL     1       2.555   6.119  18.450  0.00  0.00    +0.000 C 
ENDROOT
BRANCH   1  10
ATOM      7  C   UNL     1       0.998   2.453  18.457  0.00  0.00    +0.000 C 
ATOM      8  C   UNL     1       2.487   2.484  18.714  0.00  0.00    +0.000 C 
ATOM      9  O   UNL     1       3.150   1.462  18.529  0.00  0.00    +0.000 OA
ATOM     10  N   UNL     1       3.058   3.698  19.111  0.00  0.00    +0.000 N 
BRANCH  10  11
ATOM     11  C   UNL     1       4.526   3.734  19.281  0.00  0.00    +0.000 C 
BRANCH  11  12
ATOM     12  C   UNL     1       5.377   4.254  18.091  0.00  0.00    +0.000 C 
BRANCH  12  13
ATOM     13  N   UNL     1       6.022   5.571  18.256  0.00  0.00    +0.000 NA
ATOM     14  C   UNL     1       7.463   5.434  18.526  0.00  0.00    +0.000 C 
ATOM     15  C   UNL     1       8.115   6.800  18.739  0.00  0.00    +0.000 C 
ATOM     16  C   UNL     1       7.886   7.718  17.545  0.00  0.00    +0.000 C 
ATOM     17  C   UNL     1       6.401   7.792  17.214  0.00  0.00    +0.000 C 
ATOM     18  C   UNL     1       5.798   6.396  17.055  0.00  0.00    +0.000 C 
ENDBRANCH  12  13
ENDBRANCH  11  12
ENDBRANCH  10  11
ENDBRANCH   1  10
BRANCH   5  19
ATOM     19  C   UNL     1       2.178   8.411  17.858  0.00  0.00    +0.000 C 
BRANCH  19  20
ATOM     20  C   UNL     1       1.553   9.757  18.150  0.00  0.00    +0.000 A 
ATOM     21  C   UNL     1       0.167   9.885  18.320  0.00  0.00    +0.000 A 
ATOM     22  C   UNL     1      -0.408  11.140  18.540  0.00  0.00    +0.000 A 
ATOM     23  C   UNL     1       0.398  12.277  18.593  0.00  0.00    +0.000 A 
ATOM     24  C   UNL     1       1.778  12.154  18.440  0.00  0.00    +0.000 A 
ATOM     25 CL   UNL     1       2.776  13.555  18.515  0.00  0.00    +0.000 Cl
ATOM     26  C   UNL     1       2.357  10.906  18.218  0.00  0.00    +0.000 A 
ENDBRANCH  19  20
ENDBRANCH   5  19
TORSDOF 6
ENDMDL
MODEL 6
REMARK VINA RESULT:      -6.6      1.239      1.814
REMARK  Name = 
REMARK  7 active torsions:
REMARK  status: ('A' for Active; 'I' for Inactive)
REMARK    1  A    between atoms: C_1  and  C_2
REMARK    2  A    between atoms: N_4  and  C_5
REMARK    3  A    between atoms: N_4  and  C_13
REMARK    4  A    between atoms: C_5  and  C_6
REMARK    5  A    between atoms: C_6  and  N_7
REMARK    6  A    between atoms: N_17  and  C_18
REMARK    7  A    between atoms: C_18  and  C_19
REMARK                            x       y       z     vdW  Elec       q    Type
REMARK                         _______ _______ _______ _____ _____    ______ ____
ROOT
ATOM      1  C   UNL     1       2.261   4.991  18.521  0.00  0.00    +0.000 C 
ATOM      2  C   UNL     1       2.541   5.039  20.028  0.00  0.00    +0.000 C 
ATOM      3  C   UNL     1       1.810   6.214  20.661  0.00  0.00    +0.000 C 
ATOM      4  C   UNL     1       2.173   7.526  19.962  0.00  0.00    +0.000 C 
ATOM      5  N   UNL     1       1.840   7.491  18.526  0.00  0.00    +0.000 NA
ATOM      6  C   UNL     1       2.527   6.364  17.857  0.00  0.00    +0.000 C 
ENDROOT
BRANCH   1  10
ATOM      7  C   UNL     1       1.941   2.303  19.574  0.00  0.00    +0.000 C 
ATOM      8  C   UNL     1       2.850   2.537  18.388  0.00  0.00    +0.000 C 
ATOM      9  O   UNL     1       3.440   1.578  17.885  0.00  0.00    +0.000 OA
ATOM     10  N   UNL     1       2.945   3.838  17.883  0.00  0.00    +0.000 N 
BRANCH  10  11
ATOM     11  C   UNL     1       3.774   4.039  16.676  0.00  0.00    +0.000 C 
BRANCH  11  12
ATOM     12  C   UNL     1       5.317   4.027  16.850  0.00  0.00    +0.000 C 
BRANCH  12  13
ATOM     13  N   UNL     1       5.911   5.141  17.615  0.00  0.00    +0.000 NA
ATOM     14  C   UNL     1       6.838   4.651  18.647  0.00  0.00    +0.000 C 
ATOM     15  C   UNL     1       7.416   5.808  19.463  0.00  0.00    +0.000 C 
ATOM     16  C   UNL     1       8.110   6.827  18.568  0.00  0.00    +0.000 C 
ATOM     17  C   UNL     1       7.176   7.271  17.451  0.00  0.00    +0.000 C 
ATOM     18  C   UNL     1       6.600   6.070  16.700  0.00  0.00    +0.000 C 
ENDBRANCH  12  13
ENDBRANCH  11  12
ENDBRANCH  10  11
ENDBRANCH   1  10
BRANCH   5  19
ATOM     19  C   UNL     1       2.235   8.742  17.850  0.00  0.00    +0.000 C 
BRANCH  19  20
ATOM     20  C   UNL     1       1.376   9.942  18.180  0.00  0.00    +0.000 A 
ATOM     21  C   UNL     1      -0.023   9.843  18.195  0.00  0.00    +0.000 A 
ATOM     22  C   UNL     1      -0.811  10.968  18.453  0.00  0.00    +0.000 A 
ATOM     23  C   UNL     1      -0.208  12.201  18.698  0.00  0.00    +0.000 A 
ATOM     24  C   UNL     1       1.182  12.303  18.699  0.00  0.00    +0.000 A 
ATOM     25 CL   UNL     1       1.929  13.822  19.012  0.00  0.00    +0.000 Cl
ATOM     26  C   UNL     1       1.974  11.185  18.442  0.00  0.00    +0.000 A 
ENDBRANCH  19  20
ENDBRANCH   5  19
TORSDOF 6
ENDMDL
MODEL 7
REMARK VINA RESULT:      -6.6      3.381      7.580
REMARK  Name = 
REMARK  7 active torsions:
REMARK  status: ('A' for Active; 'I' for Inactive)
REMARK    1  A    between atoms: C_1  and  C_2
REMARK    2  A    between atoms: N_4  and  C_5
REMARK    3  A    between atoms: N_4  and  C_13
REMARK    4  A    between atoms: C_5  and  C_6
REMARK    5  A    between atoms: C_6  and  N_7
REMARK    6  A    between atoms: N_17  and  C_18
REMARK    7  A    between atoms: C_18  and  C_19
REMARK                            x       y       z     vdW  Elec       q    Type
REMARK                         _______ _______ _______ _____ _____    ______ ____
ROOT
ATOM      1  C   UNL     1       2.137   5.848  20.491  0.00  0.00    +0.000 C 
ATOM      2  C   UNL     1       0.878   5.007  20.248  0.00  0.00    +0.000 C 
ATOM      3  C   UNL     1       1.135   3.554  20.618  0.00  0.00    +0.000 C 
ATOM      4  C   UNL     1       2.351   3.005  19.870  0.00  0.00    +0.000 C 
ATOM      5  N   UNL     1       3.570   3.782  20.162  0.00  0.00    +0.000 NA
ATOM      6  C   UNL     1       3.377   5.209  19.818  0.00  0.00    +0.000 C 
ENDROOT
BRANCH   1  10
ATOM      7  C   UNL     1       2.570   6.838  17.795  0.00  0.00    +0.000 C 
ATOM      8  C   UNL     1       2.144   7.797  18.884  0.00  0.00    +0.000 C 
ATOM      9  O   UNL     1       1.985   8.988  18.606  0.00  0.00    +0.000 OA
ATOM     10  N   UNL     1       1.904   7.276  20.159  0.00  0.00    +0.000 N 
BRANCH  10  11
ATOM     11  C   UNL     1       1.412   8.210  21.193  0.00  0.00    +0.000 C 
BRANCH  11  12
ATOM     12  C   UNL     1      -0.122   8.289  21.423  0.00  0.00    +0.000 C 
BRANCH  12  13
ATOM     13  N   UNL     1      -0.704   9.634  21.589  0.00  0.00    +0.000 NA
ATOM     14  C   UNL     1      -0.665  10.068  22.995  0.00  0.00    +0.000 C 
ATOM     15  C   UNL     1      -1.309  11.444  23.165  0.00  0.00    +0.000 C 
ATOM     16  C   UNL     1      -0.644  12.483  22.272  0.00  0.00    +0.000 C 
ATOM     17  C   UNL     1      -0.611  11.996  20.830  0.00  0.00    +0.000 C 
ATOM     18  C   UNL     1       0.006  10.600  20.730  0.00  0.00    +0.000 C 
ENDBRANCH  12  13
ENDBRANCH  11  12
ENDBRANCH  10  11
ENDBRANCH   1  10
BRANCH   5  19
ATOM     19  C   UNL     1       4.729   3.275  19.400  0.00  0.00    +0.000 C 
BRANCH  19  20
ATOM     20  C   UNL     1       5.137   4.129  18.220  0.00  0.00    +0.000 A 
ATOM     21  C   UNL     1       4.632   3.871  16.938  0.00  0.00    +0.000 A 
ATOM     22  C   UNL     1       5.050   4.634  15.844  0.00  0.00    +0.000 A 
ATOM     23  C   UNL     1       5.977   5.660  16.023  0.00  0.00    +0.000 A 
ATOM     24  C   UNL     1       6.471   5.931  17.298  0.00  0.00    +0.000 A 
ATOM     25 CL   UNL     1       7.606   7.205  17.523  0.00  0.00    +0.000 Cl
ATOM     26  C   UNL     1       6.058   5.174  18.393  0.00  0.00    +0.000 A 
ENDBRANCH  19  20
ENDBRANCH   5  19
TORSDOF 6
ENDMDL
MODEL 8
REMARK VINA RESULT:      -6.5      4.107      8.476
REMARK  Name = 
REMARK  7 active torsions:
REMARK  status: ('A' for Active; 'I' for Inactive)
REMARK    1  A    between atoms: C_1  and  C_2
REMARK    2  A    between atoms: N_4  and  C_5
REMARK    3  A    between atoms: N_4  and  C_13
REMARK    4  A    between atoms: C_5  and  C_6
REMARK    5  A    between atoms: C_6  and  N_7
REMARK    6  A    between atoms: N_17  and  C_18
REMARK    7  A    between atoms: C_18  and  C_19
REMARK                            x       y       z     vdW  Elec       q    Type
REMARK                         _______ _______ _______ _____ _____    ______ ____
ROOT
ATOM      1  C   UNL     1       0.763   9.708  19.964  0.00  0.00    +0.000 C 
ATOM      2  C   UNL     1       1.264  10.469  18.730  0.00  0.00    +0.000 C 
ATOM      3  C   UNL     1       1.490   9.505  17.575  0.00  0.00    +0.000 C 
ATOM      4  C   UNL     1       2.436   8.373  17.981  0.00  0.00    +0.000 C 
ATOM      5  N   UNL     1       1.913   7.609  19.128  0.00  0.00    +0.000 NA
ATOM      6  C   UNL     1       1.675   8.499  20.287  0.00  0.00    +0.000 C 
ENDROOT
BRANCH   1  10
ATOM      7  C   UNL     1      -0.556   8.774  22.377  0.00  0.00    +0.000 C 
ATOM      8  C   UNL     1      -0.159  10.228  22.259  0.00  0.00    +0.000 C 
ATOM      9  O   UNL     1      -0.401  10.994  23.194  0.00  0.00    +0.000 OA
ATOM     10  N   UNL     1       0.512  10.631  21.100  0.00  0.00    +0.000 N 
BRANCH  10  11
ATOM     11  C   UNL     1       0.966  12.036  21.032  0.00  0.00    +0.000 C 
BRANCH  11  12
ATOM     12  C   UNL     1      -0.061  13.103  20.564  0.00  0.00    +0.000 C 
BRANCH  12  13
ATOM     13  N   UNL     1       0.470  14.437  20.225  0.00  0.00    +0.000 NA
ATOM     14  C   UNL     1       1.880  14.365  19.808  0.00  0.00    +0.000 C 
ATOM     15  C   UNL     1       2.435  15.756  19.500  0.00  0.00    +0.000 C 
ATOM     16  C   UNL     1       1.604  16.464  18.438  0.00  0.00    +0.000 C 
ATOM     17  C   UNL     1       0.133  16.465  18.833  0.00  0.00    +0.000 C 
ATOM     18  C   UNL     1      -0.351  15.054  19.167  0.00  0.00    +0.000 C 
ENDBRANCH  12  13
ENDBRANCH  11  12
ENDBRANCH  10  11
ENDBRANCH   1  10
BRANCH   5  19
ATOM     19  C   UNL     1       2.852   6.548  19.544  0.00  0.00    +0.000 C 
BRANCH  19  20
ATOM     20  C   UNL     1       2.287   5.146  19.503  0.00  0.00    +0.000 A 
ATOM     21  C   UNL     1       1.901   4.562  18.288  0.00  0.00    +0.000 A 
ATOM     22  C   UNL     1       1.335   3.285  18.263  0.00  0.00    +0.000 A 
ATOM     23  C   UNL     1       1.149   2.581  19.453  0.00  0.00    +0.000 A 
ATOM     24  C   UNL     1       1.544   3.150  20.662  0.00  0.00    +0.000 A 
ATOM     25 CL   UNL     1       1.326   2.279  22.130  0.00  0.00    +0.000 Cl
ATOM     26  C   UNL     1       2.109   4.424  20.693  0.00  0.00    +0.000 A 
ENDBRANCH  19  20
ENDBRANCH   5  19
TORSDOF 6
ENDMDL
MODEL 9
REMARK VINA RESULT:      -6.5      1.771      3.925
REMARK  Name = 
REMARK  7 active torsions:
REMARK  status: ('A' for Active; 'I' for Inactive)
REMARK    1  A    between atoms: C_1  and  C_2
REMARK    2  A    between atoms: N_4  and  C_5
REMARK    3  A    between atoms: N_4  and  C_13
REMARK    4  A    between atoms: C_5  and  C_6
REMARK    5  A    between atoms: C_6  and  N_7
REMARK    6  A    between atoms: N_17  and  C_18
REMARK    7  A    between atoms: C_18  and  C_19
REMARK                            x       y       z     vdW  Elec       q    Type
REMARK                         _______ _______ _______ _____ _____    ______ ____
ROOT
ATOM      1  C   UNL     1       2.910   5.965  18.072  0.00  0.00    +0.000 C 
ATOM      2  C   UNL     1       3.155   5.886  19.584  0.00  0.00    +0.000 C 
ATOM      3  C   UNL     1       2.096   6.683  20.331  0.00  0.00    +0.000 C 
ATOM      4  C   UNL     1       2.038   8.126  19.828  0.00  0.00    +0.000 C 
ATOM      5  N   UNL     1       1.738   8.192  18.385  0.00  0.00    +0.000 NA
ATOM      6  C   UNL     1       2.742   7.432  17.607  0.00  0.00    +0.000 C 
ENDROOT
BRANCH   1  10
ATOM      7  C   UNL     1       5.552   7.047  17.541  0.00  0.00    +0.000 C 
ATOM      8  C   UNL     1       5.185   5.681  17.009  0.00  0.00    +0.000 C 
ATOM      9  O   UNL     1       6.017   5.046  16.359  0.00  0.00    +0.000 OA
ATOM     10  N   UNL     1       3.919   5.175  17.322  0.00  0.00    +0.000 N 
BRANCH  10  11
ATOM     11  C   UNL     1       3.602   3.806  16.864  0.00  0.00    +0.000 C 
BRANCH  11  12
ATOM     12  C   UNL     1       3.979   2.627  17.800  0.00  0.00    +0.000 C 
BRANCH  12  13
ATOM     13  N   UNL     1       3.038   2.315  18.894  0.00  0.00    +0.000 NA
ATOM     14  C   UNL     1       3.498   2.876  20.175  0.00  0.00    +0.000 C 
ATOM     15  C   UNL     1       2.540   2.512  21.310  0.00  0.00    +0.000 C 
ATOM     16  C   UNL     1       1.120   2.972  21.009  0.00  0.00    +0.000 C 
ATOM     17  C   UNL     1       0.677   2.459  19.645  0.00  0.00    +0.000 C 
ATOM     18  C   UNL     1       1.693   2.819  18.561  0.00  0.00    +0.000 C 
ENDBRANCH  12  13
ENDBRANCH  11  12
ENDBRANCH  10  11
ENDBRANCH   1  10
BRANCH   5  19
ATOM     19  C   UNL     1       1.731   9.585  17.897  0.00  0.00    +0.000 C 
BRANCH  19  20
ATOM     20  C   UNL     1       0.467  10.358  18.200  0.00  0.00    +0.000 A 
ATOM     21  C   UNL     1       0.515  11.567  18.908  0.00  0.00    +0.000 A 
ATOM     22  C   UNL     1      -0.662  12.251  19.226  0.00  0.00    +0.000 A 
ATOM     23  C   UNL     1      -1.897  11.731  18.839  0.00  0.00    +0.000 A 
ATOM     24  C   UNL     1      -1.950  10.537  18.122  0.00  0.00    +0.000 A 
ATOM     25 CL   UNL     1      -3.472   9.899  17.633  0.00  0.00    +0.000 Cl
ATOM     26  C   UNL     1      -0.780   9.850  17.802  0.00  0.00    +0.000 A 
ENDBRANCH  19  20
ENDBRANCH   5  19
TORSDOF 6
ENDMDL
