MODEL 1
REMARK VINA RESULT:      -7.8      0.000      0.000
REMARK  Name = 
REMARK  5 active torsions:
REMARK  status: ('A' for Active; 'I' for Inactive)
REMARK    1  A    between atoms: C_2  and  C_3
REMARK    2  A    between atoms: C_9  and  N_10
REMARK    3  A    between atoms: C_20  and  C_21
REMARK    4  A    between atoms: C_21  and  C_22
REMARK    5  A    between atoms: C_26  and  C_27
REMARK                            x       y       z     vdW  Elec       q    Type
REMARK                         _______ _______ _______ _____ _____    ______ ____
ROOT
ATOM      1  O   UNL     1       1.187  11.020  21.768  0.00  0.00    +0.000 OA
ATOM      2  C   UNL     1       1.087  11.889  20.903  0.00  0.00    +0.000 C 
ATOM      3  N   UNL     1       0.854  11.580  19.540  0.00  0.00    +0.000 N 
ATOM      4  C   UNL     1       0.441  12.543  18.509  0.00  0.00    +0.000 C 
ATOM      5  C   UNL     1      -1.060  12.378  18.190  0.00  0.00    +0.000 C 
ATOM      6  O   UNL     1      -1.399  11.025  17.855  0.00  0.00    +0.000 OA
ATOM      7  C   UNL     1      -1.006  10.109  18.889  0.00  0.00    +0.000 C 
ATOM      8  C   UNL     1       0.508  10.176  19.183  0.00  0.00    +0.000 C 
ENDROOT
BRANCH   2   9
ATOM      9  C   UNL     1       1.099  13.311  21.379  0.00  0.00    +0.000 A 
ATOM     10  C   UNL     1       2.210  14.090  21.018  0.00  0.00    +0.000 A 
ATOM     11  C   UNL     1       2.350  15.412  21.419  0.00  0.00    +0.000 A 
ATOM     12 CL   UNL     1       3.839  16.225  21.140  0.00  0.00    +0.000 Cl
ATOM     13  C   UNL     1       1.303  16.057  22.049  0.00  0.00    +0.000 A 
ATOM     14  C   UNL     1       0.116  15.361  22.272  0.00  0.00    +0.000 A 
ATOM     15  C   UNL     1       0.009  13.980  21.967  0.00  0.00    +0.000 A 
BRANCH  15  16
ATOM     16  N   UNL     1      -1.220  13.345  22.277  0.00  0.00    +0.000 N 
ATOM     17  N   UNL     1      -1.444  12.653  23.420  0.00  0.00    +0.000 NA
ATOM     18  C   UNL     1      -2.707  12.265  23.281  0.00  0.00    +0.000 A 
ATOM     19  C   UNL     1      -3.238  12.784  22.094  0.00  0.00    +0.000 A 
ATOM     20  N   UNL     1      -2.322  13.539  21.487  0.00  0.00    +0.000 NA
ENDBRANCH  15  16
ENDBRANCH   2   9
BRANCH   8  21
ATOM     21  C   UNL     1       1.397   9.520  18.077  0.00  0.00    +0.000 C 
BRANCH  21  22
ATOM     22  C   UNL     1       2.188   8.246  18.353  0.00  0.00    +0.000 A 
ATOM     23  C   UNL     1       2.042   7.551  19.561  0.00  0.00    +0.000 A 
ATOM     24  C   UNL     1       2.730   6.358  19.792  0.00  0.00    +0.000 A 
ATOM     25  C   UNL     1       3.590   5.851  18.821  0.00  0.00    +0.000 A 
ATOM     26  C   UNL     1       3.801   6.546  17.622  0.00  0.00    +0.000 A 
ATOM     27  C   UNL     1       3.101   7.747  17.405  0.00  0.00    +0.000 A 
BRANCH  26  28
ATOM     28  C   UNL     1       4.732   6.011  16.634  0.00  0.00    +0.000 A 
ATOM     29  N   UNL     1       4.984   4.656  16.526  0.00  0.00    +0.000 NA
ATOM     30  C   UNL     1       5.871   4.611  15.568  0.00  0.00    +0.000 A 
ATOM     31  O   UNL     1       6.188   5.825  15.055  0.00  0.00    +0.000 OA
ATOM     32  N   UNL     1       5.428   6.760  15.761  0.00  0.00    +0.000 NA
ENDBRANCH  26  28
ENDBRANCH  21  22
ENDBRANCH   8  21
TORSDOF 5
ENDMDL
MODEL 2
REMARK VINA RESULT:      -7.7      6.176      8.844
REMARK  Name = 
REMARK  5 active torsions:
REMARK  status: ('A' for Active; 'I' for Inactive)
REMARK    1  A    between atoms: C_2  and  C_3
REMARK    2  A    between atoms: C_9  and  N_10
REMARK    3  A    between atoms: C_20  and  C_21
REMARK    4  A    between atoms: C_21  and  C_22
REMARK    5  A    between atoms: C_26  and  C_27
REMARK                            x       y       z     vdW  Elec       q    Type
REMARK                         _______ _______ _______ _____ _____    ______ ____
ROOT
ATOM      1  O   UNL     1       3.857   6.875  16.895  0.00  0.00    +0.000 OA
ATOM      2  C   UNL     1       4.154   6.139  17.835  0.00  0.00    +0.000 C 
ATOM      3  N   UNL     1       5.419   5.508  17.933  0.00  0.00    +0.000 N 
ATOM      4  C   UNL     1       5.954   4.859  19.138  0.00  0.00    +0.000 C 
ATOM      5  C   UNL     1       7.012   5.760  19.810  0.00  0.00    +0.000 C 
ATOM      6  O   UNL     1       8.040   6.166  18.895  0.00  0.00    +0.000 OA
ATOM      7  C   UNL     1       7.492   6.817  17.738  0.00  0.00    +0.000 C 
ATOM      8  C   UNL     1       6.490   5.919  16.983  0.00  0.00    +0.000 C 
ENDROOT
BRANCH   2   9
ATOM      9  C   UNL     1       3.155   6.037  18.947  0.00  0.00    +0.000 A 
ATOM     10  C   UNL     1       2.702   7.244  19.503  0.00  0.00    +0.000 A 
ATOM     11  C   UNL     1       1.796   7.282  20.556  0.00  0.00    +0.000 A 
ATOM     12 CL   UNL     1       1.471   8.779  21.337  0.00  0.00    +0.000 Cl
ATOM     13  C   UNL     1       1.176   6.120  20.975  0.00  0.00    +0.000 A 
ATOM     14  C   UNL     1       1.476   4.922  20.327  0.00  0.00    +0.000 A 
ATOM     15  C   UNL     1       2.483   4.862  19.330  0.00  0.00    +0.000 A 
BRANCH  15  16
ATOM     16  N   UNL     1       2.754   3.589  18.765  0.00  0.00    +0.000 N 
ATOM     17  N   UNL     1       3.391   2.592  19.424  0.00  0.00    +0.000 NA
ATOM     18  C   UNL     1       3.400   1.612  18.526  0.00  0.00    +0.000 A 
ATOM     19  C   UNL     1       2.715   2.013  17.373  0.00  0.00    +0.000 A 
ATOM     20  N   UNL     1       2.230   3.243  17.548  0.00  0.00    +0.000 NA
ENDBRANCH  15  16
ENDBRANCH   2   9
BRANCH   8  21
ATOM     21  C   UNL     1       7.162   4.759  16.177  0.00  0.00    +0.000 C 
BRANCH  21  22
ATOM     22  C   UNL     1       7.177   4.761  14.653  0.00  0.00    +0.000 A 
ATOM     23  C   UNL     1       8.128   5.505  13.940  0.00  0.00    +0.000 A 
ATOM     24  C   UNL     1       8.171   5.467  12.544  0.00  0.00    +0.000 A 
ATOM     25  C   UNL     1       7.250   4.696  11.840  0.00  0.00    +0.000 A 
ATOM     26  C   UNL     1       6.253   3.981  12.517  0.00  0.00    +0.000 A 
ATOM     27  C   UNL     1       6.222   4.030  13.923  0.00  0.00    +0.000 A 
BRANCH  26  28
ATOM     28  C   UNL     1       5.279   3.206  11.754  0.00  0.00    +0.000 A 
ATOM     29  N   UNL     1       4.077   3.749  11.339  0.00  0.00    +0.000 NA
ATOM     30  C   UNL     1       3.509   2.740  10.733  0.00  0.00    +0.000 A 
ATOM     31  O   UNL     1       4.260   1.612  10.722  0.00  0.00    +0.000 OA
ATOM     32  N   UNL     1       5.443   1.920  11.398  0.00  0.00    +0.000 NA
ENDBRANCH  26  28
ENDBRANCH  21  22
ENDBRANCH   8  21
TORSDOF 5
ENDMDL
MODEL 3
REMARK VINA RESULT:      -7.7      2.658      4.395
REMARK  Name = 
REMARK  5 active torsions:
REMARK  status: ('A' for Active; 'I' for Inactive)
REMARK    1  A    between atoms: C_2  and  C_3
REMARK    2  A    between atoms: C_9  and  N_10
REMARK    3  A    between atoms: C_20  and  C_21
REMARK    4  A    between atoms: C_21  and  C_22
REMARK    5  A    between atoms: C_26  and  C_27
REMARK                            x       y       z     vdW  Elec       q    Type
REMARK                         _______ _______ _______ _____ _____    ______ ____
ROOT
ATOM      1  O   UNL     1       1.789   9.773  18.577  0.00  0.00    +0.000 OA
ATOM      2  C   UNL     1       0.671   9.638  19.073  0.00  0.00    +0.000 C 
ATOM      3  N   UNL     1       0.448   8.871  20.243  0.00  0.00    +0.000 N 
ATOM      4  C   UNL     1      -0.780   8.892  21.052  0.00  0.00    +0.000 C 
ATOM      5  C   UNL     1      -0.560   9.709  22.343  0.00  0.00    +0.000 C 
ATOM      6  O   UNL     1       0.585   9.259  23.081  0.00  0.00    +0.000 OA
ATOM      7  C   UNL     1       1.774   9.270  22.276  0.00  0.00    +0.000 C 
ATOM      8  C   UNL     1       1.630   8.395  21.013  0.00  0.00    +0.000 C 
ENDROOT
BRANCH   2   9
ATOM      9  C   UNL     1      -0.438  10.430  18.448  0.00  0.00    +0.000 A 
ATOM     10  C   UNL     1      -1.238   9.764  17.506  0.00  0.00    +0.000 A 
ATOM     11  C   UNL     1      -2.280  10.396  16.839  0.00  0.00    +0.000 A 
ATOM     12 CL   UNL     1      -3.060   9.590  15.535  0.00  0.00    +0.000 Cl
ATOM     13  C   UNL     1      -2.671  11.667  17.216  0.00  0.00    +0.000 A 
ATOM     14  C   UNL     1      -2.005  12.295  18.269  0.00  0.00    +0.000 A 
ATOM     15  C   UNL     1      -0.869  11.699  18.875  0.00  0.00    +0.000 A 
BRANCH  15  16
ATOM     16  N   UNL     1      -0.227  12.437  19.902  0.00  0.00    +0.000 N 
ATOM     17  N   UNL     1      -0.776  12.671  21.118  0.00  0.00    +0.000 NA
ATOM     18  C   UNL     1       0.173  13.368  21.734  0.00  0.00    +0.000 A 
ATOM     19  C   UNL     1       1.296  13.483  20.906  0.00  0.00    +0.000 A 
ATOM     20  N   UNL     1       1.080  12.823  19.767  0.00  0.00    +0.000 NA
ENDBRANCH  15  16
ENDBRANCH   2   9
BRANCH   8  21
ATOM     21  C   UNL     1       1.678   6.858  21.299  0.00  0.00    +0.000 C 
BRANCH  21  22
ATOM     22  C   UNL     1       2.027   5.860  20.201  0.00  0.00    +0.000 A 
ATOM     23  C   UNL     1       1.425   4.594  20.156  0.00  0.00    +0.000 A 
ATOM     24  C   UNL     1       1.710   3.700  19.121  0.00  0.00    +0.000 A 
ATOM     25  C   UNL     1       2.616   4.054  18.125  0.00  0.00    +0.000 A 
ATOM     26  C   UNL     1       3.276   5.289  18.167  0.00  0.00    +0.000 A 
ATOM     27  C   UNL     1       2.979   6.179  19.216  0.00  0.00    +0.000 A 
BRANCH  26  28
ATOM     28  C   UNL     1       4.246   5.623  17.128  0.00  0.00    +0.000 A 
ATOM     29  N   UNL     1       4.748   4.668  16.263  0.00  0.00    +0.000 NA
ATOM     30  C   UNL     1       5.582   5.362  15.535  0.00  0.00    +0.000 A 
ATOM     31  O   UNL     1       5.635   6.676  15.861  0.00  0.00    +0.000 OA
ATOM     32  N   UNL     1       4.743   6.855  16.920  0.00  0.00    +0.000 NA
ENDBRANCH  26  28
ENDBRANCH  21  22
ENDBRANCH   8  21
TORSDOF 5
ENDMDL
MODEL 4
REMARK VINA RESULT:      -7.7      1.970      3.043
REMARK  Name = 
REMARK  5 active torsions:
REMARK  status: ('A' for Active; 'I' for Inactive)
REMARK    1  A    between atoms: C_2  and  C_3
REMARK    2  A    between atoms: C_9  and  N_10
REMARK    3  A    between atoms: C_20  and  C_21
REMARK    4  A    between atoms: C_21  and  C_22
REMARK    5  A    between atoms: C_26  and  C_27
REMARK                            x       y       z     vdW  Elec       q    Type
REMARK                         _______ _______ _______ _____ _____    ______ ____
ROOT
ATOM      1  O   UNL     1       0.285  11.077  22.030  0.00  0.00    +0.000 OA
ATOM      2  C   UNL     1       0.195  11.951  21.168  0.00  0.00    +0.000 C 
ATOM      3  N   UNL     1       0.293  11.664  19.784  0.00  0.00    +0.000 N 
ATOM      4  C   UNL     1      -0.085  12.579  18.697  0.00  0.00    +0.000 C 
ATOM      5  C   UNL     1      -1.438  12.160  18.086  0.00  0.00    +0.000 C 
ATOM      6  O   UNL     1      -1.448  10.783  17.681  0.00  0.00    +0.000 OA
ATOM      7  C   UNL     1      -1.098   9.909  18.766  0.00  0.00    +0.000 C 
ATOM      8  C   UNL     1       0.290  10.238  19.356  0.00  0.00    +0.000 C 
ENDROOT
BRANCH   2   9
ATOM      9  C   UNL     1      -0.151  13.329  21.646  0.00  0.00    +0.000 A 
ATOM     10  C   UNL     1      -1.404  13.489  22.260  0.00  0.00    +0.000 A 
ATOM     11  C   UNL     1      -1.851  14.721  22.721  0.00  0.00    +0.000 A 
ATOM     12 CL   UNL     1      -3.482  14.886  23.242  0.00  0.00    +0.000 Cl
ATOM     13  C   UNL     1      -0.992  15.803  22.745  0.00  0.00    +0.000 A 
ATOM     14  C   UNL     1       0.319  15.635  22.300  0.00  0.00    +0.000 A 
ATOM     15  C   UNL     1       0.745  14.411  21.723  0.00  0.00    +0.000 A 
BRANCH  15  16
ATOM     16  N   UNL     1       2.081  14.352  21.252  0.00  0.00    +0.000 N 
ATOM     17  N   UNL     1       2.444  14.635  19.978  0.00  0.00    +0.000 NA
ATOM     18  C   UNL     1       3.762  14.466  20.009  0.00  0.00    +0.000 A 
ATOM     19  C   UNL     1       4.174  14.151  21.309  0.00  0.00    +0.000 A 
ATOM     20  N   UNL     1       3.118  14.154  22.124  0.00  0.00    +0.000 NA
ENDBRANCH  15  16
ENDBRANCH   2   9
BRANCH   8  21
ATOM     21  C   UNL     1       1.483   9.802  18.444  0.00  0.00    +0.000 C 
BRANCH  21  22
ATOM     22  C   UNL     1       2.175   8.457  18.637  0.00  0.00    +0.000 A 
ATOM     23  C   UNL     1       1.959   7.692  19.793  0.00  0.00    +0.000 A 
ATOM     24  C   UNL     1       2.555   6.439  19.945  0.00  0.00    +0.000 A 
ATOM     25  C   UNL     1       3.390   5.938  18.950  0.00  0.00    +0.000 A 
ATOM     26  C   UNL     1       3.670   6.697  17.806  0.00  0.00    +0.000 A 
ATOM     27  C   UNL     1       3.063   7.959  17.666  0.00  0.00    +0.000 A 
BRANCH  26  28
ATOM     28  C   UNL     1       4.574   6.164  16.792  0.00  0.00    +0.000 A 
ATOM     29  N   UNL     1       4.561   4.830  16.429  0.00  0.00    +0.000 NA
ATOM     30  C   UNL     1       5.518   4.772  15.541  0.00  0.00    +0.000 A 
ATOM     31  O   UNL     1       6.122   5.962  15.305  0.00  0.00    +0.000 OA
ATOM     32  N   UNL     1       5.493   6.894  16.134  0.00  0.00    +0.000 NA
ENDBRANCH  26  28
ENDBRANCH  21  22
ENDBRANCH   8  21
TORSDOF 5
ENDMDL
MODEL 5
REMARK VINA RESULT:      -7.5      1.201      1.212
REMARK  Name = 
REMARK  5 active torsions:
REMARK  status: ('A' for Active; 'I' for Inactive)
REMARK    1  A    between atoms: C_2  and  C_3
REMARK    2  A    between atoms: C_9  and  N_10
REMARK    3  A    between atoms: C_20  and  C_21
REMARK    4  A    between atoms: C_21  and  C_22
REMARK    5  A    between atoms: C_26  and  C_27
REMARK                            x       y       z     vdW  Elec       q    Type
REMARK                         _______ _______ _______ _____ _____    ______ ____
ROOT
ATOM      1  O   UNL     1       1.663  12.324  21.213  0.00  0.00    +0.000 OA
ATOM      2  C   UNL     1       1.007  12.742  20.260  0.00  0.00    +0.000 C 
ATOM      3  N   UNL     1       0.569  11.896  19.211  0.00  0.00    +0.000 N 
ATOM      4  C   UNL     1      -0.444  12.244  18.204  0.00  0.00    +0.000 C 
ATOM      5  C   UNL     1      -1.785  11.552  18.526  0.00  0.00    +0.000 C 
ATOM      6  O   UNL     1      -1.636  10.135  18.698  0.00  0.00    +0.000 OA
ATOM      7  C   UNL     1      -0.659   9.822  19.703  0.00  0.00    +0.000 C 
ATOM      8  C   UNL     1       0.725  10.424  19.378  0.00  0.00    +0.000 C 
ENDROOT
BRANCH   2   9
ATOM      9  C   UNL     1       0.580  14.177  20.320  0.00  0.00    +0.000 A 
ATOM     10  C   UNL     1       1.266  15.077  19.487  0.00  0.00    +0.000 A 
ATOM     11  C   UNL     1       0.981  16.436  19.470  0.00  0.00    +0.000 A 
ATOM     12 CL   UNL     1       2.015  17.504  18.606  0.00  0.00    +0.000 Cl
ATOM     13  C   UNL     1      -0.116  16.920  20.156  0.00  0.00    +0.000 A 
ATOM     14  C   UNL     1      -0.923  16.026  20.859  0.00  0.00    +0.000 A 
ATOM     15  C   UNL     1      -0.571  14.656  20.971  0.00  0.00    +0.000 A 
BRANCH  15  16
ATOM     16  N   UNL     1      -1.426  13.834  21.749  0.00  0.00    +0.000 N 
ATOM     17  N   UNL     1      -1.149  13.447  23.018  0.00  0.00    +0.000 NA
ATOM     18  C   UNL     1      -2.216  12.722  23.338  0.00  0.00    +0.000 A 
ATOM     19  C   UNL     1      -3.140  12.741  22.286  0.00  0.00    +0.000 A 
ATOM     20  N   UNL     1      -2.679  13.513  21.301  0.00  0.00    +0.000 NA
ENDBRANCH  15  16
ENDBRANCH   2   9
BRANCH   8  21
ATOM     21  C   UNL     1       1.480   9.688  18.224  0.00  0.00    +0.000 C 
BRANCH  21  22
ATOM     22  C   UNL     1       2.198   8.365  18.467  0.00  0.00    +0.000 A 
ATOM     23  C   UNL     1       1.993   7.637  19.648  0.00  0.00    +0.000 A 
ATOM     24  C   UNL     1       2.613   6.402  19.848  0.00  0.00    +0.000 A 
ATOM     25  C   UNL     1       3.463   5.884  18.874  0.00  0.00    +0.000 A 
ATOM     26  C   UNL     1       3.732   6.608  17.705  0.00  0.00    +0.000 A 
ATOM     27  C   UNL     1       3.100   7.851  17.518  0.00  0.00    +0.000 A 
BRANCH  26  28
ATOM     28  C   UNL     1       4.653   6.058  16.714  0.00  0.00    +0.000 A 
ATOM     29  N   UNL     1       4.960   4.711  16.671  0.00  0.00    +0.000 NA
ATOM     30  C   UNL     1       5.816   4.652  15.685  0.00  0.00    +0.000 A 
ATOM     31  O   UNL     1       6.061   5.848  15.096  0.00  0.00    +0.000 OA
ATOM     32  N   UNL     1       5.284   6.787  15.777  0.00  0.00    +0.000 NA
ENDBRANCH  26  28
ENDBRANCH  21  22
ENDBRANCH   8  21
TORSDOF 5
ENDMDL
MODEL 6
REMARK VINA RESULT:      -7.5      2.203      3.508
REMARK  Name = 
REMARK  5 active torsions:
REMARK  status: ('A' for Active; 'I' for Inactive)
REMARK    1  A    between atoms: C_2  and  C_3
REMARK    2  A    between atoms: C_9  and  N_10
REMARK    3  A    between atoms: C_20  and  C_21
REMARK    4  A    between atoms: C_21  and  C_22
REMARK    5  A    between atoms: C_26  and  C_27
REMARK                            x       y       z     vdW  Elec       q    Type
REMARK                         _______ _______ _______ _____ _____    ______ ____
ROOT
ATOM      1  O   UNL     1       1.906  12.462  21.221  0.00  0.00    +0.000 OA
ATOM      2  C   UNL     1       1.263  12.920  20.277  0.00  0.00    +0.000 C 
ATOM      3  N   UNL     1       0.748  12.103  19.241  0.00  0.00    +0.000 N 
ATOM      4  C   UNL     1      -0.256  12.517  18.250  0.00  0.00    +0.000 C 
ATOM      5  C   UNL     1      -1.636  11.920  18.601  0.00  0.00    +0.000 C 
ATOM      6  O   UNL     1      -1.583  10.497  18.777  0.00  0.00    +0.000 OA
ATOM      7  C   UNL     1      -0.611  10.121  19.766  0.00  0.00    +0.000 C 
ATOM      8  C   UNL     1       0.804  10.624  19.413  0.00  0.00    +0.000 C 
ENDROOT
BRANCH   2   9
ATOM      9  C   UNL     1       0.938  14.382  20.338  0.00  0.00    +0.000 A 
ATOM     10  C   UNL     1      -0.226  14.743  21.037  0.00  0.00    +0.000 A 
ATOM     11  C   UNL     1      -0.648  16.063  21.142  0.00  0.00    +0.000 A 
ATOM     12 CL   UNL     1      -2.197  16.402  21.806  0.00  0.00    +0.000 Cl
ATOM     13  C   UNL     1       0.169  17.086  20.702  0.00  0.00    +0.000 A 
ATOM     14  C   UNL     1       1.413  16.771  20.155  0.00  0.00    +0.000 A 
ATOM     15  C   UNL     1       1.798  15.423  19.942  0.00  0.00    +0.000 A 
BRANCH  15  16
ATOM     16  N   UNL     1       3.059  15.203  19.332  0.00  0.00    +0.000 N 
ATOM     17  N   UNL     1       3.228  14.997  18.004  0.00  0.00    +0.000 NA
ATOM     18  C   UNL     1       4.546  14.860  17.898  0.00  0.00    +0.000 A 
ATOM     19  C   UNL     1       5.148  15.051  19.148  0.00  0.00    +0.000 A 
ATOM     20  N   UNL     1       4.215  15.349  20.052  0.00  0.00    +0.000 NA
ENDBRANCH  15  16
ENDBRANCH   2   9
BRANCH   8  21
ATOM     21  C   UNL     1       1.486   9.833  18.249  0.00  0.00    +0.000 C 
BRANCH  21  22
ATOM     22  C   UNL     1       2.171   8.494  18.500  0.00  0.00    +0.000 A 
ATOM     23  C   UNL     1       1.935   7.770  19.677  0.00  0.00    +0.000 A 
ATOM     24  C   UNL     1       2.526   6.521  19.882  0.00  0.00    +0.000 A 
ATOM     25  C   UNL     1       3.377   5.986  18.918  0.00  0.00    +0.000 A 
ATOM     26  C   UNL     1       3.677   6.705  17.754  0.00  0.00    +0.000 A 
ATOM     27  C   UNL     1       3.074   7.962  17.561  0.00  0.00    +0.000 A 
BRANCH  26  28
ATOM     28  C   UNL     1       4.597   6.137  16.774  0.00  0.00    +0.000 A 
ATOM     29  N   UNL     1       4.959   4.803  16.799  0.00  0.00    +0.000 NA
ATOM     30  C   UNL     1       5.795   4.721  15.798  0.00  0.00    +0.000 A 
ATOM     31  O   UNL     1       5.978   5.890  15.137  0.00  0.00    +0.000 OA
ATOM     32  N   UNL     1       5.178   6.835  15.782  0.00  0.00    +0.000 NA
ENDBRANCH  26  28
ENDBRANCH  21  22
ENDBRANCH   8  21
TORSDOF 5
ENDMDL
MODEL 7
REMARK VINA RESULT:      -7.5      3.984      9.731
REMARK  Name = 
REMARK  5 active torsions:
REMARK  status: ('A' for Active; 'I' for Inactive)
REMARK    1  A    between atoms: C_2  and  C_3
REMARK    2  A    between atoms: C_9  and  N_10
REMARK    3  A    between atoms: C_20  and  C_21
REMARK    4  A    between atoms: C_21  and  C_22
REMARK    5  A    between atoms: C_26  and  C_27
REMARK                            x       y       z     vdW  Elec       q    Type
REMARK                         _______ _______ _______ _____ _____    ______ ____
ROOT
ATOM      1  O   UNL     1       3.954   7.386  16.110  0.00  0.00    +0.000 OA
ATOM      2  C   UNL     1       4.348   6.323  16.588  0.00  0.00    +0.000 C 
ATOM      3  N   UNL     1       3.767   5.749  17.746  0.00  0.00    +0.000 N 
ATOM      4  C   UNL     1       3.976   4.369  18.208  0.00  0.00    +0.000 C 
ATOM      5  C   UNL     1       2.745   3.499  17.879  0.00  0.00    +0.000 C 
ATOM      6  O   UNL     1       1.527   4.072  18.375  0.00  0.00    +0.000 OA
ATOM      7  C   UNL     1       1.335   5.411  17.891  0.00  0.00    +0.000 C 
ATOM      8  C   UNL     1       2.506   6.342  18.271  0.00  0.00    +0.000 C 
ENDROOT
BRANCH   2   9
ATOM      9  C   UNL     1       5.400   5.590  15.811  0.00  0.00    +0.000 A 
ATOM     10  C   UNL     1       4.996   4.995  14.605  0.00  0.00    +0.000 A 
ATOM     11  C   UNL     1       5.871   4.267  13.808  0.00  0.00    +0.000 A 
ATOM     12 CL   UNL     1       5.253   3.373  12.475  0.00  0.00    +0.000 Cl
ATOM     13  C   UNL     1       7.222   4.254  14.099  0.00  0.00    +0.000 A 
ATOM     14  C   UNL     1       7.684   4.979  15.197  0.00  0.00    +0.000 A 
ATOM     15  C   UNL     1       6.781   5.629  16.077  0.00  0.00    +0.000 A 
BRANCH  15  16
ATOM     16  N   UNL     1       7.341   6.296  17.196  0.00  0.00    +0.000 N 
ATOM     17  N   UNL     1       7.706   5.672  18.341  0.00  0.00    +0.000 NA
ATOM     18  C   UNL     1       8.183   6.672  19.076  0.00  0.00    +0.000 A 
ATOM     19  C   UNL     1       8.158   7.862  18.338  0.00  0.00    +0.000 A 
ATOM     20  N   UNL     1       7.697   7.616  17.111  0.00  0.00    +0.000 NA
ENDBRANCH  15  16
ENDBRANCH   2   9
BRANCH   8  21
ATOM     21  C   UNL     1       2.526   6.748  19.781  0.00  0.00    +0.000 C 
BRANCH  21  22
ATOM     22  C   UNL     1       1.652   7.882  20.306  0.00  0.00    +0.000 A 
ATOM     23  C   UNL     1       0.975   7.767  21.528  0.00  0.00    +0.000 A 
ATOM     24  C   UNL     1       0.215   8.825  22.031  0.00  0.00    +0.000 A 
ATOM     25  C   UNL     1       0.107  10.010  21.308  0.00  0.00    +0.000 A 
ATOM     26  C   UNL     1       0.726  10.141  20.058  0.00  0.00    +0.000 A 
ATOM     27  C   UNL     1       1.488   9.066  19.564  0.00  0.00    +0.000 A 
BRANCH  26  28
ATOM     28  C   UNL     1       0.571  11.382  19.304  0.00  0.00    +0.000 A 
ATOM     29  N   UNL     1      -0.665  11.819  18.864  0.00  0.00    +0.000 NA
ATOM     30  C   UNL     1      -0.362  12.919  18.227  0.00  0.00    +0.000 A 
ATOM     31  O   UNL     1       0.961  13.216  18.241  0.00  0.00    +0.000 OA
ATOM     32  N   UNL     1       1.585  12.196  18.962  0.00  0.00    +0.000 NA
ENDBRANCH  26  28
ENDBRANCH  21  22
ENDBRANCH   8  21
TORSDOF 5
ENDMDL
MODEL 8
REMARK VINA RESULT:      -7.5      4.077      9.800
REMARK  Name = 
REMARK  5 active torsions:
REMARK  status: ('A' for Active; 'I' for Inactive)
REMARK    1  A    between atoms: C_2  and  C_3
REMARK    2  A    between atoms: C_9  and  N_10
REMARK    3  A    between atoms: C_20  and  C_21
REMARK    4  A    between atoms: C_21  and  C_22
REMARK    5  A    between atoms: C_26  and  C_27
REMARK                            x       y       z     vdW  Elec       q    Type
REMARK                         _______ _______ _______ _____ _____    ______ ____
ROOT
ATOM      1  O   UNL     1       3.979   7.356  16.100  0.00  0.00    +0.000 OA
ATOM      2  C   UNL     1       4.371   6.286  16.564  0.00  0.00    +0.000 C 
ATOM      3  N   UNL     1       3.800   5.707  17.724  0.00  0.00    +0.000 N 
ATOM      4  C   UNL     1       4.004   4.322  18.172  0.00  0.00    +0.000 C 
ATOM      5  C   UNL     1       2.763   3.464  17.852  0.00  0.00    +0.000 C 
ATOM      6  O   UNL     1       1.555   4.042  18.368  0.00  0.00    +0.000 OA
ATOM      7  C   UNL     1       1.367   5.386  17.897  0.00  0.00    +0.000 C 
ATOM      8  C   UNL     1       2.549   6.305  18.270  0.00  0.00    +0.000 C 
ENDROOT
BRANCH   2   9
ATOM      9  C   UNL     1       5.408   5.552  15.768  0.00  0.00    +0.000 A 
ATOM     10  C   UNL     1       4.979   4.951  14.573  0.00  0.00    +0.000 A 
ATOM     11  C   UNL     1       5.838   4.222  13.761  0.00  0.00    +0.000 A 
ATOM     12 CL   UNL     1       5.194   3.321  12.445  0.00  0.00    +0.000 Cl
ATOM     13  C   UNL     1       7.195   4.213  14.023  0.00  0.00    +0.000 A 
ATOM     14  C   UNL     1       7.679   4.943  15.108  0.00  0.00    +0.000 A 
ATOM     15  C   UNL     1       6.794   5.595  16.005  0.00  0.00    +0.000 A 
BRANCH  15  16
ATOM     16  N   UNL     1       7.376   6.268  17.108  0.00  0.00    +0.000 N 
ATOM     17  N   UNL     1       7.637   7.597  17.128  0.00  0.00    +0.000 NA
ATOM     18  C   UNL     1       8.151   7.773  18.341  0.00  0.00    +0.000 A 
ATOM     19  C   UNL     1       8.129   6.566  19.049  0.00  0.00    +0.000 A 
ATOM     20  N   UNL     1       7.564   5.619  18.300  0.00  0.00    +0.000 NA
ENDBRANCH  15  16
ENDBRANCH   2   9
BRANCH   8  21
ATOM     21  C   UNL     1       2.592   6.699  19.783  0.00  0.00    +0.000 C 
BRANCH  21  22
ATOM     22  C   UNL     1       1.768   7.864  20.319  0.00  0.00    +0.000 A 
ATOM     23  C   UNL     1       1.670   8.107  21.697  0.00  0.00    +0.000 A 
ATOM     24  C   UNL     1       0.956   9.204  22.183  0.00  0.00    +0.000 A 
ATOM     25  C   UNL     1       0.314  10.065  21.298  0.00  0.00    +0.000 A 
ATOM     26  C   UNL     1       0.346   9.824  19.918  0.00  0.00    +0.000 A 
ATOM     27  C   UNL     1       1.069   8.714  19.443  0.00  0.00    +0.000 A 
BRANCH  26  28
ATOM     28  C   UNL     1      -0.363  10.723  19.013  0.00  0.00    +0.000 A 
ATOM     29  N   UNL     1      -0.277  12.098  19.134  0.00  0.00    +0.000 NA
ATOM     30  C   UNL     1      -1.063  12.512  18.175  0.00  0.00    +0.000 A 
ATOM     31  O   UNL     1      -1.623  11.512  17.453  0.00  0.00    +0.000 OA
ATOM     32  N   UNL     1      -1.156  10.318  18.006  0.00  0.00    +0.000 NA
ENDBRANCH  26  28
ENDBRANCH  21  22
ENDBRANCH   8  21
TORSDOF 5
ENDMDL
MODEL 9
REMARK VINA RESULT:      -7.5      2.877      4.587
REMARK  Name = 
REMARK  5 active torsions:
REMARK  status: ('A' for Active; 'I' for Inactive)
REMARK    1  A    between atoms: C_2  and  C_3
REMARK    2  A    between atoms: C_9  and  N_10
REMARK    3  A    between atoms: C_20  and  C_21
REMARK    4  A    between atoms: C_21  and  C_22
REMARK    5  A    between atoms: C_26  and  C_27
REMARK                            x       y       z     vdW  Elec       q    Type
REMARK                         _______ _______ _______ _____ _____    ______ ____
ROOT
ATOM      1  O   UNL     1       1.837   9.744  18.297  0.00  0.00    +0.000 OA
ATOM      2  C   UNL     1       0.737   9.567  18.819  0.00  0.00    +0.000 C 
ATOM      3  N   UNL     1       0.560   8.735  19.952  0.00  0.00    +0.000 N 
ATOM      4  C   UNL     1      -0.642   8.696  20.798  0.00  0.00    +0.000 C 
ATOM      5  C   UNL     1      -0.392   9.446  22.124  0.00  0.00    +0.000 C 
ATOM      6  O   UNL     1       0.781   8.974  22.802  0.00  0.00    +0.000 OA
ATOM      7  C   UNL     1       1.944   9.045  21.962  0.00  0.00    +0.000 C 
ATOM      8  C   UNL     1       1.772   8.236  20.658  0.00  0.00    +0.000 C 
ENDROOT
BRANCH   2   9
ATOM      9  C   UNL     1      -0.401  10.375  18.272  0.00  0.00    +0.000 A 
ATOM     10  C   UNL     1      -1.266   9.725  17.376  0.00  0.00    +0.000 A 
ATOM     11  C   UNL     1      -2.341  10.373  16.781  0.00  0.00    +0.000 A 
ATOM     12 CL   UNL     1      -3.209   9.587  15.523  0.00  0.00    +0.000 Cl
ATOM     13  C   UNL     1      -2.695  11.644  17.193  0.00  0.00    +0.000 A 
ATOM     14  C   UNL     1      -1.958  12.256  18.207  0.00  0.00    +0.000 A 
ATOM     15  C   UNL     1      -0.792  11.644  18.735  0.00  0.00    +0.000 A 
BRANCH  15  16
ATOM     16  N   UNL     1      -0.079  12.367  19.726  0.00  0.00    +0.000 N 
ATOM     17  N   UNL     1      -0.503  12.511  21.004  0.00  0.00    +0.000 NA
ATOM     18  C   UNL     1       0.472  13.230  21.552  0.00  0.00    +0.000 A 
ATOM     19  C   UNL     1       1.490  13.448  20.616  0.00  0.00    +0.000 A 
ATOM     20  N   UNL     1       1.183  12.833  19.473  0.00  0.00    +0.000 NA
ENDBRANCH  15  16
ENDBRANCH   2   9
BRANCH   8  21
ATOM     21  C   UNL     1       1.848   6.687  20.861  0.00  0.00    +0.000 C 
BRANCH  21  22
ATOM     22  C   UNL     1       2.387   5.773  19.766  0.00  0.00    +0.000 A 
ATOM     23  C   UNL     1       1.526   4.963  19.011  0.00  0.00    +0.000 A 
ATOM     24  C   UNL     1       2.016   4.163  17.977  0.00  0.00    +0.000 A 
ATOM     25  C   UNL     1       3.379   4.150  17.692  0.00  0.00    +0.000 A 
ATOM     26  C   UNL     1       4.275   4.907  18.459  0.00  0.00    +0.000 A 
ATOM     27  C   UNL     1       3.767   5.707  19.499  0.00  0.00    +0.000 A 
BRANCH  26  28
ATOM     28  C   UNL     1       5.703   4.850  18.162  0.00  0.00    +0.000 A 
ATOM     29  N   UNL     1       6.658   5.200  19.099  0.00  0.00    +0.000 NA
ATOM     30  C   UNL     1       7.773   5.039  18.434  0.00  0.00    +0.000 A 
ATOM     31  O   UNL     1       7.597   4.605  17.163  0.00  0.00    +0.000 OA
ATOM     32  N   UNL     1       6.219   4.474  16.979  0.00  0.00    +0.000 NA
ENDBRANCH  26  28
ENDBRANCH  21  22
ENDBRANCH   8  21
TORSDOF 5
ENDMDL
