MODEL 1
REMARK VINA RESULT:      -6.8      0.000      0.000
REMARK  Name = 
REMARK  2 active torsions:
REMARK  status: ('A' for Active; 'I' for Inactive)
REMARK    1  A    between atoms: N_13  and  S_14
REMARK    2  A    between atoms: S_14  and  C_17
REMARK                            x       y       z     vdW  Elec       q    Type
REMARK                         _______ _______ _______ _____ _____    ______ ____
ROOT
ATOM      1  O   UNL     1       0.333   9.609  23.725  0.00  0.00    +0.000 OA
ATOM      2  C   UNL     1       0.215   9.809  22.519  0.00  0.00    +0.000 A 
ATOM      3  C   UNL     1       1.011   8.996  21.569  0.00  0.00    +0.000 A 
ATOM      4  C   UNL     1       0.886   9.196  20.254  0.00  0.00    +0.000 A 
ATOM      5  C   UNL     1      -0.052  10.162  19.740  0.00  0.00    +0.000 A 
ATOM      6  C   UNL     1      -0.755  10.959  20.568  0.00  0.00    +0.000 A 
ATOM      7  N   UNL     1      -0.570  10.818  21.953  0.00  0.00    +0.000 N 
ATOM      8  C   UNL     1      -1.072  11.838  22.872  0.00  0.00    +0.000 C 
ATOM      9  C   UNL     1      -1.236  13.186  22.158  0.00  0.00    +0.000 C 
ATOM     10  C   UNL     1      -2.316  12.921  21.122  0.00  0.00    +0.000 C 
ATOM     11  C   UNL     1      -1.643  12.097  20.029  0.00  0.00    +0.000 C 
ATOM     12  C   UNL     1      -0.848  13.130  19.222  0.00  0.00    +0.000 C 
ATOM     13  N   UNL     1       0.114  13.907  20.061  0.00  0.00    +0.000 NA
ATOM     14  C   UNL     1       0.124  13.638  21.544  0.00  0.00    +0.000 C 
ENDROOT
BRANCH  13  15
ATOM     15  S   UNL     1       1.689  14.033  19.381  0.00  0.00    +0.000 S 
ATOM     16  O   UNL     1       2.667  14.102  20.436  0.00  0.00    +0.000 OA
ATOM     17  O   UNL     1       1.787  13.004  18.356  0.00  0.00    +0.000 OA
BRANCH  15  18
ATOM     18  C   UNL     1       1.667  15.603  18.558  0.00  0.00    +0.000 A 
ATOM     19  C   UNL     1       0.495  16.377  18.614  0.00  0.00    +0.000 A 
ATOM     20  C   UNL     1       0.419  17.573  17.903  0.00  0.00    +0.000 A 
ATOM     21 CL   UNL     1      -1.019  18.516  17.958  0.00  0.00    +0.000 Cl
ATOM     22  C   UNL     1       1.498  18.009  17.137  0.00  0.00    +0.000 A 
ATOM     23  C   UNL     1       2.666  17.244  17.094  0.00  0.00    +0.000 A 
ATOM     24  C   UNL     1       2.760  16.038  17.802  0.00  0.00    +0.000 A 
ATOM     25 CL   UNL     1       4.257  15.190  17.684  0.00  0.00    +0.000 Cl
ENDBRANCH  15  18
ENDBRANCH  13  15
TORSDOF 2
ENDMDL
MODEL 2
REMARK VINA RESULT:      -6.8      8.631     10.432
REMARK  Name = 
REMARK  2 active torsions:
REMARK  status: ('A' for Active; 'I' for Inactive)
REMARK    1  A    between atoms: N_13  and  S_14
REMARK    2  A    between atoms: S_14  and  C_17
REMARK                            x       y       z     vdW  Elec       q    Type
REMARK                         _______ _______ _______ _____ _____    ______ ____
ROOT
ATOM      1  O   UNL     1       0.905   3.064  21.680  0.00  0.00    +0.000 OA
ATOM      2  C   UNL     1       1.150   3.164  20.481  0.00  0.00    +0.000 A 
ATOM      3  C   UNL     1       1.070   1.959  19.622  0.00  0.00    +0.000 A 
ATOM      4  C   UNL     1       1.324   2.055  18.314  0.00  0.00    +0.000 A 
ATOM      5  C   UNL     1       1.630   3.329  17.713  0.00  0.00    +0.000 A 
ATOM      6  C   UNL     1       1.766   4.438  18.465  0.00  0.00    +0.000 A 
ATOM      7  N   UNL     1       1.585   4.335  19.854  0.00  0.00    +0.000 N 
ATOM      8  C   UNL     1       2.006   5.422  20.735  0.00  0.00    +0.000 C 
ATOM      9  C   UNL     1       3.091   6.279  20.070  0.00  0.00    +0.000 C 
ATOM     10  C   UNL     1       2.386   6.897  18.875  0.00  0.00    +0.000 C 
ATOM     11  C   UNL     1       2.244   5.771  17.855  0.00  0.00    +0.000 C 
ATOM     12  C   UNL     1       3.637   5.662  17.225  0.00  0.00    +0.000 C 
ATOM     13  N   UNL     1       4.713   5.422  18.233  0.00  0.00    +0.000 NA
ATOM     14  C   UNL     1       4.316   5.392  19.687  0.00  0.00    +0.000 C 
ENDROOT
BRANCH  13  15
ATOM     15  S   UNL     1       5.806   4.165  17.801  0.00  0.00    +0.000 S 
ATOM     16  O   UNL     1       6.998   4.264  18.603  0.00  0.00    +0.000 OA
ATOM     17  O   UNL     1       5.037   2.930  17.778  0.00  0.00    +0.000 OA
BRANCH  15  18
ATOM     18  C   UNL     1       6.246   4.548  16.127  0.00  0.00    +0.000 A 
ATOM     19  C   UNL     1       5.840   3.671  15.106  0.00  0.00    +0.000 A 
ATOM     20  C   UNL     1       6.247   3.900  13.793  0.00  0.00    +0.000 A 
ATOM     21 CL   UNL     1       5.762   2.821  12.543  0.00  0.00    +0.000 Cl
ATOM     22  C   UNL     1       7.054   4.992  13.484  0.00  0.00    +0.000 A 
ATOM     23  C   UNL     1       7.445   5.869  14.499  0.00  0.00    +0.000 A 
ATOM     24  C   UNL     1       7.045   5.655  15.825  0.00  0.00    +0.000 A 
ATOM     25 CL   UNL     1       7.578   6.813  16.987  0.00  0.00    +0.000 Cl
ENDBRANCH  15  18
ENDBRANCH  13  15
TORSDOF 2
ENDMDL
MODEL 3
REMARK VINA RESULT:      -6.6      1.443      1.800
REMARK  Name = 
REMARK  2 active torsions:
REMARK  status: ('A' for Active; 'I' for Inactive)
REMARK    1  A    between atoms: N_13  and  S_14
REMARK    2  A    between atoms: S_14  and  C_17
REMARK                            x       y       z     vdW  Elec       q    Type
REMARK                         _______ _______ _______ _____ _____    ______ ____
ROOT
ATOM      1  O   UNL     1       1.467   7.615  21.244  0.00  0.00    +0.000 OA
ATOM      2  C   UNL     1       1.331   8.297  20.231  0.00  0.00    +0.000 A 
ATOM      3  C   UNL     1       2.204   8.038  19.061  0.00  0.00    +0.000 A 
ATOM      4  C   UNL     1       2.060   8.765  17.950  0.00  0.00    +0.000 A 
ATOM      5  C   UNL     1       1.033   9.771  17.853  0.00  0.00    +0.000 A 
ATOM      6  C   UNL     1       0.255  10.075  18.910  0.00  0.00    +0.000 A 
ATOM      7  N   UNL     1       0.451   9.376  20.112  0.00  0.00    +0.000 N 
ATOM      8  C   UNL     1      -0.148   9.861  21.354  0.00  0.00    +0.000 C 
ATOM      9  C   UNL     1      -0.443  11.364  21.270  0.00  0.00    +0.000 C 
ATOM     10  C   UNL     1      -1.492  11.470  20.175  0.00  0.00    +0.000 C 
ATOM     11  C   UNL     1      -0.741  11.252  18.865  0.00  0.00    +0.000 C 
ATOM     12  C   UNL     1      -0.049  12.595  18.605  0.00  0.00    +0.000 C 
ATOM     13  N   UNL     1       0.831  13.024  19.733  0.00  0.00    +0.000 NA
ATOM     14  C   UNL     1       0.867  12.153  20.963  0.00  0.00    +0.000 C 
ENDROOT
BRANCH  13  15
ATOM     15  S   UNL     1       2.386  13.565  19.236  0.00  0.00    +0.000 S 
ATOM     16  O   UNL     1       3.243  13.694  20.387  0.00  0.00    +0.000 OA
ATOM     17  O   UNL     1       2.785  12.726  18.116  0.00  0.00    +0.000 OA
BRANCH  15  18
ATOM     18  C   UNL     1       2.083  15.192  18.602  0.00  0.00    +0.000 A 
ATOM     19  C   UNL     1       0.805  15.754  18.772  0.00  0.00    +0.000 A 
ATOM     20  C   UNL     1       0.512  16.994  18.207  0.00  0.00    +0.000 A 
ATOM     21 CL   UNL     1      -1.054  17.678  18.402  0.00  0.00    +0.000 Cl
ATOM     22  C   UNL     1       1.476  17.681  17.474  0.00  0.00    +0.000 A 
ATOM     23  C   UNL     1       2.748  17.126  17.317  0.00  0.00    +0.000 A 
ATOM     24  C   UNL     1       3.061  15.880  17.879  0.00  0.00    +0.000 A 
ATOM     25 CL   UNL     1       4.668  15.305  17.631  0.00  0.00    +0.000 Cl
ENDBRANCH  15  18
ENDBRANCH  13  15
TORSDOF 2
ENDMDL
MODEL 4
REMARK VINA RESULT:      -6.3      6.966      9.620
REMARK  Name = 
REMARK  2 active torsions:
REMARK  status: ('A' for Active; 'I' for Inactive)
REMARK    1  A    between atoms: N_13  and  S_14
REMARK    2  A    between atoms: S_14  and  C_17
REMARK                            x       y       z     vdW  Elec       q    Type
REMARK                         _______ _______ _______ _____ _____    ______ ____
ROOT
ATOM      1  O   UNL     1       7.849   5.575  14.237  0.00  0.00    +0.000 OA
ATOM      2  C   UNL     1       7.010   5.002  14.929  0.00  0.00    +0.000 A 
ATOM      3  C   UNL     1       5.987   4.154  14.272  0.00  0.00    +0.000 A 
ATOM      4  C   UNL     1       5.076   3.517  15.013  0.00  0.00    +0.000 A 
ATOM      5  C   UNL     1       5.101   3.605  16.452  0.00  0.00    +0.000 A 
ATOM      6  C   UNL     1       5.978   4.407  17.084  0.00  0.00    +0.000 A 
ATOM      7  N   UNL     1       6.889   5.148  16.314  0.00  0.00    +0.000 N 
ATOM      8  C   UNL     1       7.649   6.240  16.918  0.00  0.00    +0.000 C 
ATOM      9  C   UNL     1       6.938   6.780  18.165  0.00  0.00    +0.000 C 
ATOM     10  C   UNL     1       6.957   5.609  19.132  0.00  0.00    +0.000 C 
ATOM     11  C   UNL     1       5.914   4.626  18.609  0.00  0.00    +0.000 C 
ATOM     12  C   UNL     1       4.578   5.230  19.059  0.00  0.00    +0.000 C 
ATOM     13  N   UNL     1       4.378   6.627  18.572  0.00  0.00    +0.000 NA
ATOM     14  C   UNL     1       5.502   7.265  17.796  0.00  0.00    +0.000 C 
ENDROOT
BRANCH  13  15
ATOM     15  S   UNL     1       2.828   6.911  17.882  0.00  0.00    +0.000 S 
ATOM     16  O   UNL     1       2.965   7.728  16.704  0.00  0.00    +0.000 OA
ATOM     17  O   UNL     1       2.160   5.620  17.806  0.00  0.00    +0.000 OA
BRANCH  15  18
ATOM     18  C   UNL     1       1.989   7.872  19.113  0.00  0.00    +0.000 A 
ATOM     19  C   UNL     1       1.711   9.223  18.839  0.00  0.00    +0.000 A 
ATOM     20  C   UNL     1       1.133  10.025  19.822  0.00  0.00    +0.000 A 
ATOM     21 CL   UNL     1       0.803  11.681  19.495  0.00  0.00    +0.000 Cl
ATOM     22  C   UNL     1       0.828   9.497  21.075  0.00  0.00    +0.000 A 
ATOM     23  C   UNL     1       1.094   8.152  21.339  0.00  0.00    +0.000 A 
ATOM     24  C   UNL     1       1.675   7.330  20.363  0.00  0.00    +0.000 A 
ATOM     25 CL   UNL     1       1.942   5.683  20.802  0.00  0.00    +0.000 Cl
ENDBRANCH  15  18
ENDBRANCH  13  15
TORSDOF 2
ENDMDL
MODEL 5
REMARK VINA RESULT:      -6.0      1.095      1.302
REMARK  Name = 
REMARK  2 active torsions:
REMARK  status: ('A' for Active; 'I' for Inactive)
REMARK    1  A    between atoms: N_13  and  S_14
REMARK    2  A    between atoms: S_14  and  C_17
REMARK                            x       y       z     vdW  Elec       q    Type
REMARK                         _______ _______ _______ _____ _____    ______ ____
ROOT
ATOM      1  O   UNL     1       1.144   8.726  21.821  0.00  0.00    +0.000 OA
ATOM      2  C   UNL     1       0.768   9.322  20.815  0.00  0.00    +0.000 A 
ATOM      3  C   UNL     1       1.391   9.001  19.509  0.00  0.00    +0.000 A 
ATOM      4  C   UNL     1       0.985   9.634  18.404  0.00  0.00    +0.000 A 
ATOM      5  C   UNL     1      -0.088  10.594  18.456  0.00  0.00    +0.000 A 
ATOM      6  C   UNL     1      -0.644  10.954  19.629  0.00  0.00    +0.000 A 
ATOM      7  N   UNL     1      -0.169  10.359  20.809  0.00  0.00    +0.000 N 
ATOM      8  C   UNL     1      -0.521  10.920  22.111  0.00  0.00    +0.000 C 
ATOM      9  C   UNL     1      -0.900  12.401  21.986  0.00  0.00    +0.000 C 
ATOM     10  C   UNL     1      -2.156  12.386  21.132  0.00  0.00    +0.000 C 
ATOM     11  C   UNL     1      -1.683  12.090  19.712  0.00  0.00    +0.000 C 
ATOM     12  C   UNL     1      -1.127  13.431  19.219  0.00  0.00    +0.000 C 
ATOM     13  N   UNL     1      -0.054  13.976  20.103  0.00  0.00    +0.000 NA
ATOM     14  C   UNL     1       0.278  13.206  21.356  0.00  0.00    +0.000 C 
ENDROOT
BRANCH  13  15
ATOM     15  S   UNL     1       1.336  14.528  19.255  0.00  0.00    +0.000 S 
ATOM     16  O   UNL     1       2.421  14.725  20.181  0.00  0.00    +0.000 OA
ATOM     17  O   UNL     1       1.503  13.649  18.106  0.00  0.00    +0.000 OA
BRANCH  15  18
ATOM     18  C   UNL     1       0.851  16.119  18.642  0.00  0.00    +0.000 A 
ATOM     19  C   UNL     1      -0.430  16.602  18.962  0.00  0.00    +0.000 A 
ATOM     20  C   UNL     1      -0.871  17.809  18.421  0.00  0.00    +0.000 A 
ATOM     21 CL   UNL     1      -2.443  18.396  18.800  0.00  0.00    +0.000 Cl
ATOM     22  C   UNL     1      -0.051  18.540  17.565  0.00  0.00    +0.000 A 
ATOM     23  C   UNL     1       1.226  18.064  17.260  0.00  0.00    +0.000 A 
ATOM     24  C   UNL     1       1.686  16.852  17.794  0.00  0.00    +0.000 A 
ATOM     25 CL   UNL     1       3.285  16.375  17.357  0.00  0.00    +0.000 Cl
ENDBRANCH  15  18
ENDBRANCH  13  15
TORSDOF 2
ENDMDL
MODEL 6
REMARK VINA RESULT:      -5.9      6.056      8.383
REMARK  Name = 
REMARK  2 active torsions:
REMARK  status: ('A' for Active; 'I' for Inactive)
REMARK    1  A    between atoms: N_13  and  S_14
REMARK    2  A    between atoms: S_14  and  C_17
REMARK                            x       y       z     vdW  Elec       q    Type
REMARK                         _______ _______ _______ _____ _____    ______ ____
ROOT
ATOM      1  O   UNL     1       3.023  13.476  21.189  0.00  0.00    +0.000 OA
ATOM      2  C   UNL     1       3.425  14.288  20.361  0.00  0.00    +0.000 A 
ATOM      3  C   UNL     1       2.968  14.176  18.955  0.00  0.00    +0.000 A 
ATOM      4  C   UNL     1       3.390  15.060  18.045  0.00  0.00    +0.000 A 
ATOM      5  C   UNL     1       4.249  16.154  18.422  0.00  0.00    +0.000 A 
ATOM      6  C   UNL     1       4.731  16.261  19.675  0.00  0.00    +0.000 A 
ATOM      7  N   UNL     1       4.363  15.291  20.622  0.00  0.00    +0.000 N 
ATOM      8  C   UNL     1       5.080  15.191  21.891  0.00  0.00    +0.000 C 
ATOM      9  C   UNL     1       6.487  15.792  21.776  0.00  0.00    +0.000 C 
ATOM     10  C   UNL     1       6.233  17.265  21.500  0.00  0.00    +0.000 C 
ATOM     11  C   UNL     1       5.770  17.337  20.048  0.00  0.00    +0.000 C 
ATOM     12  C   UNL     1       7.066  17.206  19.239  0.00  0.00    +0.000 C 
ATOM     13  N   UNL     1       7.829  15.964  19.560  0.00  0.00    +0.000 NA
ATOM     14  C   UNL     1       7.288  15.072  20.648  0.00  0.00    +0.000 C 
ENDROOT
BRANCH  13  15
ATOM     15  S   UNL     1       8.368  15.098  18.175  0.00  0.00    +0.000 S 
ATOM     16  O   UNL     1       7.248  14.444  17.548  0.00  0.00    +0.000 OA
ATOM     17  O   UNL     1       9.208  16.008  17.411  0.00  0.00    +0.000 OA
BRANCH  15  18
ATOM     18  C   UNL     1       9.421  13.841  18.848  0.00  0.00    +0.000 A 
ATOM     19  C   UNL     1       9.034  12.495  18.716  0.00  0.00    +0.000 A 
ATOM     20  C   UNL     1       9.797  11.492  19.312  0.00  0.00    +0.000 A 
ATOM     21 CL   UNL     1       9.319   9.847  19.162  0.00  0.00    +0.000 Cl
ATOM     22  C   UNL     1      10.940  11.813  20.039  0.00  0.00    +0.000 A 
ATOM     23  C   UNL     1      11.329  13.150  20.158  0.00  0.00    +0.000 A 
ATOM     24  C   UNL     1      10.574  14.172  19.565  0.00  0.00    +0.000 A 
ATOM     25 CL   UNL     1      11.162  15.780  19.769  0.00  0.00    +0.000 Cl
ENDBRANCH  15  18
ENDBRANCH  13  15
TORSDOF 2
ENDMDL
MODEL 7
REMARK VINA RESULT:      -5.7      4.300      6.572
REMARK  Name = 
REMARK  2 active torsions:
REMARK  status: ('A' for Active; 'I' for Inactive)
REMARK    1  A    between atoms: N_13  and  S_14
REMARK    2  A    between atoms: S_14  and  C_17
REMARK                            x       y       z     vdW  Elec       q    Type
REMARK                         _______ _______ _______ _____ _____    ______ ____
ROOT
ATOM      1  O   UNL     1       0.233   9.714  19.170  0.00  0.00    +0.000 OA
ATOM      2  C   UNL     1      -0.044  10.109  20.300  0.00  0.00    +0.000 A 
ATOM      3  C   UNL     1      -0.351   9.118  21.358  0.00  0.00    +0.000 A 
ATOM      4  C   UNL     1      -0.644   9.532  22.594  0.00  0.00    +0.000 A 
ATOM      5  C   UNL     1      -0.618  10.934  22.928  0.00  0.00    +0.000 A 
ATOM      6  C   UNL     1      -0.397  11.870  21.985  0.00  0.00    +0.000 A 
ATOM      7  N   UNL     1      -0.171  11.453  20.663  0.00  0.00    +0.000 N 
ATOM      8  C   UNL     1      -0.222  12.417  19.566  0.00  0.00    +0.000 C 
ATOM      9  C   UNL     1      -1.062  13.641  19.951  0.00  0.00    +0.000 C 
ATOM     10  C   UNL     1      -0.283  14.275  21.091  0.00  0.00    +0.000 C 
ATOM     11  C   UNL     1      -0.519  13.374  22.300  0.00  0.00    +0.000 C 
ATOM     12  C   UNL     1      -1.922  13.761  22.782  0.00  0.00    +0.000 C 
ATOM     13  N   UNL     1      -2.962  13.618  21.720  0.00  0.00    +0.000 NA
ATOM     14  C   UNL     1      -2.505  13.201  20.345  0.00  0.00    +0.000 C 
ENDROOT
BRANCH  13  15
ATOM     15  S   UNL     1      -4.384  12.802  22.241  0.00  0.00    +0.000 S 
ATOM     16  O   UNL     1      -4.953  12.071  21.138  0.00  0.00    +0.000 OA
ATOM     17  O   UNL     1      -4.044  12.115  23.478  0.00  0.00    +0.000 OA
BRANCH  15  18
ATOM     18  C   UNL     1      -5.497  14.119  22.651  0.00  0.00    +0.000 A 
ATOM     19  C   UNL     1      -5.158  15.430  22.274  0.00  0.00    +0.000 A 
ATOM     20  C   UNL     1      -5.970  16.495  22.661  0.00  0.00    +0.000 A 
ATOM     21 CL   UNL     1      -5.551  18.102  22.211  0.00  0.00    +0.000 Cl
ATOM     22  C   UNL     1      -7.117  16.269  23.419  0.00  0.00    +0.000 A 
ATOM     23  C   UNL     1      -7.457  14.964  23.781  0.00  0.00    +0.000 A 
ATOM     24  C   UNL     1      -6.653  13.881  23.402  0.00  0.00    +0.000 A 
ATOM     25 CL   UNL     1      -7.184  12.316  23.895  0.00  0.00    +0.000 Cl
ENDBRANCH  15  18
ENDBRANCH  13  15
TORSDOF 2
ENDMDL
MODEL 8
REMARK VINA RESULT:      -5.7      2.897      6.256
REMARK  Name = 
REMARK  2 active torsions:
REMARK  status: ('A' for Active; 'I' for Inactive)
REMARK    1  A    between atoms: N_13  and  S_14
REMARK    2  A    between atoms: S_14  and  C_17
REMARK                            x       y       z     vdW  Elec       q    Type
REMARK                         _______ _______ _______ _____ _____    ______ ____
ROOT
ATOM      1  O   UNL     1       3.006  17.269  16.810  0.00  0.00    +0.000 OA
ATOM      2  C   UNL     1       3.142  16.685  17.882  0.00  0.00    +0.000 A 
ATOM      3  C   UNL     1       4.403  15.955  18.155  0.00  0.00    +0.000 A 
ATOM      4  C   UNL     1       4.568  15.324  19.321  0.00  0.00    +0.000 A 
ATOM      5  C   UNL     1       3.552  15.382  20.341  0.00  0.00    +0.000 A 
ATOM      6  C   UNL     1       2.371  15.987  20.114  0.00  0.00    +0.000 A 
ATOM      7  N   UNL     1       2.150  16.583  18.862  0.00  0.00    +0.000 N 
ATOM      8  C   UNL     1       0.803  16.985  18.463  0.00  0.00    +0.000 C 
ATOM      9  C   UNL     1      -0.258  16.193  19.238  0.00  0.00    +0.000 C 
ATOM     10  C   UNL     1      -0.053  16.624  20.681  0.00  0.00    +0.000 C 
ATOM     11  C   UNL     1       1.222  15.922  21.141  0.00  0.00    +0.000 C 
ATOM     12  C   UNL     1       0.772  14.485  21.427  0.00  0.00    +0.000 C 
ATOM     13  N   UNL     1       0.125  13.833  20.250  0.00  0.00    +0.000 NA
ATOM     14  C   UNL     1      -0.063  14.663  19.006  0.00  0.00    +0.000 C 
ENDROOT
BRANCH  13  15
ATOM     15  S   UNL     1       0.701  12.245  19.927  0.00  0.00    +0.000 S 
ATOM     16  O   UNL     1       1.851  12.314  19.063  0.00  0.00    +0.000 OA
ATOM     17  O   UNL     1       0.788  11.561  21.210  0.00  0.00    +0.000 OA
BRANCH  15  18
ATOM     18  C   UNL     1      -0.620  11.495  19.013  0.00  0.00    +0.000 A 
ATOM     19  C   UNL     1      -1.915  12.027  19.143  0.00  0.00    +0.000 A 
ATOM     20  C   UNL     1      -2.987  11.404  18.506  0.00  0.00    +0.000 A 
ATOM     21 CL   UNL     1      -4.575  12.044  18.674  0.00  0.00    +0.000 Cl
ATOM     22  C   UNL     1      -2.785  10.258  17.741  0.00  0.00    +0.000 A 
ATOM     23  C   UNL     1      -1.495   9.740  17.604  0.00  0.00    +0.000 A 
ATOM     24  C   UNL     1      -0.405  10.353  18.237  0.00  0.00    +0.000 A 
ATOM     25 CL   UNL     1       1.141   9.630  17.981  0.00  0.00    +0.000 Cl
ENDBRANCH  15  18
ENDBRANCH  13  15
TORSDOF 2
ENDMDL
MODEL 9
REMARK VINA RESULT:      -5.7      1.695      2.303
REMARK  Name = 
REMARK  2 active torsions:
REMARK  status: ('A' for Active; 'I' for Inactive)
REMARK    1  A    between atoms: N_13  and  S_14
REMARK    2  A    between atoms: S_14  and  C_17
REMARK                            x       y       z     vdW  Elec       q    Type
REMARK                         _______ _______ _______ _____ _____    ______ ____
ROOT
ATOM      1  O   UNL     1       0.277   9.531  23.933  0.00  0.00    +0.000 OA
ATOM      2  C   UNL     1       0.217   9.712  22.720  0.00  0.00    +0.000 A 
ATOM      3  C   UNL     1       1.122   8.948  21.829  0.00  0.00    +0.000 A 
ATOM      4  C   UNL     1       1.061   9.127  20.506  0.00  0.00    +0.000 A 
ATOM      5  C   UNL     1       0.091  10.022  19.926  0.00  0.00    +0.000 A 
ATOM      6  C   UNL     1      -0.712  10.774  20.702  0.00  0.00    +0.000 A 
ATOM      7  N   UNL     1      -0.601  10.659  22.097  0.00  0.00    +0.000 N 
ATOM      8  C   UNL     1      -1.225  11.649  22.971  0.00  0.00    +0.000 C 
ATOM      9  C   UNL     1      -1.439  12.976  22.232  0.00  0.00    +0.000 C 
ATOM     10  C   UNL     1      -2.435  12.628  21.139  0.00  0.00    +0.000 C 
ATOM     11  C   UNL     1      -1.644  11.844  20.097  0.00  0.00    +0.000 C 
ATOM     12  C   UNL     1      -0.875  12.923  19.325  0.00  0.00    +0.000 C 
ATOM     13  N   UNL     1      -0.020  13.771  20.208  0.00  0.00    +0.000 NA
ATOM     14  C   UNL     1      -0.079  13.517  21.693  0.00  0.00    +0.000 C 
ENDROOT
BRANCH  13  15
ATOM     15  S   UNL     1       1.580  14.000  19.619  0.00  0.00    +0.000 S 
ATOM     16  O   UNL     1       2.503  13.233  20.417  0.00  0.00    +0.000 OA
ATOM     17  O   UNL     1       1.527  13.815  18.177  0.00  0.00    +0.000 OA
BRANCH  15  18
ATOM     18  C   UNL     1       1.898  15.717  19.924  0.00  0.00    +0.000 A 
ATOM     19  C   UNL     1       2.982  16.066  20.749  0.00  0.00    +0.000 A 
ATOM     20  C   UNL     1       3.202  17.403  21.077  0.00  0.00    +0.000 A 
ATOM     21 CL   UNL     1       4.519  17.831  22.097  0.00  0.00    +0.000 Cl
ATOM     22  C   UNL     1       2.355  18.397  20.592  0.00  0.00    +0.000 A 
ATOM     23  C   UNL     1       1.287  18.049  19.763  0.00  0.00    +0.000 A 
ATOM     24  C   UNL     1       1.050  16.709  19.422  0.00  0.00    +0.000 A 
ATOM     25 CL   UNL     1      -0.289  16.405  18.379  0.00  0.00    +0.000 Cl
ENDBRANCH  15  18
ENDBRANCH  13  15
TORSDOF 2
ENDMDL
