MODEL 1
REMARK VINA RESULT:      -7.2      0.000      0.000
REMARK  Name = 
REMARK  9 active torsions:
REMARK  status: ('A' for Active; 'I' for Inactive)
REMARK    1  A    between atoms: C_1  and  C_2
REMARK    2  A    between atoms: C_2  and  N_3
REMARK    3  A    between atoms: N_3  and  C_13
REMARK    4  A    between atoms: C_4  and  C_6
REMARK    5  A    between atoms: C_6  and  N_7
REMARK    6  A    between atoms: C_20  and  O_21
REMARK    7  A    between atoms: C_22  and  C_23
REMARK    8  A    between atoms: N_25  and  C_26
REMARK    9  A    between atoms: C_26  and  C_27
REMARK                            x       y       z     vdW  Elec       q    Type
REMARK                         _______ _______ _______ _____ _____    ______ ____
ROOT
ATOM      1  C   UNL     1      -5.684  13.199  19.797  0.00  0.00    +0.000 A 
ATOM      2  C   UNL     1      -6.947  13.068  19.355  0.00  0.00    +0.000 A 
ATOM      3  C   UNL     1      -7.268  12.286  18.198  0.00  0.00    +0.000 A 
ATOM      4  C   UNL     1      -6.290  11.705  17.499  0.00  0.00    +0.000 A 
ATOM      5  N   UNL     1      -4.962  11.778  17.893  0.00  0.00    +0.000 N 
ATOM      6  C   UNL     1      -4.007  11.200  17.086  0.00  0.00    +0.000 A 
ATOM      7  O   UNL     1      -4.201  10.686  15.979  0.00  0.00    +0.000 OA
ATOM      8  C   UNL     1      -2.615  11.175  17.591  0.00  0.00    +0.000 A 
ATOM      9  C   UNL     1      -2.366  11.794  18.759  0.00  0.00    +0.000 A 
ATOM     10  N   UNL     1      -3.331  12.516  19.438  0.00  0.00    +0.000 NA
ATOM     11  C   UNL     1      -4.569  12.456  19.048  0.00  0.00    +0.000 A 
ENDROOT
BRANCH   9  12
ATOM     12  C   UNL     1      -0.985  11.715  19.417  0.00  0.00    +0.000 C 
ATOM     13  O   UNL     1      -0.422  12.723  19.841  0.00  0.00    +0.000 OA
ATOM     14  N   UNL     1      -0.418  10.467  19.512  0.00  0.00    +0.000 N 
ATOM     15  H   UNL     1      -0.939   9.675  19.153  0.00  0.00    +0.000 HD
BRANCH  14  16
ATOM     16  C   UNL     1       0.865  10.206  20.119  0.00  0.00    +0.000 C 
BRANCH  16  17
ATOM     17  C   UNL     1       1.504   8.978  19.518  0.00  0.00    +0.000 A 
ATOM     18  C   UNL     1       1.707   7.819  20.287  0.00  0.00    +0.000 A 
ATOM     19  C   UNL     1       2.312   6.694  19.722  0.00  0.00    +0.000 A 
ATOM     20  C   UNL     1       2.717   6.725  18.392  0.00  0.00    +0.000 A 
ATOM     21  F   UNL     1       3.295   5.645  17.851  0.00  0.00    +0.000 F 
ATOM     22  C   UNL     1       2.536   7.866  17.617  0.00  0.00    +0.000 A 
ATOM     23  C   UNL     1       1.931   8.993  18.181  0.00  0.00    +0.000 A 
ENDBRANCH  16  17
ENDBRANCH  14  16
ENDBRANCH   9  12
BRANCH   1  24
ATOM     24  N   UNL     1      -5.360  14.030  20.876  0.00  0.00    +0.000 N 
ATOM     25  C   UNL     1      -5.197  13.446  22.139  0.00  0.00    +0.000 C 
ATOM     26  O   UNL     1      -5.672  12.328  22.384  0.00  0.00    +0.000 OA
BRANCH  24  28
ATOM     27  C   UNL     1      -6.452  16.261  21.015  0.00  0.00    +0.000 C 
ATOM     28  C   UNL     1      -5.209  15.472  20.615  0.00  0.00    +0.000 C 
ENDBRANCH  24  28
BRANCH  25  29
ATOM     29  C   UNL     1      -4.387  14.214  23.203  0.00  0.00    +0.000 C 
BRANCH  29  30
ATOM     30  N   UNL     1      -3.609  13.322  24.106  0.00  0.00    +0.000 NA
ATOM     31  C   UNL     1      -3.155  14.073  25.305  0.00  0.00    +0.000 C 
ATOM     32  C   UNL     1      -2.081  15.135  25.006  0.00  0.00    +0.000 C 
ATOM     33  O   UNL     1      -0.944  14.573  24.339  0.00  0.00    +0.000 OA
ATOM     34  C   UNL     1      -1.333  13.879  23.144  0.00  0.00    +0.000 C 
ATOM     35  C   UNL     1      -2.376  12.794  23.460  0.00  0.00    +0.000 C 
ENDBRANCH  29  30
ENDBRANCH  25  29
ENDBRANCH   1  24
BRANCH   8  36
ATOM     36  O   UNL     1      -1.688  10.497  16.812  0.00  0.00    +0.000 OA
ATOM     37  H   UNL     1      -1.566  11.069  16.020  0.00  0.00    +0.000 HD
ENDBRANCH   8  36
TORSDOF 8
ENDMDL
MODEL 2
REMARK VINA RESULT:      -7.0      1.732      2.411
REMARK  Name = 
REMARK  9 active torsions:
REMARK  status: ('A' for Active; 'I' for Inactive)
REMARK    1  A    between atoms: C_1  and  C_2
REMARK    2  A    between atoms: C_2  and  N_3
REMARK    3  A    between atoms: N_3  and  C_13
REMARK    4  A    between atoms: C_4  and  C_6
REMARK    5  A    between atoms: C_6  and  N_7
REMARK    6  A    between atoms: C_20  and  O_21
REMARK    7  A    between atoms: C_22  and  C_23
REMARK    8  A    between atoms: N_25  and  C_26
REMARK    9  A    between atoms: C_26  and  C_27
REMARK                            x       y       z     vdW  Elec       q    Type
REMARK                         _______ _______ _______ _____ _____    ______ ____
ROOT
ATOM      1  C   UNL     1      -4.431  12.849  21.047  0.00  0.00    +0.000 A 
ATOM      2  C   UNL     1      -5.774  12.823  21.088  0.00  0.00    +0.000 A 
ATOM      3  C   UNL     1      -6.556  12.332  19.992  0.00  0.00    +0.000 A 
ATOM      4  C   UNL     1      -5.949  11.931  18.872  0.00  0.00    +0.000 A 
ATOM      5  N   UNL     1      -4.567  11.913  18.751  0.00  0.00    +0.000 N 
ATOM      6  C   UNL     1      -4.020  11.541  17.544  0.00  0.00    +0.000 A 
ATOM      7  O   UNL     1      -4.642  11.298  16.505  0.00  0.00    +0.000 OA
ATOM      8  C   UNL     1      -2.547  11.401  17.480  0.00  0.00    +0.000 A 
ATOM      9  C   UNL     1      -1.842  11.730  18.576  0.00  0.00    +0.000 A 
ATOM     10  N   UNL     1      -2.433  12.273  19.703  0.00  0.00    +0.000 NA
ATOM     11  C   UNL     1      -3.728  12.303  19.797  0.00  0.00    +0.000 A 
ENDROOT
BRANCH   9  12
ATOM     12  C   UNL     1      -0.328  11.503  18.643  0.00  0.00    +0.000 C 
ATOM     13  O   UNL     1       0.403  12.258  19.279  0.00  0.00    +0.000 OA
ATOM     14  N   UNL     1       0.161  10.415  17.962  0.00  0.00    +0.000 N 
ATOM     15  H   UNL     1      -0.496   9.824  17.464  0.00  0.00    +0.000 HD
BRANCH  14  16
ATOM     16  C   UNL     1       1.554  10.039  17.932  0.00  0.00    +0.000 C 
BRANCH  16  17
ATOM     17  C   UNL     1       1.783   8.760  18.700  0.00  0.00    +0.000 A 
ATOM     18  C   UNL     1       1.406   8.651  20.050  0.00  0.00    +0.000 A 
ATOM     19  C   UNL     1       1.637   7.465  20.753  0.00  0.00    +0.000 A 
ATOM     20  C   UNL     1       2.244   6.392  20.111  0.00  0.00    +0.000 A 
ATOM     21  F   UNL     1       2.462   5.255  20.785  0.00  0.00    +0.000 F 
ATOM     22  C   UNL     1       2.635   6.484  18.780  0.00  0.00    +0.000 A 
ATOM     23  C   UNL     1       2.406   7.669  18.075  0.00  0.00    +0.000 A 
ENDBRANCH  16  17
ENDBRANCH  14  16
ENDBRANCH   9  12
BRANCH   1  24
ATOM     24  N   UNL     1      -3.670  13.406  22.082  0.00  0.00    +0.000 N 
ATOM     25  C   UNL     1      -3.425  14.786  22.059  0.00  0.00    +0.000 C 
ATOM     26  O   UNL     1      -3.543  15.431  21.007  0.00  0.00    +0.000 OA
BRANCH  24  28
ATOM     27  C   UNL     1      -4.139  12.405  24.311  0.00  0.00    +0.000 C 
ATOM     28  C   UNL     1      -3.172  12.504  23.135  0.00  0.00    +0.000 C 
ENDBRANCH  24  28
BRANCH  25  29
ATOM     29  C   UNL     1      -3.037  15.484  23.378  0.00  0.00    +0.000 C 
BRANCH  29  30
ATOM     30  N   UNL     1      -1.587  15.811  23.464  0.00  0.00    +0.000 NA
ATOM     31  C   UNL     1      -1.060  15.458  24.808  0.00  0.00    +0.000 C 
ATOM     32  C   UNL     1      -1.592  16.354  25.942  0.00  0.00    +0.000 C 
ATOM     33  O   UNL     1      -1.349  17.743  25.685  0.00  0.00    +0.000 OA
ATOM     34  C   UNL     1      -1.888  18.139  24.415  0.00  0.00    +0.000 C 
ATOM     35  C   UNL     1      -1.319  17.265  23.285  0.00  0.00    +0.000 C 
ENDBRANCH  29  30
ENDBRANCH  25  29
ENDBRANCH   1  24
BRANCH   8  36
ATOM     36  O   UNL     1      -2.023  10.925  16.285  0.00  0.00    +0.000 OA
ATOM     37  H   UNL     1      -1.509  10.126  16.543  0.00  0.00    +0.000 HD
ENDBRANCH   8  36
TORSDOF 8
ENDMDL
MODEL 3
REMARK VINA RESULT:      -7.0      0.600      1.056
REMARK  Name = 
REMARK  9 active torsions:
REMARK  status: ('A' for Active; 'I' for Inactive)
REMARK    1  A    between atoms: C_1  and  C_2
REMARK    2  A    between atoms: C_2  and  N_3
REMARK    3  A    between atoms: N_3  and  C_13
REMARK    4  A    between atoms: C_4  and  C_6
REMARK    5  A    between atoms: C_6  and  N_7
REMARK    6  A    between atoms: C_20  and  O_21
REMARK    7  A    between atoms: C_22  and  C_23
REMARK    8  A    between atoms: N_25  and  C_26
REMARK    9  A    between atoms: C_26  and  C_27
REMARK                            x       y       z     vdW  Elec       q    Type
REMARK                         _______ _______ _______ _____ _____    ______ ____
ROOT
ATOM      1  C   UNL     1      -5.790  13.241  19.838  0.00  0.00    +0.000 A 
ATOM      2  C   UNL     1      -7.040  13.169  19.350  0.00  0.00    +0.000 A 
ATOM      3  C   UNL     1      -7.345  12.456  18.145  0.00  0.00    +0.000 A 
ATOM      4  C   UNL     1      -6.361  11.881  17.449  0.00  0.00    +0.000 A 
ATOM      5  N   UNL     1      -5.045  11.895  17.888  0.00  0.00    +0.000 N 
ATOM      6  C   UNL     1      -4.080  11.329  17.084  0.00  0.00    +0.000 A 
ATOM      7  O   UNL     1      -4.252  10.876  15.948  0.00  0.00    +0.000 OA
ATOM      8  C   UNL     1      -2.708  11.237  17.632  0.00  0.00    +0.000 A 
ATOM      9  C   UNL     1      -2.480  11.790  18.836  0.00  0.00    +0.000 A 
ATOM     10  N   UNL     1      -3.446  12.506  19.519  0.00  0.00    +0.000 NA
ATOM     11  C   UNL     1      -4.672  12.502  19.089  0.00  0.00    +0.000 A 
ENDROOT
BRANCH   9  12
ATOM     12  C   UNL     1      -1.124  11.637  19.534  0.00  0.00    +0.000 C 
ATOM     13  O   UNL     1      -0.424  12.615  19.787  0.00  0.00    +0.000 OA
ATOM     14  N   UNL     1      -0.740  10.359  19.862  0.00  0.00    +0.000 N 
ATOM     15  H   UNL     1      -1.369   9.596  19.635  0.00  0.00    +0.000 HD
BRANCH  14  16
ATOM     16  C   UNL     1       0.492  10.034  20.537  0.00  0.00    +0.000 C 
BRANCH  16  17
ATOM     17  C   UNL     1       1.273   8.999  19.763  0.00  0.00    +0.000 A 
ATOM     18  C   UNL     1       1.699   7.808  20.376  0.00  0.00    +0.000 A 
ATOM     19  C   UNL     1       2.432   6.865  19.651  0.00  0.00    +0.000 A 
ATOM     20  C   UNL     1       2.743   7.111  18.318  0.00  0.00    +0.000 A 
ATOM     21  F   UNL     1       3.444   6.205  17.625  0.00  0.00    +0.000 F 
ATOM     22  C   UNL     1       2.341   8.289  17.697  0.00  0.00    +0.000 A 
ATOM     23  C   UNL     1       1.608   9.234  18.421  0.00  0.00    +0.000 A 
ENDBRANCH  16  17
ENDBRANCH  14  16
ENDBRANCH   9  12
BRANCH   1  24
ATOM     24  N   UNL     1      -5.477  14.007  20.967  0.00  0.00    +0.000 N 
ATOM     25  C   UNL     1      -5.174  13.339  22.161  0.00  0.00    +0.000 C 
ATOM     26  O   UNL     1      -5.520  12.162  22.331  0.00  0.00    +0.000 OA
BRANCH  24  28
ATOM     27  C   UNL     1      -6.752  16.098  21.412  0.00  0.00    +0.000 C 
ATOM     28  C   UNL     1      -5.487  15.474  20.829  0.00  0.00    +0.000 C 
ENDBRANCH  24  28
BRANCH  25  29
ATOM     29  C   UNL     1      -4.376  14.095  23.242  0.00  0.00    +0.000 C 
BRANCH  29  30
ATOM     30  N   UNL     1      -3.320  14.982  22.680  0.00  0.00    +0.000 NA
ATOM     31  C   UNL     1      -2.114  14.188  22.331  0.00  0.00    +0.000 C 
ATOM     32  C   UNL     1      -1.357  13.632  23.553  0.00  0.00    +0.000 C 
ATOM     33  O   UNL     1      -0.995  14.668  24.473  0.00  0.00    +0.000 OA
ATOM     34  C   UNL     1      -2.143  15.431  24.877  0.00  0.00    +0.000 C 
ATOM     35  C   UNL     1      -2.866  16.014  23.652  0.00  0.00    +0.000 C 
ENDBRANCH  29  30
ENDBRANCH  25  29
ENDBRANCH   1  24
BRANCH   8  36
ATOM     36  O   UNL     1      -1.774  10.571  16.849  0.00  0.00    +0.000 OA
ATOM     37  H   UNL     1      -1.370  11.276  16.294  0.00  0.00    +0.000 HD
ENDBRANCH   8  36
TORSDOF 8
ENDMDL
MODEL 4
REMARK VINA RESULT:      -6.8      4.105      6.282
REMARK  Name = 
REMARK  9 active torsions:
REMARK  status: ('A' for Active; 'I' for Inactive)
REMARK    1  A    between atoms: C_1  and  C_2
REMARK    2  A    between atoms: C_2  and  N_3
REMARK    3  A    between atoms: N_3  and  C_13
REMARK    4  A    between atoms: C_4  and  C_6
REMARK    5  A    between atoms: C_6  and  N_7
REMARK    6  A    between atoms: C_20  and  O_21
REMARK    7  A    between atoms: C_22  and  C_23
REMARK    8  A    between atoms: N_25  and  C_26
REMARK    9  A    between atoms: C_26  and  C_27
REMARK                            x       y       z     vdW  Elec       q    Type
REMARK                         _______ _______ _______ _____ _____    ______ ____
ROOT
ATOM      1  C   UNL     1      -0.036  12.844  21.208  0.00  0.00    +0.000 A 
ATOM      2  C   UNL     1      -0.676  13.240  22.321  0.00  0.00    +0.000 A 
ATOM      3  C   UNL     1      -1.168  12.304  23.287  0.00  0.00    +0.000 A 
ATOM      4  C   UNL     1      -1.039  10.993  23.065  0.00  0.00    +0.000 A 
ATOM      5  N   UNL     1      -0.379  10.499  21.949  0.00  0.00    +0.000 N 
ATOM      6  C   UNL     1      -0.339   9.135  21.763  0.00  0.00    +0.000 A 
ATOM      7  O   UNL     1      -0.913   8.287  22.454  0.00  0.00    +0.000 OA
ATOM      8  C   UNL     1       0.481   8.627  20.640  0.00  0.00    +0.000 A 
ATOM      9  C   UNL     1       1.056   9.532  19.830  0.00  0.00    +0.000 A 
ATOM     10  N   UNL     1       0.831  10.891  19.956  0.00  0.00    +0.000 NA
ATOM     11  C   UNL     1       0.196  11.342  20.996  0.00  0.00    +0.000 A 
ENDROOT
BRANCH   9  12
ATOM     12  C   UNL     1       2.019   9.101  18.718  0.00  0.00    +0.000 C 
ATOM     13  O   UNL     1       2.321   9.866  17.804  0.00  0.00    +0.000 OA
ATOM     14  N   UNL     1       2.525   7.827  18.801  0.00  0.00    +0.000 N 
ATOM     15  H   UNL     1       2.244   7.249  19.586  0.00  0.00    +0.000 HD
BRANCH  14  16
ATOM     16  C   UNL     1       3.456   7.264  17.854  0.00  0.00    +0.000 C 
BRANCH  16  17
ATOM     17  C   UNL     1       3.268   5.771  17.737  0.00  0.00    +0.000 A 
ATOM     18  C   UNL     1       4.323   4.940  17.321  0.00  0.00    +0.000 A 
ATOM     19  C   UNL     1       4.131   3.560  17.204  0.00  0.00    +0.000 A 
ATOM     20  C   UNL     1       2.887   3.012  17.498  0.00  0.00    +0.000 A 
ATOM     21  F   UNL     1       2.705   1.690  17.388  0.00  0.00    +0.000 F 
ATOM     22  C   UNL     1       1.828   3.818  17.899  0.00  0.00    +0.000 A 
ATOM     23  C   UNL     1       2.018   5.198  18.017  0.00  0.00    +0.000 A 
ENDBRANCH  16  17
ENDBRANCH  14  16
ENDBRANCH   9  12
BRANCH   1  24
ATOM     24  N   UNL     1       0.370  13.753  20.223  0.00  0.00    +0.000 N 
ATOM     25  C   UNL     1       1.686  14.234  20.264  0.00  0.00    +0.000 C 
ATOM     26  O   UNL     1       2.351  14.166  21.308  0.00  0.00    +0.000 OA
BRANCH  24  28
ATOM     27  C   UNL     1      -0.760  13.098  18.105  0.00  0.00    +0.000 C 
ATOM     28  C   UNL     1      -0.615  14.149  19.202  0.00  0.00    +0.000 C 
ENDBRANCH  24  28
BRANCH  25  29
ATOM     29  C   UNL     1       2.293  14.819  18.974  0.00  0.00    +0.000 C 
BRANCH  29  30
ATOM     30  N   UNL     1       3.061  16.074  19.202  0.00  0.00    +0.000 NA
ATOM     31  C   UNL     1       2.136  17.193  19.511  0.00  0.00    +0.000 C 
ATOM     32  C   UNL     1       1.271  17.637  18.316  0.00  0.00    +0.000 C 
ATOM     33  O   UNL     1       2.069  17.980  17.177  0.00  0.00    +0.000 OA
ATOM     34  C   UNL     1       2.946  16.903  16.812  0.00  0.00    +0.000 C 
ATOM     35  C   UNL     1       3.832  16.496  18.001  0.00  0.00    +0.000 C 
ENDBRANCH  29  30
ENDBRANCH  25  29
ENDBRANCH   1  24
BRANCH   8  36
ATOM     36  O   UNL     1       0.594   7.247  20.533  0.00  0.00    +0.000 OA
ATOM     37  H   UNL     1       0.680   7.081  19.567  0.00  0.00    +0.000 HD
ENDBRANCH   8  36
TORSDOF 8
ENDMDL
MODEL 5
REMARK VINA RESULT:      -6.8      1.813      2.689
REMARK  Name = 
REMARK  9 active torsions:
REMARK  status: ('A' for Active; 'I' for Inactive)
REMARK    1  A    between atoms: C_1  and  C_2
REMARK    2  A    between atoms: C_2  and  N_3
REMARK    3  A    between atoms: N_3  and  C_13
REMARK    4  A    between atoms: C_4  and  C_6
REMARK    5  A    between atoms: C_6  and  N_7
REMARK    6  A    between atoms: C_20  and  O_21
REMARK    7  A    between atoms: C_22  and  C_23
REMARK    8  A    between atoms: N_25  and  C_26
REMARK    9  A    between atoms: C_26  and  C_27
REMARK                            x       y       z     vdW  Elec       q    Type
REMARK                         _______ _______ _______ _____ _____    ______ ____
ROOT
ATOM      1  C   UNL     1      -3.681  13.191  21.126  0.00  0.00    +0.000 A 
ATOM      2  C   UNL     1      -5.006  13.220  21.347  0.00  0.00    +0.000 A 
ATOM      3  C   UNL     1      -5.942  12.647  20.426  0.00  0.00    +0.000 A 
ATOM      4  C   UNL     1      -5.503  12.107  19.286  0.00  0.00    +0.000 A 
ATOM      5  N   UNL     1      -4.152  12.023  18.986  0.00  0.00    +0.000 N 
ATOM      6  C   UNL     1      -3.784  11.504  17.764  0.00  0.00    +0.000 A 
ATOM      7  O   UNL     1      -4.548  11.177  16.850  0.00  0.00    +0.000 OA
ATOM      8  C   UNL     1      -2.337  11.301  17.520  0.00  0.00    +0.000 A 
ATOM      9  C   UNL     1      -1.482  11.717  18.470  0.00  0.00    +0.000 A 
ATOM     10  N   UNL     1      -1.899  12.399  19.599  0.00  0.00    +0.000 NA
ATOM     11  C   UNL     1      -3.169  12.488  19.861  0.00  0.00    +0.000 A 
ENDROOT
BRANCH   9  12
ATOM     12  C   UNL     1       0.021  11.440  18.359  0.00  0.00    +0.000 C 
ATOM     13  O   UNL     1       0.850  12.331  18.532  0.00  0.00    +0.000 OA
ATOM     14  N   UNL     1       0.389  10.149  18.063  0.00  0.00    +0.000 N 
ATOM     15  H   UNL     1      -0.343   9.457  17.942  0.00  0.00    +0.000 HD
BRANCH  14  16
ATOM     16  C   UNL     1       1.756   9.707  17.939  0.00  0.00    +0.000 C 
BRANCH  16  17
ATOM     17  C   UNL     1       1.962   8.392  18.651  0.00  0.00    +0.000 A 
ATOM     18  C   UNL     1       2.499   7.281  17.977  0.00  0.00    +0.000 A 
ATOM     19  C   UNL     1       2.672   6.066  18.645  0.00  0.00    +0.000 A 
ATOM     20  C   UNL     1       2.306   5.957  19.982  0.00  0.00    +0.000 A 
ATOM     21  F   UNL     1       2.473   4.793  20.621  0.00  0.00    +0.000 F 
ATOM     22  C   UNL     1       1.761   7.040  20.663  0.00  0.00    +0.000 A 
ATOM     23  C   UNL     1       1.588   8.257  19.997  0.00  0.00    +0.000 A 
ENDBRANCH  16  17
ENDBRANCH  14  16
ENDBRANCH   9  12
BRANCH   1  24
ATOM     24  N   UNL     1      -2.773  13.824  21.983  0.00  0.00    +0.000 N 
ATOM     25  C   UNL     1      -2.703  15.223  21.960  0.00  0.00    +0.000 C 
ATOM     26  O   UNL     1      -3.134  15.862  20.989  0.00  0.00    +0.000 OA
BRANCH  24  28
ATOM     27  C   UNL     1      -2.784  11.996  23.671  0.00  0.00    +0.000 C 
ATOM     28  C   UNL     1      -1.944  12.977  22.858  0.00  0.00    +0.000 C 
ENDBRANCH  24  28
BRANCH  25  29
ATOM     29  C   UNL     1      -2.105  15.948  23.183  0.00  0.00    +0.000 C 
BRANCH  29  30
ATOM     30  N   UNL     1      -3.057  16.061  24.322  0.00  0.00    +0.000 NA
ATOM     31  C   UNL     1      -3.105  17.461  24.815  0.00  0.00    +0.000 C 
ATOM     32  C   UNL     1      -1.812  17.920  25.516  0.00  0.00    +0.000 C 
ATOM     33  O   UNL     1      -1.450  17.048  26.594  0.00  0.00    +0.000 OA
ATOM     34  C   UNL     1      -1.343  15.687  26.149  0.00  0.00    +0.000 C 
ATOM     35  C   UNL     1      -2.653  15.227  25.487  0.00  0.00    +0.000 C 
ENDBRANCH  29  30
ENDBRANCH  25  29
ENDBRANCH   1  24
BRANCH   8  36
ATOM     36  O   UNL     1      -1.994  10.682  16.326  0.00  0.00    +0.000 OA
ATOM     37  H   UNL     1      -2.854  10.523  15.875  0.00  0.00    +0.000 HD
ENDBRANCH   8  36
TORSDOF 8
ENDMDL
MODEL 6
REMARK VINA RESULT:      -6.8      0.606      1.021
REMARK  Name = 
REMARK  9 active torsions:
REMARK  status: ('A' for Active; 'I' for Inactive)
REMARK    1  A    between atoms: C_1  and  C_2
REMARK    2  A    between atoms: C_2  and  N_3
REMARK    3  A    between atoms: N_3  and  C_13
REMARK    4  A    between atoms: C_4  and  C_6
REMARK    5  A    between atoms: C_6  and  N_7
REMARK    6  A    between atoms: C_20  and  O_21
REMARK    7  A    between atoms: C_22  and  C_23
REMARK    8  A    between atoms: N_25  and  C_26
REMARK    9  A    between atoms: C_26  and  C_27
REMARK                            x       y       z     vdW  Elec       q    Type
REMARK                         _______ _______ _______ _____ _____    ______ ____
ROOT
ATOM      1  C   UNL     1      -5.768  13.343  19.742  0.00  0.00    +0.000 A 
ATOM      2  C   UNL     1      -7.037  13.287  19.306  0.00  0.00    +0.000 A 
ATOM      3  C   UNL     1      -7.409  12.525  18.150  0.00  0.00    +0.000 A 
ATOM      4  C   UNL     1      -6.470  11.886  17.448  0.00  0.00    +0.000 A 
ATOM      5  N   UNL     1      -5.139  11.879  17.837  0.00  0.00    +0.000 N 
ATOM      6  C   UNL     1      -4.223  11.245  17.027  0.00  0.00    +0.000 A 
ATOM      7  O   UNL     1      -4.452  10.742  15.922  0.00  0.00    +0.000 OA
ATOM      8  C   UNL     1      -2.834  11.137  17.528  0.00  0.00    +0.000 A 
ATOM      9  C   UNL     1      -2.544  11.741  18.693  0.00  0.00    +0.000 A 
ATOM     10  N   UNL     1      -3.461  12.520  19.375  0.00  0.00    +0.000 NA
ATOM     11  C   UNL     1      -4.702  12.534  18.990  0.00  0.00    +0.000 A 
ENDROOT
BRANCH   9  12
ATOM     12  C   UNL     1      -1.167  11.580  19.347  0.00  0.00    +0.000 C 
ATOM     13  O   UNL     1      -1.042  11.539  20.569  0.00  0.00    +0.000 OA
ATOM     14  N   UNL     1      -0.091  11.480  18.499  0.00  0.00    +0.000 N 
ATOM     15  H   UNL     1      -0.262  11.510  17.499  0.00  0.00    +0.000 HD
BRANCH  14  16
ATOM     16  C   UNL     1       1.272  11.305  18.939  0.00  0.00    +0.000 C 
BRANCH  16  17
ATOM     17  C   UNL     1       1.639   9.841  18.985  0.00  0.00    +0.000 A 
ATOM     18  C   UNL     1       2.136   9.186  17.845  0.00  0.00    +0.000 A 
ATOM     19  C   UNL     1       2.459   7.827  17.897  0.00  0.00    +0.000 A 
ATOM     20  C   UNL     1       2.283   7.123  19.083  0.00  0.00    +0.000 A 
ATOM     21  F   UNL     1       2.595   5.822  19.132  0.00  0.00    +0.000 F 
ATOM     22  C   UNL     1       1.781   7.751  20.218  0.00  0.00    +0.000 A 
ATOM     23  C   UNL     1       1.457   9.110  20.168  0.00  0.00    +0.000 A 
ENDBRANCH  16  17
ENDBRANCH  14  16
ENDBRANCH   9  12
BRANCH   1  24
ATOM     24  N   UNL     1      -5.389  14.154  20.819  0.00  0.00    +0.000 N 
ATOM     25  C   UNL     1      -5.089  13.539  22.042  0.00  0.00    +0.000 C 
ATOM     26  O   UNL     1      -5.488  12.391  22.286  0.00  0.00    +0.000 OA
BRANCH  24  28
ATOM     27  C   UNL     1      -6.555  16.326  21.161  0.00  0.00    +0.000 C 
ATOM     28  C   UNL     1      -5.330  15.609  20.599  0.00  0.00    +0.000 C 
ENDBRANCH  24  28
BRANCH  25  29
ATOM     29  C   UNL     1      -4.227  14.312  23.060  0.00  0.00    +0.000 C 
BRANCH  29  30
ATOM     30  N   UNL     1      -3.534  13.426  24.035  0.00  0.00    +0.000 NA
ATOM     31  C   UNL     1      -3.182  14.187  25.261  0.00  0.00    +0.000 C 
ATOM     32  C   UNL     1      -2.079  15.242  25.045  0.00  0.00    +0.000 C 
ATOM     33  O   UNL     1      -0.893  14.667  24.484  0.00  0.00    +0.000 OA
ATOM     34  C   UNL     1      -1.181  13.962  23.267  0.00  0.00    +0.000 C 
ATOM     35  C   UNL     1      -2.253  12.885  23.503  0.00  0.00    +0.000 C 
ENDBRANCH  29  30
ENDBRANCH  25  29
ENDBRANCH   1  24
BRANCH   8  36
ATOM     36  O   UNL     1      -1.952  10.404  16.745  0.00  0.00    +0.000 OA
ATOM     37  H   UNL     1      -1.066  10.776  16.959  0.00  0.00    +0.000 HD
ENDBRANCH   8  36
TORSDOF 8
ENDMDL
MODEL 7
REMARK VINA RESULT:      -6.7      5.958     10.135
REMARK  Name = 
REMARK  9 active torsions:
REMARK  status: ('A' for Active; 'I' for Inactive)
REMARK    1  A    between atoms: C_1  and  C_2
REMARK    2  A    between atoms: C_2  and  N_3
REMARK    3  A    between atoms: N_3  and  C_13
REMARK    4  A    between atoms: C_4  and  C_6
REMARK    5  A    between atoms: C_6  and  N_7
REMARK    6  A    between atoms: C_20  and  O_21
REMARK    7  A    between atoms: C_22  and  C_23
REMARK    8  A    between atoms: N_25  and  C_26
REMARK    9  A    between atoms: C_26  and  C_27
REMARK                            x       y       z     vdW  Elec       q    Type
REMARK                         _______ _______ _______ _____ _____    ______ ____
ROOT
ATOM      1  C   UNL     1       2.701   4.569  18.901  0.00  0.00    +0.000 A 
ATOM      2  C   UNL     1       1.790   3.771  18.319  0.00  0.00    +0.000 A 
ATOM      3  C   UNL     1       2.089   3.009  17.143  0.00  0.00    +0.000 A 
ATOM      4  C   UNL     1       3.289   3.123  16.568  0.00  0.00    +0.000 A 
ATOM      5  N   UNL     1       4.292   3.914  17.110  0.00  0.00    +0.000 N 
ATOM      6  C   UNL     1       5.481   4.024  16.425  0.00  0.00    +0.000 A 
ATOM      7  O   UNL     1       5.728   3.551  15.310  0.00  0.00    +0.000 OA
ATOM      8  C   UNL     1       6.580   4.763  17.087  0.00  0.00    +0.000 A 
ATOM      9  C   UNL     1       6.313   5.349  18.267  0.00  0.00    +0.000 A 
ATOM     10  N   UNL     1       5.047   5.360  18.821  0.00  0.00    +0.000 NA
ATOM     11  C   UNL     1       4.110   4.630  18.294  0.00  0.00    +0.000 A 
ENDROOT
BRANCH   9  12
ATOM     12  C   UNL     1       7.419   6.030  19.080  0.00  0.00    +0.000 C 
ATOM     13  O   UNL     1       7.851   5.529  20.117  0.00  0.00    +0.000 OA
ATOM     14  N   UNL     1       7.902   7.219  18.589  0.00  0.00    +0.000 N 
ATOM     15  H   UNL     1       7.511   7.575  17.723  0.00  0.00    +0.000 HD
BRANCH  14  16
ATOM     16  C   UNL     1       8.953   7.985  19.213  0.00  0.00    +0.000 C 
BRANCH  16  17
ATOM     17  C   UNL     1       8.868   9.438  18.816  0.00  0.00    +0.000 A 
ATOM     18  C   UNL     1       8.071   9.846  17.732  0.00  0.00    +0.000 A 
ATOM     19  C   UNL     1       8.012  11.193  17.366  0.00  0.00    +0.000 A 
ATOM     20  C   UNL     1       8.750  12.132  18.079  0.00  0.00    +0.000 A 
ATOM     21  F   UNL     1       8.691  13.423  17.728  0.00  0.00    +0.000 F 
ATOM     22  C   UNL     1       9.554  11.748  19.146  0.00  0.00    +0.000 A 
ATOM     23  C   UNL     1       9.615  10.400  19.513  0.00  0.00    +0.000 A 
ENDBRANCH  16  17
ENDBRANCH  14  16
ENDBRANCH   9  12
BRANCH   1  24
ATOM     24  N   UNL     1       2.384   5.378  19.999  0.00  0.00    +0.000 N 
ATOM     25  C   UNL     1       2.002   6.705  19.760  0.00  0.00    +0.000 C 
ATOM     26  O   UNL     1       2.282   7.259  18.687  0.00  0.00    +0.000 OA
BRANCH  24  28
ATOM     27  C   UNL     1       1.703   3.466  21.439  0.00  0.00    +0.000 C 
ATOM     28  C   UNL     1       2.472   4.781  21.343  0.00  0.00    +0.000 C 
ENDBRANCH  24  28
BRANCH  25  29
ATOM     29  C   UNL     1       1.201   7.445  20.849  0.00  0.00    +0.000 C 
BRANCH  29  30
ATOM     30  N   UNL     1       1.652   8.848  21.059  0.00  0.00    +0.000 NA
ATOM     31  C   UNL     1       1.394   9.268  22.460  0.00  0.00    +0.000 C 
ATOM     32  C   UNL     1      -0.100   9.426  22.799  0.00  0.00    +0.000 C 
ATOM     33  O   UNL     1      -0.758  10.330  21.903  0.00  0.00    +0.000 OA
ATOM     34  C   UNL     1      -0.576   9.932  20.535  0.00  0.00    +0.000 C 
ATOM     35  C   UNL     1       0.919   9.816  20.197  0.00  0.00    +0.000 C 
ENDBRANCH  29  30
ENDBRANCH  25  29
ENDBRANCH   1  24
BRANCH   8  36
ATOM     36  O   UNL     1       7.802   4.773  16.427  0.00  0.00    +0.000 OA
ATOM     37  H   UNL     1       8.395   5.292  17.017  0.00  0.00    +0.000 HD
ENDBRANCH   8  36
TORSDOF 8
ENDMDL
MODEL 8
REMARK VINA RESULT:      -6.6      1.460      1.852
REMARK  Name = 
REMARK  9 active torsions:
REMARK  status: ('A' for Active; 'I' for Inactive)
REMARK    1  A    between atoms: C_1  and  C_2
REMARK    2  A    between atoms: C_2  and  N_3
REMARK    3  A    between atoms: N_3  and  C_13
REMARK    4  A    between atoms: C_4  and  C_6
REMARK    5  A    between atoms: C_6  and  N_7
REMARK    6  A    between atoms: C_20  and  O_21
REMARK    7  A    between atoms: C_22  and  C_23
REMARK    8  A    between atoms: N_25  and  C_26
REMARK    9  A    between atoms: C_26  and  C_27
REMARK                            x       y       z     vdW  Elec       q    Type
REMARK                         _______ _______ _______ _____ _____    ______ ____
ROOT
ATOM      1  C   UNL     1      -4.298  13.208  20.132  0.00  0.00    +0.000 A 
ATOM      2  C   UNL     1      -5.558  13.346  19.685  0.00  0.00    +0.000 A 
ATOM      3  C   UNL     1      -6.034  12.645  18.529  0.00  0.00    +0.000 A 
ATOM      4  C   UNL     1      -5.198  11.867  17.836  0.00  0.00    +0.000 A 
ATOM      5  N   UNL     1      -3.886  11.658  18.236  0.00  0.00    +0.000 N 
ATOM      6  C   UNL     1      -3.073  10.887  17.435  0.00  0.00    +0.000 A 
ATOM      7  O   UNL     1      -3.368  10.421  16.330  0.00  0.00    +0.000 OA
ATOM      8  C   UNL     1      -1.720  10.570  17.947  0.00  0.00    +0.000 A 
ATOM      9  C   UNL     1      -1.350  11.127  19.113  0.00  0.00    +0.000 A 
ATOM     10  N   UNL     1      -2.142  12.040  19.785  0.00  0.00    +0.000 NA
ATOM     11  C   UNL     1      -3.363  12.242  19.391  0.00  0.00    +0.000 A 
ENDROOT
BRANCH   9  12
ATOM     12  C   UNL     1      -0.019  10.760  19.778  0.00  0.00    +0.000 C 
ATOM     13  O   UNL     1       0.828  11.616  20.025  0.00  0.00    +0.000 OA
ATOM     14  N   UNL     1       0.171   9.434  20.085  0.00  0.00    +0.000 N 
ATOM     15  H   UNL     1      -0.571   8.779  19.866  0.00  0.00    +0.000 HD
BRANCH  14  16
ATOM     16  C   UNL     1       1.353   8.915  20.730  0.00  0.00    +0.000 C 
BRANCH  16  17
ATOM     17  C   UNL     1       1.833   7.660  20.043  0.00  0.00    +0.000 A 
ATOM     18  C   UNL     1       1.761   6.412  20.687  0.00  0.00    +0.000 A 
ATOM     19  C   UNL     1       2.222   5.259  20.045  0.00  0.00    +0.000 A 
ATOM     20  C   UNL     1       2.755   5.351  18.764  0.00  0.00    +0.000 A 
ATOM     21  F   UNL     1       3.193   4.245  18.149  0.00  0.00    +0.000 F 
ATOM     22  C   UNL     1       2.845   6.578  18.115  0.00  0.00    +0.000 A 
ATOM     23  C   UNL     1       2.386   7.732  18.755  0.00  0.00    +0.000 A 
ENDBRANCH  16  17
ENDBRANCH  14  16
ENDBRANCH   9  12
BRANCH   1  24
ATOM     24  N   UNL     1      -3.808  13.956  21.209  0.00  0.00    +0.000 N 
ATOM     25  C   UNL     1      -3.781  13.358  22.476  0.00  0.00    +0.000 C 
ATOM     26  O   UNL     1      -4.486  12.369  22.723  0.00  0.00    +0.000 OA
BRANCH  24  28
ATOM     27  C   UNL     1      -1.869  15.384  20.581  0.00  0.00    +0.000 C 
ATOM     28  C   UNL     1      -3.351  15.331  20.943  0.00  0.00    +0.000 C 
ENDBRANCH  24  28
BRANCH  25  29
ATOM     29  C   UNL     1      -2.831  13.940  23.542  0.00  0.00    +0.000 C 
BRANCH  29  30
ATOM     30  N   UNL     1      -3.536  14.401  24.769  0.00  0.00    +0.000 NA
ATOM     31  C   UNL     1      -4.435  15.539  24.449  0.00  0.00    +0.000 C 
ATOM     32  C   UNL     1      -3.691  16.837  24.079  0.00  0.00    +0.000 C 
ATOM     33  O   UNL     1      -2.767  17.232  25.101  0.00  0.00    +0.000 OA
ATOM     34  C   UNL     1      -1.845  16.175  25.407  0.00  0.00    +0.000 C 
ATOM     35  C   UNL     1      -2.598  14.897  25.813  0.00  0.00    +0.000 C 
ENDBRANCH  29  30
ENDBRANCH  25  29
ENDBRANCH   1  24
BRANCH   8  36
ATOM     36  O   UNL     1      -0.955   9.707  17.174  0.00  0.00    +0.000 OA
ATOM     37  H   UNL     1      -1.495   9.558  16.365  0.00  0.00    +0.000 HD
ENDBRANCH   8  36
TORSDOF 8
ENDMDL
MODEL 9
REMARK VINA RESULT:      -6.6      1.179      1.639
REMARK  Name = 
REMARK  9 active torsions:
REMARK  status: ('A' for Active; 'I' for Inactive)
REMARK    1  A    between atoms: C_1  and  C_2
REMARK    2  A    between atoms: C_2  and  N_3
REMARK    3  A    between atoms: N_3  and  C_13
REMARK    4  A    between atoms: C_4  and  C_6
REMARK    5  A    between atoms: C_6  and  N_7
REMARK    6  A    between atoms: C_20  and  O_21
REMARK    7  A    between atoms: C_22  and  C_23
REMARK    8  A    between atoms: N_25  and  C_26
REMARK    9  A    between atoms: C_26  and  C_27
REMARK                            x       y       z     vdW  Elec       q    Type
REMARK                         _______ _______ _______ _____ _____    ______ ____
ROOT
ATOM      1  C   UNL     1      -4.990  13.114  20.131  0.00  0.00    +0.000 A 
ATOM      2  C   UNL     1      -6.318  13.059  19.930  0.00  0.00    +0.000 A 
ATOM      3  C   UNL     1      -6.893  12.295  18.863  0.00  0.00    +0.000 A 
ATOM      4  C   UNL     1      -6.097  11.653  18.005  0.00  0.00    +0.000 A 
ATOM      5  N   UNL     1      -4.717  11.645  18.147  0.00  0.00    +0.000 N 
ATOM      6  C   UNL     1      -3.963  11.007  17.187  0.00  0.00    +0.000 A 
ATOM      7  O   UNL     1      -4.387  10.502  16.143  0.00  0.00    +0.000 OA
ATOM      8  C   UNL     1      -2.506  10.898  17.430  0.00  0.00    +0.000 A 
ATOM      9  C   UNL     1      -2.010  11.504  18.523  0.00  0.00    +0.000 A 
ATOM     10  N   UNL     1      -2.789  12.286  19.356  0.00  0.00    +0.000 NA
ATOM     11  C   UNL     1      -4.078  12.301  19.201  0.00  0.00    +0.000 A 
ENDROOT
BRANCH   9  12
ATOM     12  C   UNL     1      -0.539  11.343  18.918  0.00  0.00    +0.000 C 
ATOM     13  O   UNL     1      -0.102  11.822  19.962  0.00  0.00    +0.000 OA
ATOM     14  N   UNL     1       0.258  10.634  18.051  0.00  0.00    +0.000 N 
ATOM     15  H   UNL     1      -0.166  10.255  17.211  0.00  0.00    +0.000 HD
BRANCH  14  16
ATOM     16  C   UNL     1       1.659  10.369  18.273  0.00  0.00    +0.000 C 
BRANCH  16  17
ATOM     17  C   UNL     1       1.867   8.957  18.764  0.00  0.00    +0.000 A 
ATOM     18  C   UNL     1       2.393   7.967  17.915  0.00  0.00    +0.000 A 
ATOM     19  C   UNL     1       2.568   6.660  18.378  0.00  0.00    +0.000 A 
ATOM     20  C   UNL     1       2.217   6.341  19.685  0.00  0.00    +0.000 A 
ATOM     21  F   UNL     1       2.387   5.089  20.128  0.00  0.00    +0.000 F 
ATOM     22  C   UNL     1       1.684   7.302  20.537  0.00  0.00    +0.000 A 
ATOM     23  C   UNL     1       1.508   8.610  20.075  0.00  0.00    +0.000 A 
ENDBRANCH  16  17
ENDBRANCH  14  16
ENDBRANCH   9  12
BRANCH   1  24
ATOM     24  N   UNL     1      -4.424  13.927  21.120  0.00  0.00    +0.000 N 
ATOM     25  C   UNL     1      -4.245  13.388  22.401  0.00  0.00    +0.000 C 
ATOM     26  O   UNL     1      -4.883  12.388  22.761  0.00  0.00    +0.000 OA
BRANCH  24  28
ATOM     27  C   UNL     1      -5.269  16.172  20.460  0.00  0.00    +0.000 C 
ATOM     28  C   UNL     1      -4.049  15.303  20.751  0.00  0.00    +0.000 C 
ENDBRANCH  24  28
BRANCH  25  29
ATOM     29  C   UNL     1      -3.216  14.051  23.339  0.00  0.00    +0.000 C 
BRANCH  29  30
ATOM     30  N   UNL     1      -3.818  14.580  24.593  0.00  0.00    +0.000 NA
ATOM     31  C   UNL     1      -4.551  15.842  24.319  0.00  0.00    +0.000 C 
ATOM     32  C   UNL     1      -3.638  17.028  23.954  0.00  0.00    +0.000 C 
ATOM     33  O   UNL     1      -2.644  17.264  24.957  0.00  0.00    +0.000 OA
ATOM     34  C   UNL     1      -1.875  16.079  25.218  0.00  0.00    +0.000 C 
ATOM     35  C   UNL     1      -2.793  14.913  25.620  0.00  0.00    +0.000 C 
ENDBRANCH  29  30
ENDBRANCH  25  29
ENDBRANCH   1  24
BRANCH   8  36
ATOM     36  O   UNL     1      -1.780  10.162  16.503  0.00  0.00    +0.000 OA
ATOM     37  H   UNL     1      -2.452   9.601  16.053  0.00  0.00    +0.000 HD
ENDBRANCH   8  36
TORSDOF 8
ENDMDL
