MODEL 1
REMARK VINA RESULT:      -7.5      0.000      0.000
REMARK  Name = 
REMARK  7 active torsions:
REMARK  status: ('A' for Active; 'I' for Inactive)
REMARK    1  A    between atoms: C_1  and  O_2
REMARK    2  A    between atoms: O_2  and  C_3
REMARK    3  A    between atoms: C_8  and  N_9
REMARK    4  A    between atoms: N_9  and  C_10
REMARK    5  A    between atoms: C_11  and  N_12
REMARK    6  A    between atoms: C_16  and  C_17
REMARK    7  A    between atoms: C_19  and  N_20
REMARK                            x       y       z     vdW  Elec       q    Type
REMARK                         _______ _______ _______ _____ _____    ______ ____
ROOT
ATOM      1  C   UNL     1       5.424   4.315  18.117  0.00  0.00    +0.000 A 
ATOM      2  C   UNL     1       4.827   3.662  17.016  0.00  0.00    +0.000 A 
ATOM      3  C   UNL     1       5.334   3.714  15.703  0.00  0.00    +0.000 A 
ATOM      4  C   UNL     1       6.483   4.454  15.437  0.00  0.00    +0.000 A 
ATOM      5  C   UNL     1       6.966   4.672  14.035  0.00  0.00    +0.000 C 
ATOM      6  C   UNL     1       7.138   5.075  16.506  0.00  0.00    +0.000 A 
ATOM      7  C   UNL     1       6.611   5.003  17.817  0.00  0.00    +0.000 A 
ENDROOT
BRANCH   2   8
ATOM      8  N   UNL     1       3.571   2.950  17.190  0.00  0.00    +0.000 N 
ATOM      9  O   UNL     1       3.627   1.857  17.771  0.00  0.00    +0.000 OA
ATOM     10  O   UNL     1       2.537   3.523  16.815  0.00  0.00    +0.000 OA
ENDBRANCH   2   8
BRANCH   7  11
ATOM     11  N   UNL     1       7.298   5.818  18.798  0.00  0.00    +0.000 N 
ATOM     12  O   UNL     1       7.906   6.815  18.380  0.00  0.00    +0.000 OA
ATOM     13  O   UNL     1       7.333   5.390  19.961  0.00  0.00    +0.000 OA
ENDBRANCH   7  11
BRANCH   1  14
ATOM     14  N   UNL     1       4.738   4.345  19.354  0.00  0.00    +0.000 N 
ATOM     15  H   UNL     1       4.782   3.419  19.791  0.00  0.00    +0.000 HD
BRANCH  14  21
ATOM     16  C   UNL     1       2.573   4.485  20.604  0.00  0.00    +0.000 A 
ATOM     17  C   UNL     1       1.448   5.261  20.932  0.00  0.00    +0.000 A 
ATOM     18  C   UNL     1       1.331   6.580  20.493  0.00  0.00    +0.000 A 
ATOM     19  C   UNL     1       2.330   7.141  19.712  0.00  0.00    +0.000 A 
ATOM     20  C   UNL     1       3.439   6.375  19.358  0.00  0.00    +0.000 A 
ATOM     21  C   UNL     1       3.585   5.042  19.795  0.00  0.00    +0.000 A 
BRANCH  16  23
ATOM     22  C   UNL     1       1.585   2.589  21.631  0.00  0.00    +0.000 C 
ATOM     23  O   UNL     1       2.719   3.176  20.995  0.00  0.00    +0.000 OA
ENDBRANCH  16  23
ENDBRANCH  14  21
ENDBRANCH   1  14
TORSDOF 5
ENDMDL
MODEL 2
REMARK VINA RESULT:      -7.0      0.949      3.736
REMARK  Name = 
REMARK  7 active torsions:
REMARK  status: ('A' for Active; 'I' for Inactive)
REMARK    1  A    between atoms: C_1  and  O_2
REMARK    2  A    between atoms: O_2  and  C_3
REMARK    3  A    between atoms: C_8  and  N_9
REMARK    4  A    between atoms: N_9  and  C_10
REMARK    5  A    between atoms: C_11  and  N_12
REMARK    6  A    between atoms: C_16  and  C_17
REMARK    7  A    between atoms: C_19  and  N_20
REMARK                            x       y       z     vdW  Elec       q    Type
REMARK                         _______ _______ _______ _____ _____    ______ ____
ROOT
ATOM      1  C   UNL     1       5.286   4.509  18.015  0.00  0.00    +0.000 A 
ATOM      2  C   UNL     1       6.467   5.230  17.726  0.00  0.00    +0.000 A 
ATOM      3  C   UNL     1       7.018   5.348  16.435  0.00  0.00    +0.000 A 
ATOM      4  C   UNL     1       6.396   4.720  15.360  0.00  0.00    +0.000 A 
ATOM      5  C   UNL     1       7.031   4.681  14.002  0.00  0.00    +0.000 C 
ATOM      6  C   UNL     1       5.197   4.039  15.589  0.00  0.00    +0.000 A 
ATOM      7  C   UNL     1       4.660   3.938  16.895  0.00  0.00    +0.000 A 
ENDROOT
BRANCH   2   8
ATOM      8  N   UNL     1       7.230   5.833  18.807  0.00  0.00    +0.000 N 
ATOM      9  O   UNL     1       7.245   5.223  19.885  0.00  0.00    +0.000 OA
ATOM     10  O   UNL     1       7.867   6.864  18.545  0.00  0.00    +0.000 OA
ENDBRANCH   2   8
BRANCH   7  11
ATOM     11  N   UNL     1       3.503   3.075  17.016  0.00  0.00    +0.000 N 
ATOM     12  O   UNL     1       2.394   3.579  16.786  0.00  0.00    +0.000 OA
ATOM     13  O   UNL     1       3.696   1.934  17.464  0.00  0.00    +0.000 OA
ENDBRANCH   7  11
BRANCH   1  14
ATOM     14  N   UNL     1       4.918   4.305  19.365  0.00  0.00    +0.000 N 
ATOM     15  H   UNL     1       5.666   3.800  19.850  0.00  0.00    +0.000 HD
BRANCH  14  21
ATOM     16  C   UNL     1       2.593   4.968  20.016  0.00  0.00    +0.000 A 
ATOM     17  C   UNL     1       1.423   4.632  20.719  0.00  0.00    +0.000 A 
ATOM     18  C   UNL     1       1.302   3.403  21.368  0.00  0.00    +0.000 A 
ATOM     19  C   UNL     1       2.350   2.496  21.334  0.00  0.00    +0.000 A 
ATOM     20  C   UNL     1       3.526   2.827  20.663  0.00  0.00    +0.000 A 
ATOM     21  C   UNL     1       3.671   4.059  19.993  0.00  0.00    +0.000 A 
BRANCH  16  23
ATOM     22  C   UNL     1       2.081   7.284  19.965  0.00  0.00    +0.000 C 
ATOM     23  O   UNL     1       2.765   6.175  19.383  0.00  0.00    +0.000 OA
ENDBRANCH  16  23
ENDBRANCH  14  21
ENDBRANCH   1  14
TORSDOF 5
ENDMDL
MODEL 3
REMARK VINA RESULT:      -6.9      1.054      2.127
REMARK  Name = 
REMARK  7 active torsions:
REMARK  status: ('A' for Active; 'I' for Inactive)
REMARK    1  A    between atoms: C_1  and  O_2
REMARK    2  A    between atoms: O_2  and  C_3
REMARK    3  A    between atoms: C_8  and  N_9
REMARK    4  A    between atoms: N_9  and  C_10
REMARK    5  A    between atoms: C_11  and  N_12
REMARK    6  A    between atoms: C_16  and  C_17
REMARK    7  A    between atoms: C_19  and  N_20
REMARK                            x       y       z     vdW  Elec       q    Type
REMARK                         _______ _______ _______ _____ _____    ______ ____
ROOT
ATOM      1  C   UNL     1       5.638   4.158  18.297  0.00  0.00    +0.000 A 
ATOM      2  C   UNL     1       5.018   3.589  17.162  0.00  0.00    +0.000 A 
ATOM      3  C   UNL     1       5.446   3.813  15.839  0.00  0.00    +0.000 A 
ATOM      4  C   UNL     1       6.532   4.650  15.598  0.00  0.00    +0.000 A 
ATOM      5  C   UNL     1       6.921   5.048  14.206  0.00  0.00    +0.000 C 
ATOM      6  C   UNL     1       7.209   5.194  16.695  0.00  0.00    +0.000 A 
ATOM      7  C   UNL     1       6.763   4.949  18.015  0.00  0.00    +0.000 A 
ENDROOT
BRANCH   2   8
ATOM      8  N   UNL     1       3.818   2.783  17.319  0.00  0.00    +0.000 N 
ATOM      9  O   UNL     1       2.750   3.298  16.957  0.00  0.00    +0.000 OA
ATOM     10  O   UNL     1       3.963   1.622  17.729  0.00  0.00    +0.000 OA
ENDBRANCH   2   8
BRANCH   7  11
ATOM     11  N   UNL     1       7.456   5.697  19.044  0.00  0.00    +0.000 N 
ATOM     12  O   UNL     1       8.062   6.719  18.690  0.00  0.00    +0.000 OA
ATOM     13  O   UNL     1       7.498   5.192  20.176  0.00  0.00    +0.000 OA
ENDBRANCH   7  11
BRANCH   1  14
ATOM     14  N   UNL     1       5.023   4.010  19.562  0.00  0.00    +0.000 N 
ATOM     15  H   UNL     1       5.541   3.321  20.115  0.00  0.00    +0.000 HD
BRANCH  14  21
ATOM     16  C   UNL     1       2.842   5.199  19.881  0.00  0.00    +0.000 A 
ATOM     17  C   UNL     1       1.531   5.145  20.383  0.00  0.00    +0.000 A 
ATOM     18  C   UNL     1       1.027   3.976  20.955  0.00  0.00    +0.000 A 
ATOM     19  C   UNL     1       1.828   2.847  21.043  0.00  0.00    +0.000 A 
ATOM     20  C   UNL     1       3.140   2.895  20.572  0.00  0.00    +0.000 A 
ATOM     21  C   UNL     1       3.669   4.062  19.983  0.00  0.00    +0.000 A 
BRANCH  16  23
ATOM     22  C   UNL     1       2.845   6.735  18.073  0.00  0.00    +0.000 C 
ATOM     23  O   UNL     1       3.386   6.335  19.331  0.00  0.00    +0.000 OA
ENDBRANCH  16  23
ENDBRANCH  14  21
ENDBRANCH   1  14
TORSDOF 5
ENDMDL
MODEL 4
REMARK VINA RESULT:      -6.7      0.960      1.111
REMARK  Name = 
REMARK  7 active torsions:
REMARK  status: ('A' for Active; 'I' for Inactive)
REMARK    1  A    between atoms: C_1  and  O_2
REMARK    2  A    between atoms: O_2  and  C_3
REMARK    3  A    between atoms: C_8  and  N_9
REMARK    4  A    between atoms: N_9  and  C_10
REMARK    5  A    between atoms: C_11  and  N_12
REMARK    6  A    between atoms: C_16  and  C_17
REMARK    7  A    between atoms: C_19  and  N_20
REMARK                            x       y       z     vdW  Elec       q    Type
REMARK                         _______ _______ _______ _____ _____    ______ ____
ROOT
ATOM      1  C   UNL     1       5.254   4.714  17.580  0.00  0.00    +0.000 A 
ATOM      2  C   UNL     1       4.632   3.745  16.761  0.00  0.00    +0.000 A 
ATOM      3  C   UNL     1       5.049   3.441  15.450  0.00  0.00    +0.000 A 
ATOM      4  C   UNL     1       6.126   4.125  14.894  0.00  0.00    +0.000 A 
ATOM      5  C   UNL     1       6.502   3.953  13.452  0.00  0.00    +0.000 C 
ATOM      6  C   UNL     1       6.806   5.056  15.686  0.00  0.00    +0.000 A 
ATOM      7  C   UNL     1       6.370   5.340  17.002  0.00  0.00    +0.000 A 
ENDROOT
BRANCH   2   8
ATOM      8  N   UNL     1       3.441   3.057  17.231  0.00  0.00    +0.000 N 
ATOM      9  O   UNL     1       3.615   2.121  18.025  0.00  0.00    +0.000 OA
ATOM     10  O   UNL     1       2.345   3.504  16.863  0.00  0.00    +0.000 OA
ENDBRANCH   2   8
BRANCH   7  11
ATOM     11  N   UNL     1       7.063   6.434  17.653  0.00  0.00    +0.000 N 
ATOM     12  O   UNL     1       7.335   7.425  16.959  0.00  0.00    +0.000 OA
ATOM     13  O   UNL     1       7.444   6.245  18.818  0.00  0.00    +0.000 OA
ENDBRANCH   7  11
BRANCH   1  14
ATOM     14  N   UNL     1       4.649   5.066  18.809  0.00  0.00    +0.000 N 
ATOM     15  H   UNL     1       4.624   4.248  19.424  0.00  0.00    +0.000 HD
BRANCH  14  21
ATOM     16  C   UNL     1       2.674   5.760  20.184  0.00  0.00    +0.000 A 
ATOM     17  C   UNL     1       1.644   6.695  20.382  0.00  0.00    +0.000 A 
ATOM     18  C   UNL     1       1.541   7.832  19.580  0.00  0.00    +0.000 A 
ATOM     19  C   UNL     1       2.459   8.048  18.564  0.00  0.00    +0.000 A 
ATOM     20  C   UNL     1       3.471   7.116  18.339  0.00  0.00    +0.000 A 
ATOM     21  C   UNL     1       3.601   5.962  19.141  0.00  0.00    +0.000 A 
BRANCH  16  23
ATOM     22  C   UNL     1       1.682   3.729  20.905  0.00  0.00    +0.000 C 
ATOM     23  O   UNL     1       2.800   4.615  20.934  0.00  0.00    +0.000 OA
ENDBRANCH  16  23
ENDBRANCH  14  21
ENDBRANCH   1  14
TORSDOF 5
ENDMDL
MODEL 5
REMARK VINA RESULT:      -6.7      1.288      3.612
REMARK  Name = 
REMARK  7 active torsions:
REMARK  status: ('A' for Active; 'I' for Inactive)
REMARK    1  A    between atoms: C_1  and  O_2
REMARK    2  A    between atoms: O_2  and  C_3
REMARK    3  A    between atoms: C_8  and  N_9
REMARK    4  A    between atoms: N_9  and  C_10
REMARK    5  A    between atoms: C_11  and  N_12
REMARK    6  A    between atoms: C_16  and  C_17
REMARK    7  A    between atoms: C_19  and  N_20
REMARK                            x       y       z     vdW  Elec       q    Type
REMARK                         _______ _______ _______ _____ _____    ______ ____
ROOT
ATOM      1  C   UNL     1       5.378   4.491  17.802  0.00  0.00    +0.000 A 
ATOM      2  C   UNL     1       6.545   5.126  17.320  0.00  0.00    +0.000 A 
ATOM      3  C   UNL     1       6.938   5.123  15.968  0.00  0.00    +0.000 A 
ATOM      4  C   UNL     1       6.162   4.454  15.026  0.00  0.00    +0.000 A 
ATOM      5  C   UNL     1       6.624   4.285  13.609  0.00  0.00    +0.000 C 
ATOM      6  C   UNL     1       4.970   3.855  15.448  0.00  0.00    +0.000 A 
ATOM      7  C   UNL     1       4.594   3.877  16.812  0.00  0.00    +0.000 A 
ENDROOT
BRANCH   2   8
ATOM      8  N   UNL     1       7.461   5.762  18.253  0.00  0.00    +0.000 N 
ATOM      9  O   UNL     1       7.975   5.033  19.113  0.00  0.00    +0.000 OA
ATOM     10  O   UNL     1       7.715   6.962  18.070  0.00  0.00    +0.000 OA
ENDBRANCH   2   8
BRANCH   7  11
ATOM     11  N   UNL     1       3.424   3.087  17.136  0.00  0.00    +0.000 N 
ATOM     12  O   UNL     1       3.610   1.907  17.469  0.00  0.00    +0.000 OA
ATOM     13  O   UNL     1       2.317   3.611  16.935  0.00  0.00    +0.000 OA
ENDBRANCH   7  11
BRANCH   1  14
ATOM     14  N   UNL     1       5.169   4.404  19.199  0.00  0.00    +0.000 N 
ATOM     15  H   UNL     1       6.043   4.132  19.657  0.00  0.00    +0.000 HD
BRANCH  14  21
ATOM     16  C   UNL     1       3.928   2.736  20.594  0.00  0.00    +0.000 A 
ATOM     17  C   UNL     1       2.751   2.430  21.299  0.00  0.00    +0.000 A 
ATOM     18  C   UNL     1       1.722   3.365  21.423  0.00  0.00    +0.000 A 
ATOM     19  C   UNL     1       1.849   4.616  20.837  0.00  0.00    +0.000 A 
ATOM     20  C   UNL     1       3.000   4.923  20.112  0.00  0.00    +0.000 A 
ATOM     21  C   UNL     1       4.057   3.999  19.979  0.00  0.00    +0.000 A 
BRANCH  16  23
ATOM     22  C   UNL     1       5.268   1.037  21.565  0.00  0.00    +0.000 C 
ATOM     23  O   UNL     1       4.955   1.839  20.427  0.00  0.00    +0.000 OA
ENDBRANCH  16  23
ENDBRANCH  14  21
ENDBRANCH   1  14
TORSDOF 5
ENDMDL
MODEL 6
REMARK VINA RESULT:      -6.7      1.285      1.886
REMARK  Name = 
REMARK  7 active torsions:
REMARK  status: ('A' for Active; 'I' for Inactive)
REMARK    1  A    between atoms: C_1  and  O_2
REMARK    2  A    between atoms: O_2  and  C_3
REMARK    3  A    between atoms: C_8  and  N_9
REMARK    4  A    between atoms: N_9  and  C_10
REMARK    5  A    between atoms: C_11  and  N_12
REMARK    6  A    between atoms: C_16  and  C_17
REMARK    7  A    between atoms: C_19  and  N_20
REMARK                            x       y       z     vdW  Elec       q    Type
REMARK                         _______ _______ _______ _____ _____    ______ ____
ROOT
ATOM      1  C   UNL     1       5.104   4.718  18.191  0.00  0.00    +0.000 A 
ATOM      2  C   UNL     1       4.434   4.172  17.074  0.00  0.00    +0.000 A 
ATOM      3  C   UNL     1       5.014   4.041  15.797  0.00  0.00    +0.000 A 
ATOM      4  C   UNL     1       6.319   4.478  15.585  0.00  0.00    +0.000 A 
ATOM      5  C   UNL     1       6.921   4.510  14.212  0.00  0.00    +0.000 C 
ATOM      6  C   UNL     1       7.040   4.977  16.675  0.00  0.00    +0.000 A 
ATOM      7  C   UNL     1       6.436   5.093  17.949  0.00  0.00    +0.000 A 
ENDROOT
BRANCH   2   8
ATOM      8  N   UNL     1       3.037   3.784  17.186  0.00  0.00    +0.000 N 
ATOM      9  O   UNL     1       2.801   2.570  17.266  0.00  0.00    +0.000 OA
ATOM     10  O   UNL     1       2.200   4.695  17.269  0.00  0.00    +0.000 OA
ENDBRANCH   2   8
BRANCH   7  11
ATOM     11  N   UNL     1       7.239   5.769  18.948  0.00  0.00    +0.000 N 
ATOM     12  O   UNL     1       7.930   6.726  18.566  0.00  0.00    +0.000 OA
ATOM     13  O   UNL     1       7.273   5.264  20.080  0.00  0.00    +0.000 OA
ENDBRANCH   7  11
BRANCH   1  14
ATOM     14  N   UNL     1       4.374   4.966  19.377  0.00  0.00    +0.000 N 
ATOM     15  H   UNL     1       4.930   5.558  20.002  0.00  0.00    +0.000 HD
BRANCH  14  21
ATOM     16  C   UNL     1       3.721   2.865  20.572  0.00  0.00    +0.000 A 
ATOM     17  C   UNL     1       2.717   2.162  21.261  0.00  0.00    +0.000 A 
ATOM     18  C   UNL     1       1.484   2.754  21.536  0.00  0.00    +0.000 A 
ATOM     19  C   UNL     1       1.230   4.052  21.117  0.00  0.00    +0.000 A 
ATOM     20  C   UNL     1       2.207   4.751  20.409  0.00  0.00    +0.000 A 
ATOM     21  C   UNL     1       3.464   4.178  20.127  0.00  0.00    +0.000 A 
BRANCH  16  23
ATOM     22  C   UNL     1       5.293   1.138  20.987  0.00  0.00    +0.000 C 
ATOM     23  O   UNL     1       4.941   2.314  20.260  0.00  0.00    +0.000 OA
ENDBRANCH  16  23
ENDBRANCH  14  21
ENDBRANCH   1  14
TORSDOF 5
ENDMDL
MODEL 7
REMARK VINA RESULT:      -6.7      1.054      2.257
REMARK  Name = 
REMARK  7 active torsions:
REMARK  status: ('A' for Active; 'I' for Inactive)
REMARK    1  A    between atoms: C_1  and  O_2
REMARK    2  A    between atoms: O_2  and  C_3
REMARK    3  A    between atoms: C_8  and  N_9
REMARK    4  A    between atoms: N_9  and  C_10
REMARK    5  A    between atoms: C_11  and  N_12
REMARK    6  A    between atoms: C_16  and  C_17
REMARK    7  A    between atoms: C_19  and  N_20
REMARK                            x       y       z     vdW  Elec       q    Type
REMARK                         _______ _______ _______ _____ _____    ______ ____
ROOT
ATOM      1  C   UNL     1       5.611   4.272  17.915  0.00  0.00    +0.000 A 
ATOM      2  C   UNL     1       4.895   3.617  16.887  0.00  0.00    +0.000 A 
ATOM      3  C   UNL     1       5.275   3.637  15.531  0.00  0.00    +0.000 A 
ATOM      4  C   UNL     1       6.410   4.345  15.143  0.00  0.00    +0.000 A 
ATOM      5  C   UNL     1       6.760   4.529  13.697  0.00  0.00    +0.000 C 
ATOM      6  C   UNL     1       7.179   4.965  16.133  0.00  0.00    +0.000 A 
ATOM      7  C   UNL     1       6.778   4.926  17.490  0.00  0.00    +0.000 A 
ENDROOT
BRANCH   2   8
ATOM      8  N   UNL     1       3.646   2.939  17.193  0.00  0.00    +0.000 N 
ATOM      9  O   UNL     1       2.609   3.461  16.758  0.00  0.00    +0.000 OA
ATOM     10  O   UNL     1       3.719   1.858  17.796  0.00  0.00    +0.000 OA
ENDBRANCH   2   8
BRANCH   7  11
ATOM     11  N   UNL     1       7.576   5.738  18.386  0.00  0.00    +0.000 N 
ATOM     12  O   UNL     1       7.917   5.226  19.463  0.00  0.00    +0.000 OA
ATOM     13  O   UNL     1       7.749   6.925  18.068  0.00  0.00    +0.000 OA
ENDBRANCH   7  11
BRANCH   1  14
ATOM     14  N   UNL     1       5.048   4.337  19.211  0.00  0.00    +0.000 N 
ATOM     15  H   UNL     1       5.371   3.538  19.764  0.00  0.00    +0.000 HD
BRANCH  14  21
ATOM     16  C   UNL     1       3.196   6.018  19.333  0.00  0.00    +0.000 A 
ATOM     17  C   UNL     1       1.971   6.384  19.918  0.00  0.00    +0.000 A 
ATOM     18  C   UNL     1       1.325   5.540  20.822  0.00  0.00    +0.000 A 
ATOM     19  C   UNL     1       1.896   4.324  21.164  0.00  0.00    +0.000 A 
ATOM     20  C   UNL     1       3.123   3.960  20.612  0.00  0.00    +0.000 A 
ATOM     21  C   UNL     1       3.793   4.791  19.690  0.00  0.00    +0.000 A 
BRANCH  16  23
ATOM     22  C   UNL     1       3.095   7.813  17.786  0.00  0.00    +0.000 C 
ATOM     23  O   UNL     1       3.878   6.827  18.457  0.00  0.00    +0.000 OA
ENDBRANCH  16  23
ENDBRANCH  14  21
ENDBRANCH   1  14
TORSDOF 5
ENDMDL
MODEL 8
REMARK VINA RESULT:      -6.7      0.833      3.277
REMARK  Name = 
REMARK  7 active torsions:
REMARK  status: ('A' for Active; 'I' for Inactive)
REMARK    1  A    between atoms: C_1  and  O_2
REMARK    2  A    between atoms: O_2  and  C_3
REMARK    3  A    between atoms: C_8  and  N_9
REMARK    4  A    between atoms: N_9  and  C_10
REMARK    5  A    between atoms: C_11  and  N_12
REMARK    6  A    between atoms: C_16  and  C_17
REMARK    7  A    between atoms: C_19  and  N_20
REMARK                            x       y       z     vdW  Elec       q    Type
REMARK                         _______ _______ _______ _____ _____    ______ ____
ROOT
ATOM      1  C   UNL     1       5.099   4.923  17.426  0.00  0.00    +0.000 A 
ATOM      2  C   UNL     1       6.196   5.592  16.838  0.00  0.00    +0.000 A 
ATOM      3  C   UNL     1       6.673   5.327  15.540  0.00  0.00    +0.000 A 
ATOM      4  C   UNL     1       6.059   4.344  14.768  0.00  0.00    +0.000 A 
ATOM      5  C   UNL     1       6.630   3.914  13.450  0.00  0.00    +0.000 C 
ATOM      6  C   UNL     1       4.937   3.692  15.289  0.00  0.00    +0.000 A 
ATOM      7  C   UNL     1       4.474   3.981  16.594  0.00  0.00    +0.000 A 
ENDROOT
BRANCH   2   8
ATOM      8  N   UNL     1       6.953   6.562  17.613  0.00  0.00    +0.000 N 
ATOM      9  O   UNL     1       6.941   7.732  17.204  0.00  0.00    +0.000 OA
ATOM     10  O   UNL     1       7.485   6.162  18.659  0.00  0.00    +0.000 OA
ENDBRANCH   2   8
BRANCH   7  11
ATOM     11  N   UNL     1       3.404   3.125  17.067  0.00  0.00    +0.000 N 
ATOM     12  O   UNL     1       2.242   3.509  16.869  0.00  0.00    +0.000 OA
ATOM     13  O   UNL     1       3.730   2.139  17.746  0.00  0.00    +0.000 OA
ENDBRANCH   7  11
BRANCH   1  14
ATOM     14  N   UNL     1       4.814   5.141  18.795  0.00  0.00    +0.000 N 
ATOM     15  H   UNL     1       5.319   4.453  19.361  0.00  0.00    +0.000 HD
BRANCH  14  21
ATOM     16  C   UNL     1       2.870   4.771  20.329  0.00  0.00    +0.000 A 
ATOM     17  C   UNL     1       1.703   5.302  20.905  0.00  0.00    +0.000 A 
ATOM     18  C   UNL     1       1.320   6.622  20.666  0.00  0.00    +0.000 A 
ATOM     19  C   UNL     1       2.090   7.428  19.842  0.00  0.00    +0.000 A 
ATOM     20  C   UNL     1       3.236   6.906  19.243  0.00  0.00    +0.000 A 
ATOM     21  C   UNL     1       3.649   5.578  19.475  0.00  0.00    +0.000 A 
BRANCH  16  23
ATOM     22  C   UNL     1       2.481   2.701  21.423  0.00  0.00    +0.000 C 
ATOM     23  O   UNL     1       3.273   3.470  20.518  0.00  0.00    +0.000 OA
ENDBRANCH  16  23
ENDBRANCH  14  21
ENDBRANCH   1  14
TORSDOF 5
ENDMDL
MODEL 9
REMARK VINA RESULT:      -6.4      1.350      3.854
REMARK  Name = 
REMARK  7 active torsions:
REMARK  status: ('A' for Active; 'I' for Inactive)
REMARK    1  A    between atoms: C_1  and  O_2
REMARK    2  A    between atoms: O_2  and  C_3
REMARK    3  A    between atoms: C_8  and  N_9
REMARK    4  A    between atoms: N_9  and  C_10
REMARK    5  A    between atoms: C_11  and  N_12
REMARK    6  A    between atoms: C_16  and  C_17
REMARK    7  A    between atoms: C_19  and  N_20
REMARK                            x       y       z     vdW  Elec       q    Type
REMARK                         _______ _______ _______ _____ _____    ______ ____
ROOT
ATOM      1  C   UNL     1       5.238   4.977  17.309  0.00  0.00    +0.000 A 
ATOM      2  C   UNL     1       6.333   5.642  16.714  0.00  0.00    +0.000 A 
ATOM      3  C   UNL     1       6.806   5.368  15.416  0.00  0.00    +0.000 A 
ATOM      4  C   UNL     1       6.191   4.380  14.652  0.00  0.00    +0.000 A 
ATOM      5  C   UNL     1       6.758   3.942  13.335  0.00  0.00    +0.000 C 
ATOM      6  C   UNL     1       5.069   3.732  15.180  0.00  0.00    +0.000 A 
ATOM      7  C   UNL     1       4.610   4.030  16.485  0.00  0.00    +0.000 A 
ENDROOT
BRANCH   2   8
ATOM      8  N   UNL     1       7.093   6.617  17.480  0.00  0.00    +0.000 N 
ATOM      9  O   UNL     1       7.679   6.197  18.488  0.00  0.00    +0.000 OA
ATOM     10  O   UNL     1       7.158   7.769  17.028  0.00  0.00    +0.000 OA
ENDBRANCH   2   8
BRANCH   7  11
ATOM     11  N   UNL     1       3.542   3.177  16.966  0.00  0.00    +0.000 N 
ATOM     12  O   UNL     1       2.380   3.516  16.692  0.00  0.00    +0.000 OA
ATOM     13  O   UNL     1       3.860   2.247  17.722  0.00  0.00    +0.000 OA
ENDBRANCH   7  11
BRANCH   1  14
ATOM     14  N   UNL     1       4.957   5.203  18.677  0.00  0.00    +0.000 N 
ATOM     15  H   UNL     1       5.592   4.643  19.252  0.00  0.00    +0.000 HD
BRANCH  14  21
ATOM     16  C   UNL     1       2.949   6.604  19.204  0.00  0.00    +0.000 A 
ATOM     17  C   UNL     1       1.803   6.771  20.000  0.00  0.00    +0.000 A 
ATOM     18  C   UNL     1       1.432   5.808  20.939  0.00  0.00    +0.000 A 
ATOM     19  C   UNL     1       2.206   4.669  21.105  0.00  0.00    +0.000 A 
ATOM     20  C   UNL     1       3.360   4.503  20.341  0.00  0.00    +0.000 A 
ATOM     21  C   UNL     1       3.752   5.458  19.380  0.00  0.00    +0.000 A 
BRANCH  16  23
ATOM     22  C   UNL     1       2.387   8.500  17.894  0.00  0.00    +0.000 C 
ATOM     23  O   UNL     1       3.364   7.537  18.284  0.00  0.00    +0.000 OA
ENDBRANCH  16  23
ENDBRANCH  14  21
ENDBRANCH   1  14
TORSDOF 5
ENDMDL
