MODEL 1
REMARK VINA RESULT:      -6.6      0.000      0.000
REMARK  Name = 
REMARK  9 active torsions:
REMARK  status: ('A' for Active; 'I' for Inactive)
REMARK    1  A    between atoms: C_1  and  C_2
REMARK    2  A    between atoms: C_2  and  O_3
REMARK    3  A    between atoms: O_3  and  C_4
REMARK    4  A    between atoms: C_4  and  C_5
REMARK    5  A    between atoms: C_4  and  C_6
REMARK    6  A    between atoms: N_8  and  C_9
REMARK    7  A    between atoms: C_9  and  C_10
REMARK    8  A    between atoms: C_12  and  C_13
REMARK    9  A    between atoms: C_13  and  C_14
REMARK                            x       y       z     vdW  Elec       q    Type
REMARK                         _______ _______ _______ _____ _____    ______ ____
ROOT
ATOM      1  C   UNL     1       4.541   3.232  18.769  0.00  0.00    +0.000 C 
ATOM      2  O   UNL     1       5.162   3.540  19.783  0.00  0.00    +0.000 OA
ATOM      3  N   UNL     1       4.805   3.801  17.541  0.00  0.00    +0.000 N 
ATOM      4  H   UNL     1       4.441   3.295  16.737  0.00  0.00    +0.000 HD
ENDROOT
BRANCH   1   5
ATOM      5  C   UNL     1       3.341   2.258  18.774  0.00  0.00    +0.000 C 
ATOM      6  C   UNL     1       2.514   2.481  17.508  0.00  0.00    +0.000 C 
BRANCH   5   7
ATOM      7  O   UNL     1       2.563   2.439  19.965  0.00  0.00    +0.000 OA
BRANCH   7   9
ATOM      8  C   UNL     1       1.171   4.298  20.544  0.00  0.00    +0.000 C 
ATOM      9  C   UNL     1       1.284   3.027  19.728  0.00  0.00    +0.000 C 
ENDBRANCH   7   9
ENDBRANCH   5   7
ENDBRANCH   1   5
BRANCH   3  10
ATOM     10  C   UNL     1       5.966   4.641  17.367  0.00  0.00    +0.000 C 
BRANCH  10  11
ATOM     11  C   UNL     1       6.383   4.614  15.952  0.00  0.00    +0.000 A 
ATOM     12  C   UNL     1       6.025   3.846  14.870  0.00  0.00    +0.000 A 
ATOM     13  C   UNL     1       6.769   4.388  13.797  0.00  0.00    +0.000 A 
ATOM     14  N   UNL     1       7.543   5.401  14.206  0.00  0.00    +0.000 NA
ATOM     15  O   UNL     1       7.295   5.543  15.561  0.00  0.00    +0.000 OA
BRANCH  13  16
ATOM     16  C   UNL     1       6.751   3.973  12.369  0.00  0.00    +0.000 C 
ATOM     17  C   UNL     1       5.502   3.186  12.004  0.00  0.00    +0.000 C 
ENDBRANCH  13  16
ENDBRANCH  10  11
ENDBRANCH   3  10
TORSDOF 6
ENDMDL
MODEL 2
REMARK VINA RESULT:      -6.5      1.281      1.315
REMARK  Name = 
REMARK  9 active torsions:
REMARK  status: ('A' for Active; 'I' for Inactive)
REMARK    1  A    between atoms: C_1  and  C_2
REMARK    2  A    between atoms: C_2  and  O_3
REMARK    3  A    between atoms: O_3  and  C_4
REMARK    4  A    between atoms: C_4  and  C_5
REMARK    5  A    between atoms: C_4  and  C_6
REMARK    6  A    between atoms: N_8  and  C_9
REMARK    7  A    between atoms: C_9  and  C_10
REMARK    8  A    between atoms: C_12  and  C_13
REMARK    9  A    between atoms: C_13  and  C_14
REMARK                            x       y       z     vdW  Elec       q    Type
REMARK                         _______ _______ _______ _____ _____    ______ ____
ROOT
ATOM      1  C   UNL     1       4.182   4.747  18.276  0.00  0.00    +0.000 C 
ATOM      2  O   UNL     1       4.144   5.970  18.166  0.00  0.00    +0.000 OA
ATOM      3  N   UNL     1       5.273   4.004  17.878  0.00  0.00    +0.000 N 
ATOM      4  H   UNL     1       5.322   3.061  18.255  0.00  0.00    +0.000 HD
ENDROOT
BRANCH   1   5
ATOM      5  C   UNL     1       2.987   3.903  18.775  0.00  0.00    +0.000 C 
ATOM      6  C   UNL     1       1.828   4.049  17.790  0.00  0.00    +0.000 C 
BRANCH   5   7
ATOM      7  O   UNL     1       2.619   4.306  20.102  0.00  0.00    +0.000 OA
BRANCH   7   9
ATOM      8  C   UNL     1       1.387   2.745  21.436  0.00  0.00    +0.000 C 
ATOM      9  C   UNL     1       1.298   3.912  20.474  0.00  0.00    +0.000 C 
ENDBRANCH   7   9
ENDBRANCH   5   7
ENDBRANCH   1   5
BRANCH   3  10
ATOM     10  C   UNL     1       6.499   4.665  17.497  0.00  0.00    +0.000 C 
BRANCH  10  11
ATOM     11  C   UNL     1       6.673   4.570  16.035  0.00  0.00    +0.000 A 
ATOM     12  C   UNL     1       6.152   3.746  15.067  0.00  0.00    +0.000 A 
ATOM     13  C   UNL     1       6.697   4.239  13.859  0.00  0.00    +0.000 A 
ATOM     14  N   UNL     1       7.512   5.277  14.083  0.00  0.00    +0.000 NA
ATOM     15  O   UNL     1       7.493   5.485  15.452  0.00  0.00    +0.000 OA
BRANCH  13  16
ATOM     16  C   UNL     1       6.447   3.752  12.476  0.00  0.00    +0.000 C 
ATOM     17  C   UNL     1       4.978   3.464  12.213  0.00  0.00    +0.000 C 
ENDBRANCH  13  16
ENDBRANCH  10  11
ENDBRANCH   3  10
TORSDOF 6
ENDMDL
MODEL 3
REMARK VINA RESULT:      -6.4      1.016      1.169
REMARK  Name = 
REMARK  9 active torsions:
REMARK  status: ('A' for Active; 'I' for Inactive)
REMARK    1  A    between atoms: C_1  and  C_2
REMARK    2  A    between atoms: C_2  and  O_3
REMARK    3  A    between atoms: O_3  and  C_4
REMARK    4  A    between atoms: C_4  and  C_5
REMARK    5  A    between atoms: C_4  and  C_6
REMARK    6  A    between atoms: N_8  and  C_9
REMARK    7  A    between atoms: C_9  and  C_10
REMARK    8  A    between atoms: C_12  and  C_13
REMARK    9  A    between atoms: C_13  and  C_14
REMARK                            x       y       z     vdW  Elec       q    Type
REMARK                         _______ _______ _______ _____ _____    ______ ____
ROOT
ATOM      1  C   UNL     1       5.263   4.363  18.891  0.00  0.00    +0.000 C 
ATOM      2  O   UNL     1       6.044   4.856  19.702  0.00  0.00    +0.000 OA
ATOM      3  N   UNL     1       5.382   4.569  17.533  0.00  0.00    +0.000 N 
ATOM      4  H   UNL     1       4.874   3.914  16.945  0.00  0.00    +0.000 HD
ENDROOT
BRANCH   1   5
ATOM      5  C   UNL     1       4.016   3.548  19.303  0.00  0.00    +0.000 C 
ATOM      6  C   UNL     1       3.664   2.575  18.178  0.00  0.00    +0.000 C 
BRANCH   5   7
ATOM      7  O   UNL     1       2.930   4.431  19.612  0.00  0.00    +0.000 OA
BRANCH   7   9
ATOM      8  C   UNL     1       1.159   3.299  20.760  0.00  0.00    +0.000 C 
ATOM      9  C   UNL     1       2.362   4.209  20.903  0.00  0.00    +0.000 C 
ENDBRANCH   7   9
ENDBRANCH   5   7
ENDBRANCH   1   5
BRANCH   3  10
ATOM     10  C   UNL     1       6.557   5.216  16.999  0.00  0.00    +0.000 C 
BRANCH  10  11
ATOM     11  C   UNL     1       6.703   4.869  15.573  0.00  0.00    +0.000 A 
ATOM     12  C   UNL     1       6.118   3.929  14.759  0.00  0.00    +0.000 A 
ATOM     13  C   UNL     1       6.672   4.180  13.482  0.00  0.00    +0.000 A 
ATOM     14  N   UNL     1       7.550   5.191  13.525  0.00  0.00    +0.000 NA
ATOM     15  O   UNL     1       7.565   5.624  14.840  0.00  0.00    +0.000 OA
BRANCH  13  16
ATOM     16  C   UNL     1       6.372   3.486  12.202  0.00  0.00    +0.000 C 
ATOM     17  C   UNL     1       4.882   3.286  11.980  0.00  0.00    +0.000 C 
ENDBRANCH  13  16
ENDBRANCH  10  11
ENDBRANCH   3  10
TORSDOF 6
ENDMDL
MODEL 4
REMARK VINA RESULT:      -6.3      1.188      1.519
REMARK  Name = 
REMARK  9 active torsions:
REMARK  status: ('A' for Active; 'I' for Inactive)
REMARK    1  A    between atoms: C_1  and  C_2
REMARK    2  A    between atoms: C_2  and  O_3
REMARK    3  A    between atoms: O_3  and  C_4
REMARK    4  A    between atoms: C_4  and  C_5
REMARK    5  A    between atoms: C_4  and  C_6
REMARK    6  A    between atoms: N_8  and  C_9
REMARK    7  A    between atoms: C_9  and  C_10
REMARK    8  A    between atoms: C_12  and  C_13
REMARK    9  A    between atoms: C_13  and  C_14
REMARK                            x       y       z     vdW  Elec       q    Type
REMARK                         _______ _______ _______ _____ _____    ______ ____
ROOT
ATOM      1  C   UNL     1       4.999   4.221  18.656  0.00  0.00    +0.000 C 
ATOM      2  O   UNL     1       6.092   4.324  19.207  0.00  0.00    +0.000 OA
ATOM      3  N   UNL     1       4.582   5.097  17.676  0.00  0.00    +0.000 N 
ATOM      4  H   UNL     1       3.807   4.775  17.102  0.00  0.00    +0.000 HD
ENDROOT
BRANCH   1   5
ATOM      5  C   UNL     1       3.940   3.173  19.063  0.00  0.00    +0.000 C 
ATOM      6  C   UNL     1       4.524   2.270  20.149  0.00  0.00    +0.000 C 
BRANCH   5   7
ATOM      7  O   UNL     1       3.516   2.427  17.914  0.00  0.00    +0.000 OA
BRANCH   7   9
ATOM      8  C   UNL     1       1.401   3.430  18.415  0.00  0.00    +0.000 C 
ATOM      9  C   UNL     1       2.106   2.209  17.861  0.00  0.00    +0.000 C 
ENDBRANCH   7   9
ENDBRANCH   5   7
ENDBRANCH   1   5
BRANCH   3  10
ATOM     10  C   UNL     1       5.508   6.055  17.120  0.00  0.00    +0.000 C 
BRANCH  10  11
ATOM     11  C   UNL     1       6.092   5.510  15.879  0.00  0.00    +0.000 A 
ATOM     12  C   UNL     1       5.609   4.704  14.876  0.00  0.00    +0.000 A 
ATOM     13  C   UNL     1       6.678   4.615  13.955  0.00  0.00    +0.000 A 
ATOM     14  N   UNL     1       7.745   5.303  14.383  0.00  0.00    +0.000 NA
ATOM     15  O   UNL     1       7.372   5.867  15.591  0.00  0.00    +0.000 OA
BRANCH  13  16
ATOM     16  C   UNL     1       6.708   3.898  12.653  0.00  0.00    +0.000 C 
ATOM     17  C   UNL     1       5.352   3.328  12.268  0.00  0.00    +0.000 C 
ENDBRANCH  13  16
ENDBRANCH  10  11
ENDBRANCH   3  10
TORSDOF 6
ENDMDL
MODEL 5
REMARK VINA RESULT:      -6.3      1.314      1.525
REMARK  Name = 
REMARK  9 active torsions:
REMARK  status: ('A' for Active; 'I' for Inactive)
REMARK    1  A    between atoms: C_1  and  C_2
REMARK    2  A    between atoms: C_2  and  O_3
REMARK    3  A    between atoms: O_3  and  C_4
REMARK    4  A    between atoms: C_4  and  C_5
REMARK    5  A    between atoms: C_4  and  C_6
REMARK    6  A    between atoms: N_8  and  C_9
REMARK    7  A    between atoms: C_9  and  C_10
REMARK    8  A    between atoms: C_12  and  C_13
REMARK    9  A    between atoms: C_13  and  C_14
REMARK                            x       y       z     vdW  Elec       q    Type
REMARK                         _______ _______ _______ _____ _____    ______ ____
ROOT
ATOM      1  C   UNL     1       5.064   4.631  18.906  0.00  0.00    +0.000 C 
ATOM      2  O   UNL     1       5.894   4.608  19.811  0.00  0.00    +0.000 OA
ATOM      3  N   UNL     1       5.408   4.889  17.595  0.00  0.00    +0.000 N 
ATOM      4  H   UNL     1       4.717   4.618  16.900  0.00  0.00    +0.000 HD
ENDROOT
BRANCH   1   5
ATOM      5  C   UNL     1       3.545   4.476  19.145  0.00  0.00    +0.000 C 
ATOM      6  C   UNL     1       2.936   5.855  19.395  0.00  0.00    +0.000 C 
BRANCH   5   7
ATOM      7  O   UNL     1       3.307   3.576  20.236  0.00  0.00    +0.000 OA
BRANCH   7   9
ATOM      8  C   UNL     1       1.533   2.739  21.609  0.00  0.00    +0.000 C 
ATOM      9  C   UNL     1       2.229   3.977  21.083  0.00  0.00    +0.000 C 
ENDBRANCH   7   9
ENDBRANCH   5   7
ENDBRANCH   1   5
BRANCH   3  10
ATOM     10  C   UNL     1       6.798   4.944  17.210  0.00  0.00    +0.000 C 
BRANCH  10  11
ATOM     11  C   UNL     1       6.909   4.771  15.749  0.00  0.00    +0.000 A 
ATOM     12  C   UNL     1       6.314   3.925  14.843  0.00  0.00    +0.000 A 
ATOM     13  C   UNL     1       6.830   4.335  13.592  0.00  0.00    +0.000 A 
ATOM     14  N   UNL     1       7.696   5.347  13.733  0.00  0.00    +0.000 NA
ATOM     15  O   UNL     1       7.741   5.621  15.089  0.00  0.00    +0.000 OA
BRANCH  13  16
ATOM     16  C   UNL     1       6.504   3.793  12.246  0.00  0.00    +0.000 C 
ATOM     17  C   UNL     1       5.095   3.228  12.168  0.00  0.00    +0.000 C 
ENDBRANCH  13  16
ENDBRANCH  10  11
ENDBRANCH   3  10
TORSDOF 6
ENDMDL
MODEL 6
REMARK VINA RESULT:      -6.3      1.400      1.597
REMARK  Name = 
REMARK  9 active torsions:
REMARK  status: ('A' for Active; 'I' for Inactive)
REMARK    1  A    between atoms: C_1  and  C_2
REMARK    2  A    between atoms: C_2  and  O_3
REMARK    3  A    between atoms: O_3  and  C_4
REMARK    4  A    between atoms: C_4  and  C_5
REMARK    5  A    between atoms: C_4  and  C_6
REMARK    6  A    between atoms: N_8  and  C_9
REMARK    7  A    between atoms: C_9  and  C_10
REMARK    8  A    between atoms: C_12  and  C_13
REMARK    9  A    between atoms: C_13  and  C_14
REMARK                            x       y       z     vdW  Elec       q    Type
REMARK                         _______ _______ _______ _____ _____    ______ ____
ROOT
ATOM      1  C   UNL     1       4.464   4.516  18.868  0.00  0.00    +0.000 C 
ATOM      2  O   UNL     1       5.205   3.667  19.356  0.00  0.00    +0.000 OA
ATOM      3  N   UNL     1       4.948   5.616  18.192  0.00  0.00    +0.000 N 
ATOM      4  H   UNL     1       4.275   6.098  17.601  0.00  0.00    +0.000 HD
ENDROOT
BRANCH   1   5
ATOM      5  C   UNL     1       2.928   4.500  19.039  0.00  0.00    +0.000 C 
ATOM      6  C   UNL     1       2.343   5.760  18.400  0.00  0.00    +0.000 C 
BRANCH   5   7
ATOM      7  O   UNL     1       2.588   4.392  20.428  0.00  0.00    +0.000 OA
BRANCH   7   9
ATOM      8  C   UNL     1       1.636   2.632  21.742  0.00  0.00    +0.000 C 
ATOM      9  C   UNL     1       1.381   3.668  20.666  0.00  0.00    +0.000 C 
ENDBRANCH   7   9
ENDBRANCH   5   7
ENDBRANCH   1   5
BRANCH   3  10
ATOM     10  C   UNL     1       6.351   5.703  17.861  0.00  0.00    +0.000 C 
BRANCH  10  11
ATOM     11  C   UNL     1       6.553   5.273  16.465  0.00  0.00    +0.000 A 
ATOM     12  C   UNL     1       5.932   4.354  15.653  0.00  0.00    +0.000 A 
ATOM     13  C   UNL     1       6.590   4.486  14.409  0.00  0.00    +0.000 A 
ATOM     14  N   UNL     1       7.560   5.407  14.469  0.00  0.00    +0.000 NA
ATOM     15  O   UNL     1       7.532   5.902  15.761  0.00  0.00    +0.000 OA
BRANCH  13  16
ATOM     16  C   UNL     1       6.306   3.761  13.142  0.00  0.00    +0.000 C 
ATOM     17  C   UNL     1       7.199   4.212  11.997  0.00  0.00    +0.000 C 
ENDBRANCH  13  16
ENDBRANCH  10  11
ENDBRANCH   3  10
TORSDOF 6
ENDMDL
MODEL 7
REMARK VINA RESULT:      -6.2      1.500      1.694
REMARK  Name = 
REMARK  9 active torsions:
REMARK  status: ('A' for Active; 'I' for Inactive)
REMARK    1  A    between atoms: C_1  and  C_2
REMARK    2  A    between atoms: C_2  and  O_3
REMARK    3  A    between atoms: O_3  and  C_4
REMARK    4  A    between atoms: C_4  and  C_5
REMARK    5  A    between atoms: C_4  and  C_6
REMARK    6  A    between atoms: N_8  and  C_9
REMARK    7  A    between atoms: C_9  and  C_10
REMARK    8  A    between atoms: C_12  and  C_13
REMARK    9  A    between atoms: C_13  and  C_14
REMARK                            x       y       z     vdW  Elec       q    Type
REMARK                         _______ _______ _______ _____ _____    ______ ____
ROOT
ATOM      1  C   UNL     1       3.912   4.411  17.948  0.00  0.00    +0.000 C 
ATOM      2  O   UNL     1       4.132   3.221  18.159  0.00  0.00    +0.000 OA
ATOM      3  N   UNL     1       4.924   5.318  17.712  0.00  0.00    +0.000 N 
ATOM      4  H   UNL     1       4.635   6.194  17.284  0.00  0.00    +0.000 HD
ENDROOT
BRANCH   1   5
ATOM      5  C   UNL     1       2.501   5.038  18.021  0.00  0.00    +0.000 C 
ATOM      6  C   UNL     1       2.635   6.533  18.309  0.00  0.00    +0.000 C 
BRANCH   5   7
ATOM      7  O   UNL     1       1.714   4.366  19.014  0.00  0.00    +0.000 OA
BRANCH   7   9
ATOM      8  C   UNL     1       1.610   3.583  21.274  0.00  0.00    +0.000 C 
ATOM      9  C   UNL     1       2.089   4.687  20.354  0.00  0.00    +0.000 C 
ENDBRANCH   7   9
ENDBRANCH   5   7
ENDBRANCH   1   5
BRANCH   3  10
ATOM     10  C   UNL     1       6.276   4.856  17.506  0.00  0.00    +0.000 C 
BRANCH  10  11
ATOM     11  C   UNL     1       6.525   4.696  16.061  0.00  0.00    +0.000 A 
ATOM     12  C   UNL     1       6.095   3.795  15.116  0.00  0.00    +0.000 A 
ATOM     13  C   UNL     1       6.670   4.254  13.909  0.00  0.00    +0.000 A 
ATOM     14  N   UNL     1       7.417   5.347  14.113  0.00  0.00    +0.000 NA
ATOM     15  O   UNL     1       7.321   5.624  15.466  0.00  0.00    +0.000 OA
BRANCH  13  16
ATOM     16  C   UNL     1       6.513   3.683  12.545  0.00  0.00    +0.000 C 
ATOM     17  C   UNL     1       5.056   3.536  12.136  0.00  0.00    +0.000 C 
ENDBRANCH  13  16
ENDBRANCH  10  11
ENDBRANCH   3  10
TORSDOF 6
ENDMDL
MODEL 8
REMARK VINA RESULT:      -6.1      2.577      3.726
REMARK  Name = 
REMARK  9 active torsions:
REMARK  status: ('A' for Active; 'I' for Inactive)
REMARK    1  A    between atoms: C_1  and  C_2
REMARK    2  A    between atoms: C_2  and  O_3
REMARK    3  A    between atoms: O_3  and  C_4
REMARK    4  A    between atoms: C_4  and  C_5
REMARK    5  A    between atoms: C_4  and  C_6
REMARK    6  A    between atoms: N_8  and  C_9
REMARK    7  A    between atoms: C_9  and  C_10
REMARK    8  A    between atoms: C_12  and  C_13
REMARK    9  A    between atoms: C_13  and  C_14
REMARK                            x       y       z     vdW  Elec       q    Type
REMARK                         _______ _______ _______ _____ _____    ______ ____
ROOT
ATOM      1  C   UNL     1       3.219   2.956  17.666  0.00  0.00    +0.000 C 
ATOM      2  O   UNL     1       3.777   1.964  18.128  0.00  0.00    +0.000 OA
ATOM      3  N   UNL     1       3.904   3.931  16.972  0.00  0.00    +0.000 N 
ATOM      4  H   UNL     1       3.329   4.551  16.407  0.00  0.00    +0.000 HD
ENDROOT
BRANCH   1   5
ATOM      5  C   UNL     1       1.723   3.270  17.894  0.00  0.00    +0.000 C 
ATOM      6  C   UNL     1       1.530   4.786  17.917  0.00  0.00    +0.000 C 
BRANCH   5   7
ATOM      7  O   UNL     1       1.268   2.651  19.105  0.00  0.00    +0.000 OA
BRANCH   7   9
ATOM      8  C   UNL     1       1.519   2.854  21.477  0.00  0.00    +0.000 C 
ATOM      9  C   UNL     1       1.130   3.562  20.196  0.00  0.00    +0.000 C 
ENDBRANCH   7   9
ENDBRANCH   5   7
ENDBRANCH   1   5
BRANCH   3  10
ATOM     10  C   UNL     1       5.279   3.718  16.590  0.00  0.00    +0.000 C 
BRANCH  10  11
ATOM     11  C   UNL     1       6.151   4.618  17.369  0.00  0.00    +0.000 A 
ATOM     12  C   UNL     1       6.796   5.798  17.083  0.00  0.00    +0.000 A 
ATOM     13  C   UNL     1       7.417   6.159  18.301  0.00  0.00    +0.000 A 
ATOM     14  N   UNL     1       7.181   5.249  19.254  0.00  0.00    +0.000 NA
ATOM     15  O   UNL     1       6.382   4.283  18.666  0.00  0.00    +0.000 OA
BRANCH  13  16
ATOM     16  C   UNL     1       8.225   7.373  18.591  0.00  0.00    +0.000 C 
ATOM     17  C   UNL     1       7.874   8.541  17.683  0.00  0.00    +0.000 C 
ENDBRANCH  13  16
ENDBRANCH  10  11
ENDBRANCH   3  10
TORSDOF 6
ENDMDL
MODEL 9
REMARK VINA RESULT:      -6.0      1.190      1.251
REMARK  Name = 
REMARK  9 active torsions:
REMARK  status: ('A' for Active; 'I' for Inactive)
REMARK    1  A    between atoms: C_1  and  C_2
REMARK    2  A    between atoms: C_2  and  O_3
REMARK    3  A    between atoms: O_3  and  C_4
REMARK    4  A    between atoms: C_4  and  C_5
REMARK    5  A    between atoms: C_4  and  C_6
REMARK    6  A    between atoms: N_8  and  C_9
REMARK    7  A    between atoms: C_9  and  C_10
REMARK    8  A    between atoms: C_12  and  C_13
REMARK    9  A    between atoms: C_13  and  C_14
REMARK                            x       y       z     vdW  Elec       q    Type
REMARK                         _______ _______ _______ _____ _____    ______ ____
ROOT
ATOM      1  C   UNL     1       4.567   3.813  18.907  0.00  0.00    +0.000 C 
ATOM      2  O   UNL     1       3.797   4.662  18.467  0.00  0.00    +0.000 OA
ATOM      3  N   UNL     1       5.933   3.899  18.742  0.00  0.00    +0.000 N 
ATOM      4  H   UNL     1       6.487   3.314  19.363  0.00  0.00    +0.000 HD
ENDROOT
BRANCH   1   5
ATOM      5  C   UNL     1       4.092   2.516  19.600  0.00  0.00    +0.000 C 
ATOM      6  C   UNL     1       3.473   1.589  18.553  0.00  0.00    +0.000 C 
BRANCH   5   7
ATOM      7  O   UNL     1       3.170   2.829  20.653  0.00  0.00    +0.000 OA
BRANCH   7   9
ATOM      8  C   UNL     1       0.974   3.748  20.401  0.00  0.00    +0.000 C 
ATOM      9  C   UNL     1       1.816   2.490  20.348  0.00  0.00    +0.000 C 
ENDBRANCH   7   9
ENDBRANCH   5   7
ENDBRANCH   1   5
BRANCH   3  10
ATOM     10  C   UNL     1       6.524   5.105  18.213  0.00  0.00    +0.000 C 
BRANCH  10  11
ATOM     11  C   UNL     1       6.514   5.051  16.739  0.00  0.00    +0.000 A 
ATOM     12  C   UNL     1       6.857   4.088  15.821  0.00  0.00    +0.000 A 
ATOM     13  C   UNL     1       6.549   4.672  14.571  0.00  0.00    +0.000 A 
ATOM     14  N   UNL     1       6.073   5.915  14.720  0.00  0.00    +0.000 NA
ATOM     15  O   UNL     1       6.049   6.149  16.085  0.00  0.00    +0.000 OA
BRANCH  13  16
ATOM     16  C   UNL     1       6.682   4.066  13.219  0.00  0.00    +0.000 C 
ATOM     17  C   UNL     1       5.359   3.548  12.678  0.00  0.00    +0.000 C 
ENDBRANCH  13  16
ENDBRANCH  10  11
ENDBRANCH   3  10
TORSDOF 6
ENDMDL
