MODEL 1
REMARK VINA RESULT:      -8.5      0.000      0.000
REMARK  Name = 
REMARK  5 active torsions:
REMARK  status: ('A' for Active; 'I' for Inactive)
REMARK    1  A    between atoms: C_1  and  C_2
REMARK    2  A    between atoms: C_6  and  C_7
REMARK    3  A    between atoms: C_13  and  C_14
REMARK    4  A    between atoms: N_17  and  C_18
REMARK    5  A    between atoms: C_27  and  C_28
REMARK                            x       y       z     vdW  Elec       q    Type
REMARK                         _______ _______ _______ _____ _____    ______ ____
ROOT
ATOM      1  C   UNL     1       1.844   8.154  19.166  0.00  0.00    +0.000 A 
ATOM      2  C   UNL     1       1.730   8.053  20.500  0.00  0.00    +0.000 A 
ATOM      3  C   UNL     1       1.002   9.131  21.210  0.00  0.00    +0.000 A 
ATOM      4  O   UNL     1       0.707   9.005  22.394  0.00  0.00    +0.000 OA
ATOM      5  N   UNL     1       0.689  10.215  20.418  0.00  0.00    +0.000 N 
ATOM      6  C   UNL     1       0.443  11.497  20.905  0.00  0.00    +0.000 A 
ATOM      7  C   UNL     1      -0.038  12.440  20.053  0.00  0.00    +0.000 A 
ATOM      8  C   UNL     1      -0.994  11.848  19.118  0.00  0.00    +0.000 A 
ATOM      9  C   UNL     1      -0.638  10.727  18.477  0.00  0.00    +0.000 A 
ATOM     10  C   UNL     1       0.465   9.944  19.084  0.00  0.00    +0.000 A 
ATOM     11  N   UNL     1       1.045   8.998  18.430  0.00  0.00    +0.000 NA
ENDROOT
BRANCH   1  17
ATOM     12  C   UNL     1       7.065   4.840  15.346  0.00  0.00    +0.000 C 
ATOM     13  C   UNL     1       5.787   5.084  16.098  0.00  0.00    +0.000 A 
ATOM     14  C   UNL     1       5.349   6.323  16.358  0.00  0.00    +0.000 A 
ATOM     15  N   UNL     1       4.200   6.502  17.118  0.00  0.00    +0.000 N 
ATOM     16  N   UNL     1       3.632   7.655  17.532  0.00  0.00    +0.000 NA
ATOM     17  C   UNL     1       2.657   7.274  18.355  0.00  0.00    +0.000 A 
ATOM     18  C   UNL     1       2.476   5.852  18.334  0.00  0.00    +0.000 A 
ATOM     19  C   UNL     1       3.529   5.392  17.565  0.00  0.00    +0.000 A 
ATOM     20  C   UNL     1       4.026   4.091  17.228  0.00  0.00    +0.000 A 
ATOM     21  C   UNL     1       3.336   2.850  17.720  0.00  0.00    +0.000 C 
ATOM     22  N   UNL     1       5.124   3.943  16.518  0.00  0.00    +0.000 NA
ENDBRANCH   1  17
BRANCH   7  23
ATOM     23  C   UNL     1       0.877  13.416  19.197  0.00  0.00    +0.000 C 
ATOM     24  C   UNL     1       2.407  13.095  19.305  0.00  0.00    +0.000 C 
ATOM     25  C   UNL     1       3.310  14.044  18.523  0.00  0.00    +0.000 C 
ATOM     26  N   UNL     1       3.042  15.449  18.844  0.00  0.00    +0.000 NA
ATOM     27  C   UNL     1       3.898  16.324  18.040  0.00  0.00    +0.000 C 
ATOM     28  C   UNL     1       1.627  15.785  18.654  0.00  0.00    +0.000 C 
ATOM     29  C   UNL     1       0.737  14.919  19.553  0.00  0.00    +0.000 C 
ENDBRANCH   7  23
TORSDOF 2
ENDMDL
MODEL 2
REMARK VINA RESULT:      -8.4      1.073      1.159
REMARK  Name = 
REMARK  5 active torsions:
REMARK  status: ('A' for Active; 'I' for Inactive)
REMARK    1  A    between atoms: C_1  and  C_2
REMARK    2  A    between atoms: C_6  and  C_7
REMARK    3  A    between atoms: C_13  and  C_14
REMARK    4  A    between atoms: N_17  and  C_18
REMARK    5  A    between atoms: C_27  and  C_28
REMARK                            x       y       z     vdW  Elec       q    Type
REMARK                         _______ _______ _______ _____ _____    ______ ____
ROOT
ATOM      1  C   UNL     1       1.443   8.388  20.244  0.00  0.00    +0.000 A 
ATOM      2  C   UNL     1       1.395   8.478  21.583  0.00  0.00    +0.000 A 
ATOM      3  C   UNL     1       0.739   9.672  22.166  0.00  0.00    +0.000 A 
ATOM      4  O   UNL     1       0.502   9.723  23.369  0.00  0.00    +0.000 OA
ATOM      5  N   UNL     1       0.419  10.645  21.244  0.00  0.00    +0.000 N 
ATOM      6  C   UNL     1       0.238  11.991  21.556  0.00  0.00    +0.000 A 
ATOM      7  C   UNL     1      -0.257  12.823  20.603  0.00  0.00    +0.000 A 
ATOM      8  C   UNL     1      -1.278  12.143  19.807  0.00  0.00    +0.000 A 
ATOM      9  C   UNL     1      -0.991  10.931  19.315  0.00  0.00    +0.000 A 
ATOM     10  C   UNL     1       0.118  10.200  19.975  0.00  0.00    +0.000 A 
ATOM     11  N   UNL     1       0.634   9.150  19.434  0.00  0.00    +0.000 NA
ENDROOT
BRANCH   1  17
ATOM     12  C   UNL     1       6.120   4.521  16.242  0.00  0.00    +0.000 C 
ATOM     13  C   UNL     1       5.034   4.874  17.219  0.00  0.00    +0.000 A 
ATOM     14  C   UNL     1       4.455   6.083  17.220  0.00  0.00    +0.000 A 
ATOM     15  N   UNL     1       3.505   6.389  18.187  0.00  0.00    +0.000 N 
ATOM     16  N   UNL     1       2.854   7.555  18.391  0.00  0.00    +0.000 NA
ATOM     17  C   UNL     1       2.185   7.373  19.528  0.00  0.00    +0.000 A 
ATOM     18  C   UNL     1       2.262   6.011  19.971  0.00  0.00    +0.000 A 
ATOM     19  C   UNL     1       3.168   5.428  19.105  0.00  0.00    +0.000 A 
ATOM     20  C   UNL     1       3.796   4.142  19.034  0.00  0.00    +0.000 A 
ATOM     21  C   UNL     1       3.475   3.069  20.037  0.00  0.00    +0.000 C 
ATOM     22  N   UNL     1       4.703   3.875  18.119  0.00  0.00    +0.000 NA
ENDBRANCH   1  17
BRANCH   7  23
ATOM     23  C   UNL     1       0.643  13.635  19.575  0.00  0.00    +0.000 C 
ATOM     24  C   UNL     1       2.168  13.291  19.671  0.00  0.00    +0.000 C 
ATOM     25  C   UNL     1       3.057  14.087  18.722  0.00  0.00    +0.000 C 
ATOM     26  N   UNL     1       2.835  15.531  18.838  0.00  0.00    +0.000 NA
ATOM     27  C   UNL     1       3.675  16.252  17.880  0.00  0.00    +0.000 C 
ATOM     28  C   UNL     1       1.421  15.875  18.655  0.00  0.00    +0.000 C 
ATOM     29  C   UNL     1       0.551  15.177  19.707  0.00  0.00    +0.000 C 
ENDBRANCH   7  23
TORSDOF 2
ENDMDL
MODEL 3
REMARK VINA RESULT:      -8.4      4.618      8.234
REMARK  Name = 
REMARK  5 active torsions:
REMARK  status: ('A' for Active; 'I' for Inactive)
REMARK    1  A    between atoms: C_1  and  C_2
REMARK    2  A    between atoms: C_6  and  C_7
REMARK    3  A    between atoms: C_13  and  C_14
REMARK    4  A    between atoms: N_17  and  C_18
REMARK    5  A    between atoms: C_27  and  C_28
REMARK                            x       y       z     vdW  Elec       q    Type
REMARK                         _______ _______ _______ _____ _____    ______ ____
ROOT
ATOM      1  C   UNL     1       7.924   8.295  18.129  0.00  0.00    +0.000 A 
ATOM      2  C   UNL     1       8.460   7.268  18.809  0.00  0.00    +0.000 A 
ATOM      3  C   UNL     1       7.698   5.997  18.843  0.00  0.00    +0.000 A 
ATOM      4  O   UNL     1       8.215   4.977  19.287  0.00  0.00    +0.000 OA
ATOM      5  N   UNL     1       6.427   6.088  18.318  0.00  0.00    +0.000 N 
ATOM      6  C   UNL     1       5.384   5.220  18.635  0.00  0.00    +0.000 A 
ATOM      7  C   UNL     1       4.232   5.291  17.919  0.00  0.00    +0.000 A 
ATOM      8  C   UNL     1       4.519   5.559  16.510  0.00  0.00    +0.000 A 
ATOM      9  C   UNL     1       5.357   6.562  16.216  0.00  0.00    +0.000 A 
ATOM     10  C   UNL     1       6.255   7.010  17.307  0.00  0.00    +0.000 A 
ATOM     11  N   UNL     1       6.915   8.112  17.213  0.00  0.00    +0.000 NA
ENDROOT
BRANCH   1  17
ATOM     12  C   UNL     1       9.090  15.468  17.968  0.00  0.00    +0.000 C 
ATOM     13  C   UNL     1       9.300  13.995  18.182  0.00  0.00    +0.000 A 
ATOM     14  C   UNL     1       8.510  13.081  17.602  0.00  0.00    +0.000 A 
ATOM     15  N   UNL     1       8.695  11.733  17.886  0.00  0.00    +0.000 N 
ATOM     16  N   UNL     1       7.979  10.673  17.453  0.00  0.00    +0.000 NA
ATOM     17  C   UNL     1       8.462   9.638  18.137  0.00  0.00    +0.000 A 
ATOM     18  C   UNL     1       9.627  10.002  18.889  0.00  0.00    +0.000 A 
ATOM     19  C   UNL     1       9.706  11.374  18.740  0.00  0.00    +0.000 A 
ATOM     20  C   UNL     1      10.540  12.394  19.304  0.00  0.00    +0.000 A 
ATOM     21  C   UNL     1      11.642  12.046  20.266  0.00  0.00    +0.000 C 
ATOM     22  N   UNL     1      10.340  13.666  19.034  0.00  0.00    +0.000 NA
ENDBRANCH   1  17
BRANCH   7  23
ATOM     23  C   UNL     1       2.998   6.215  18.305  0.00  0.00    +0.000 C 
ATOM     24  C   UNL     1       3.065   7.646  17.672  0.00  0.00    +0.000 C 
ATOM     25  C   UNL     1       1.912   8.565  18.061  0.00  0.00    +0.000 C 
ATOM     26  N   UNL     1       1.731   8.639  19.513  0.00  0.00    +0.000 NA
ATOM     27  C   UNL     1       0.588   9.495  19.838  0.00  0.00    +0.000 C 
ATOM     28  C   UNL     1       1.572   7.307  20.105  0.00  0.00    +0.000 C 
ATOM     29  C   UNL     1       2.803   6.437  19.827  0.00  0.00    +0.000 C 
ENDBRANCH   7  23
TORSDOF 2
ENDMDL
MODEL 4
REMARK VINA RESULT:      -8.3      1.308      2.146
REMARK  Name = 
REMARK  5 active torsions:
REMARK  status: ('A' for Active; 'I' for Inactive)
REMARK    1  A    between atoms: C_1  and  C_2
REMARK    2  A    between atoms: C_6  and  C_7
REMARK    3  A    between atoms: C_13  and  C_14
REMARK    4  A    between atoms: N_17  and  C_18
REMARK    5  A    between atoms: C_27  and  C_28
REMARK                            x       y       z     vdW  Elec       q    Type
REMARK                         _______ _______ _______ _____ _____    ______ ____
ROOT
ATOM      1  C   UNL     1       1.163   8.425  20.605  0.00  0.00    +0.000 A 
ATOM      2  C   UNL     1       1.044   8.624  21.928  0.00  0.00    +0.000 A 
ATOM      3  C   UNL     1       0.400   9.882  22.376  0.00  0.00    +0.000 A 
ATOM      4  O   UNL     1       0.099  10.038  23.555  0.00  0.00    +0.000 OA
ATOM      5  N   UNL     1       0.168  10.787  21.363  0.00  0.00    +0.000 N 
ATOM      6  C   UNL     1       0.019  12.159  21.557  0.00  0.00    +0.000 A 
ATOM      7  C   UNL     1      -0.391  12.927  20.514  0.00  0.00    +0.000 A 
ATOM      8  C   UNL     1      -1.390  12.218  19.715  0.00  0.00    +0.000 A 
ATOM      9  C   UNL     1      -1.121  10.961  19.339  0.00  0.00    +0.000 A 
ATOM     10  C   UNL     1      -0.078  10.251  20.117  0.00  0.00    +0.000 A 
ATOM     11  N   UNL     1       0.429   9.145  19.692  0.00  0.00    +0.000 NA
ENDROOT
BRANCH   1  17
ATOM     12  C   UNL     1       3.602   2.073  18.048  0.00  0.00    +0.000 C 
ATOM     13  C   UNL     1       3.465   3.548  18.302  0.00  0.00    +0.000 A 
ATOM     14  C   UNL     1       2.740   4.020  19.325  0.00  0.00    +0.000 A 
ATOM     15  N   UNL     1       2.581   5.392  19.480  0.00  0.00    +0.000 N 
ATOM     16  N   UNL     1       1.853   6.059  20.401  0.00  0.00    +0.000 NA
ATOM     17  C   UNL     1       1.906   7.332  20.017  0.00  0.00    +0.000 A 
ATOM     18  C   UNL     1       2.829   7.516  18.934  0.00  0.00    +0.000 A 
ATOM     19  C   UNL     1       3.198   6.230  18.587  0.00  0.00    +0.000 A 
ATOM     20  C   UNL     1       3.988   5.668  17.532  0.00  0.00    +0.000 A 
ATOM     21  C   UNL     1       4.658   6.549  16.515  0.00  0.00    +0.000 C 
ATOM     22  N   UNL     1       4.115   4.366  17.394  0.00  0.00    +0.000 NA
ENDBRANCH   1  17
BRANCH   7  23
ATOM     23  C   UNL     1       0.593  13.624  19.479  0.00  0.00    +0.000 C 
ATOM     24  C   UNL     1       2.050  13.050  19.518  0.00  0.00    +0.000 C 
ATOM     25  C   UNL     1       3.024  13.731  18.562  0.00  0.00    +0.000 C 
ATOM     26  N   UNL     1       3.027  15.187  18.723  0.00  0.00    +0.000 NA
ATOM     27  C   UNL     1       3.941  15.801  17.757  0.00  0.00    +0.000 C 
ATOM     28  C   UNL     1       1.678  15.747  18.593  0.00  0.00    +0.000 C 
ATOM     29  C   UNL     1       0.740  15.158  19.653  0.00  0.00    +0.000 C 
ENDBRANCH   7  23
TORSDOF 2
ENDMDL
MODEL 5
REMARK VINA RESULT:      -8.2      1.449      2.263
REMARK  Name = 
REMARK  5 active torsions:
REMARK  status: ('A' for Active; 'I' for Inactive)
REMARK    1  A    between atoms: C_1  and  C_2
REMARK    2  A    between atoms: C_6  and  C_7
REMARK    3  A    between atoms: C_13  and  C_14
REMARK    4  A    between atoms: N_17  and  C_18
REMARK    5  A    between atoms: C_27  and  C_28
REMARK                            x       y       z     vdW  Elec       q    Type
REMARK                         _______ _______ _______ _____ _____    ______ ____
ROOT
ATOM      1  C   UNL     1       1.485   8.269  20.195  0.00  0.00    +0.000 A 
ATOM      2  C   UNL     1       0.953   8.388  21.422  0.00  0.00    +0.000 A 
ATOM      3  C   UNL     1       0.435   9.720  21.817  0.00  0.00    +0.000 A 
ATOM      4  O   UNL     1      -0.223   9.849  22.845  0.00  0.00    +0.000 OA
ATOM      5  N   UNL     1       0.738  10.728  20.928  0.00  0.00    +0.000 N 
ATOM      6  C   UNL     1       0.784  12.080  21.262  0.00  0.00    +0.000 A 
ATOM      7  C   UNL     1       0.908  12.997  20.267  0.00  0.00    +0.000 A 
ATOM      8  C   UNL     1       0.137  12.589  19.093  0.00  0.00    +0.000 A 
ATOM      9  C   UNL     1       0.286  11.336  18.644  0.00  0.00    +0.000 A 
ATOM     10  C   UNL     1       0.845  10.355  19.605  0.00  0.00    +0.000 A 
ATOM     11  N   UNL     1       1.257   9.200  19.210  0.00  0.00    +0.000 NA
ENDROOT
BRANCH   1  17
ATOM     12  C   UNL     1       3.604   1.577  18.304  0.00  0.00    +0.000 C 
ATOM     13  C   UNL     1       3.542   3.075  18.410  0.00  0.00    +0.000 A 
ATOM     14  C   UNL     1       2.838   3.683  19.374  0.00  0.00    +0.000 A 
ATOM     15  N   UNL     1       2.749   5.070  19.391  0.00  0.00    +0.000 N 
ATOM     16  N   UNL     1       2.052   5.862  20.234  0.00  0.00    +0.000 NA
ATOM     17  C   UNL     1       2.173   7.086  19.725  0.00  0.00    +0.000 A 
ATOM     18  C   UNL     1       3.109   7.114  18.639  0.00  0.00    +0.000 A 
ATOM     19  C   UNL     1       3.413   5.782  18.424  0.00  0.00    +0.000 A 
ATOM     20  C   UNL     1       4.177   5.079  17.438  0.00  0.00    +0.000 A 
ATOM     21  C   UNL     1       4.897   5.819  16.345  0.00  0.00    +0.000 C 
ATOM     22  N   UNL     1       4.237   3.764  17.431  0.00  0.00    +0.000 NA
ENDBRANCH   1  17
BRANCH   7  23
ATOM     23  C   UNL     1       2.300  13.535  19.720  0.00  0.00    +0.000 C 
ATOM     24  C   UNL     1       3.166  14.251  20.811  0.00  0.00    +0.000 C 
ATOM     25  C   UNL     1       4.489  14.812  20.301  0.00  0.00    +0.000 C 
ATOM     26  N   UNL     1       4.309  15.668  19.126  0.00  0.00    +0.000 NA
ATOM     27  C   UNL     1       5.606  16.148  18.645  0.00  0.00    +0.000 C 
ATOM     28  C   UNL     1       3.580  14.974  18.059  0.00  0.00    +0.000 C 
ATOM     29  C   UNL     1       2.192  14.538  18.543  0.00  0.00    +0.000 C 
ENDBRANCH   7  23
TORSDOF 2
ENDMDL
MODEL 6
REMARK VINA RESULT:      -7.9      1.656      2.201
REMARK  Name = 
REMARK  5 active torsions:
REMARK  status: ('A' for Active; 'I' for Inactive)
REMARK    1  A    between atoms: C_1  and  C_2
REMARK    2  A    between atoms: C_6  and  C_7
REMARK    3  A    between atoms: C_13  and  C_14
REMARK    4  A    between atoms: N_17  and  C_18
REMARK    5  A    between atoms: C_27  and  C_28
REMARK                            x       y       z     vdW  Elec       q    Type
REMARK                         _______ _______ _______ _____ _____    ______ ____
ROOT
ATOM      1  C   UNL     1       0.882   9.244  20.506  0.00  0.00    +0.000 A 
ATOM      2  C   UNL     1       0.496   9.425  21.779  0.00  0.00    +0.000 A 
ATOM      3  C   UNL     1      -0.000  10.769  22.159  0.00  0.00    +0.000 A 
ATOM      4  O   UNL     1      -0.535  10.947  23.249  0.00  0.00    +0.000 OA
ATOM      5  N   UNL     1       0.174  11.730  21.186  0.00  0.00    +0.000 N 
ATOM      6  C   UNL     1       0.231  13.099  21.438  0.00  0.00    +0.000 A 
ATOM      7  C   UNL     1       0.218  13.959  20.387  0.00  0.00    +0.000 A 
ATOM      8  C   UNL     1      -0.677  13.474  19.337  0.00  0.00    +0.000 A 
ATOM      9  C   UNL     1      -0.556  12.200  18.943  0.00  0.00    +0.000 A 
ATOM     10  C   UNL     1       0.134  11.284  19.882  0.00  0.00    +0.000 A 
ATOM     11  N   UNL     1       0.521  10.115  19.505  0.00  0.00    +0.000 NA
ENDROOT
BRANCH   1  17
ATOM     12  C   UNL     1       5.265   4.266  17.532  0.00  0.00    +0.000 C 
ATOM     13  C   UNL     1       4.183   4.896  18.362  0.00  0.00    +0.000 A 
ATOM     14  C   UNL     1       3.747   6.140  18.120  0.00  0.00    +0.000 A 
ATOM     15  N   UNL     1       2.795   6.710  18.957  0.00  0.00    +0.000 N 
ATOM     16  N   UNL     1       2.273   7.955  18.918  0.00  0.00    +0.000 NA
ATOM     17  C   UNL     1       1.536   8.047  20.023  0.00  0.00    +0.000 A 
ATOM     18  C   UNL     1       1.435   6.784  20.694  0.00  0.00    +0.000 A 
ATOM     19  C   UNL     1       2.308   5.965  20.000  0.00  0.00    +0.000 A 
ATOM     20  C   UNL     1       2.787   4.628  20.190  0.00  0.00    +0.000 A 
ATOM     21  C   UNL     1       2.299   3.788  21.336  0.00  0.00    +0.000 C 
ATOM     22  N   UNL     1       3.699   4.112  19.394  0.00  0.00    +0.000 NA
ENDBRANCH   1  17
BRANCH   7  23
ATOM     23  C   UNL     1       1.524  14.486  19.650  0.00  0.00    +0.000 C 
ATOM     24  C   UNL     1       2.835  14.286  20.484  0.00  0.00    +0.000 C 
ATOM     25  C   UNL     1       4.098  14.820  19.815  0.00  0.00    +0.000 C 
ATOM     26  N   UNL     1       3.950  16.215  19.392  0.00  0.00    +0.000 NA
ATOM     27  C   UNL     1       5.167  16.672  18.717  0.00  0.00    +0.000 C 
ATOM     28  C   UNL     1       2.776  16.396  18.532  0.00  0.00    +0.000 C 
ATOM     29  C   UNL     1       1.494  15.988  19.267  0.00  0.00    +0.000 C 
ENDBRANCH   7  23
TORSDOF 2
ENDMDL
MODEL 7
REMARK VINA RESULT:      -7.8      0.995      1.348
REMARK  Name = 
REMARK  5 active torsions:
REMARK  status: ('A' for Active; 'I' for Inactive)
REMARK    1  A    between atoms: C_1  and  C_2
REMARK    2  A    between atoms: C_6  and  C_7
REMARK    3  A    between atoms: C_13  and  C_14
REMARK    4  A    between atoms: N_17  and  C_18
REMARK    5  A    between atoms: C_27  and  C_28
REMARK                            x       y       z     vdW  Elec       q    Type
REMARK                         _______ _______ _______ _____ _____    ______ ____
ROOT
ATOM      1  C   UNL     1       1.420   8.465  19.919  0.00  0.00    +0.000 A 
ATOM      2  C   UNL     1       1.053   8.255  21.193  0.00  0.00    +0.000 A 
ATOM      3  C   UNL     1       0.295   9.332  21.874  0.00  0.00    +0.000 A 
ATOM      4  O   UNL     1      -0.224   9.129  22.967  0.00  0.00    +0.000 OA
ATOM      5  N   UNL     1       0.222  10.508  21.158  0.00  0.00    +0.000 N 
ATOM      6  C   UNL     1      -0.007  11.759  21.728  0.00  0.00    +0.000 A 
ATOM      7  C   UNL     1      -0.244  12.817  20.910  0.00  0.00    +0.000 A 
ATOM      8  C   UNL     1      -1.054  12.408  19.763  0.00  0.00    +0.000 A 
ATOM      9  C   UNL     1      -0.677  11.320  19.080  0.00  0.00    +0.000 A 
ATOM     10  C   UNL     1       0.228  10.381  19.785  0.00  0.00    +0.000 A 
ATOM     11  N   UNL     1       0.842   9.446  19.147  0.00  0.00    +0.000 NA
ENDROOT
BRANCH   1  17
ATOM     12  C   UNL     1       6.596   5.410  15.831  0.00  0.00    +0.000 C 
ATOM     13  C   UNL     1       5.467   5.578  16.808  0.00  0.00    +0.000 A 
ATOM     14  C   UNL     1       4.731   6.697  16.846  0.00  0.00    +0.000 A 
ATOM     15  N   UNL     1       3.744   6.838  17.814  0.00  0.00    +0.000 N 
ATOM     16  N   UNL     1       2.941   7.897  18.053  0.00  0.00    +0.000 NA
ATOM     17  C   UNL     1       2.296   7.585  19.175  0.00  0.00    +0.000 A 
ATOM     18  C   UNL     1       2.552   6.231  19.570  0.00  0.00    +0.000 A 
ATOM     19  C   UNL     1       3.534   5.806  18.693  0.00  0.00    +0.000 A 
ATOM     20  C   UNL     1       4.329   4.620  18.583  0.00  0.00    +0.000 A 
ATOM     21  C   UNL     1       4.149   3.478  19.543  0.00  0.00    +0.000 C 
ATOM     22  N   UNL     1       5.269   4.511  17.668  0.00  0.00    +0.000 NA
ENDBRANCH   1  17
BRANCH   7  23
ATOM     23  C   UNL     1       0.890  13.772  20.337  0.00  0.00    +0.000 C 
ATOM     24  C   UNL     1       0.400  14.694  19.169  0.00  0.00    +0.000 C 
ATOM     25  C   UNL     1       1.481  15.592  18.575  0.00  0.00    +0.000 C 
ATOM     26  N   UNL     1       2.672  14.834  18.184  0.00  0.00    +0.000 NA
ATOM     27  C   UNL     1       3.698  15.740  17.662  0.00  0.00    +0.000 C 
ATOM     28  C   UNL     1       3.197  14.039  19.300  0.00  0.00    +0.000 C 
ATOM     29  C   UNL     1       2.145  13.040  19.796  0.00  0.00    +0.000 C 
ENDBRANCH   7  23
TORSDOF 2
ENDMDL
MODEL 8
REMARK VINA RESULT:      -7.7      2.815      4.612
REMARK  Name = 
REMARK  5 active torsions:
REMARK  status: ('A' for Active; 'I' for Inactive)
REMARK    1  A    between atoms: C_1  and  C_2
REMARK    2  A    between atoms: C_6  and  C_7
REMARK    3  A    between atoms: C_13  and  C_14
REMARK    4  A    between atoms: N_17  and  C_18
REMARK    5  A    between atoms: C_27  and  C_28
REMARK                            x       y       z     vdW  Elec       q    Type
REMARK                         _______ _______ _______ _____ _____    ______ ____
ROOT
ATOM      1  C   UNL     1       1.842   8.423  19.025  0.00  0.00    +0.000 A 
ATOM      2  C   UNL     1       2.506   9.268  18.219  0.00  0.00    +0.000 A 
ATOM      3  C   UNL     1       2.095  10.692  18.232  0.00  0.00    +0.000 A 
ATOM      4  O   UNL     1       2.776  11.538  17.661  0.00  0.00    +0.000 OA
ATOM      5  N   UNL     1       0.942  10.939  18.945  0.00  0.00    +0.000 N 
ATOM      6  C   UNL     1       0.115  12.042  18.741  0.00  0.00    +0.000 A 
ATOM      7  C   UNL     1      -0.889  12.280  19.624  0.00  0.00    +0.000 A 
ATOM      8  C   UNL     1      -0.460  11.966  20.987  0.00  0.00    +0.000 A 
ATOM      9  C   UNL     1       0.132  10.785  21.205  0.00  0.00    +0.000 A 
ATOM     10  C   UNL     1       0.704  10.106  20.017  0.00  0.00    +0.000 A 
ATOM     11  N   UNL     1       1.069   8.872  20.070  0.00  0.00    +0.000 NA
ENDROOT
BRANCH   1  17
ATOM     12  C   UNL     1       3.797   1.530  17.801  0.00  0.00    +0.000 C 
ATOM     13  C   UNL     1       3.202   2.748  18.451  0.00  0.00    +0.000 A 
ATOM     14  C   UNL     1       3.018   3.888  17.770  0.00  0.00    +0.000 A 
ATOM     15  N   UNL     1       2.533   5.011  18.429  0.00  0.00    +0.000 N 
ATOM     16  N   UNL     1       2.332   6.254  17.942  0.00  0.00    +0.000 NA
ATOM     17  C   UNL     1       2.014   6.987  19.008  0.00  0.00    +0.000 A 
ATOM     18  C   UNL     1       1.832   6.170  20.172  0.00  0.00    +0.000 A 
ATOM     19  C   UNL     1       2.230   4.911  19.763  0.00  0.00    +0.000 A 
ATOM     20  C   UNL     1       2.417   3.657  20.430  0.00  0.00    +0.000 A 
ATOM     21  C   UNL     1       2.123   3.511  21.897  0.00  0.00    +0.000 C 
ATOM     22  N   UNL     1       2.891   2.608  19.792  0.00  0.00    +0.000 NA
ENDBRANCH   1  17
BRANCH   7  23
ATOM     23  C   UNL     1      -2.362  11.702  19.476  0.00  0.00    +0.000 C 
ATOM     24  C   UNL     1      -2.732  11.303  18.007  0.00  0.00    +0.000 C 
ATOM     25  C   UNL     1      -4.155  10.783  17.832  0.00  0.00    +0.000 C 
ATOM     26  N   UNL     1      -5.150  11.699  18.397  0.00  0.00    +0.000 NA
ATOM     27  C   UNL     1      -6.495  11.140  18.246  0.00  0.00    +0.000 C 
ATOM     28  C   UNL     1      -4.865  12.005  19.803  0.00  0.00    +0.000 C 
ATOM     29  C   UNL     1      -3.487  12.659  19.949  0.00  0.00    +0.000 C 
ENDBRANCH   7  23
TORSDOF 2
ENDMDL
MODEL 9
REMARK VINA RESULT:      -7.7      2.856      4.704
REMARK  Name = 
REMARK  5 active torsions:
REMARK  status: ('A' for Active; 'I' for Inactive)
REMARK    1  A    between atoms: C_1  and  C_2
REMARK    2  A    between atoms: C_6  and  C_7
REMARK    3  A    between atoms: C_13  and  C_14
REMARK    4  A    between atoms: N_17  and  C_18
REMARK    5  A    between atoms: C_27  and  C_28
REMARK                            x       y       z     vdW  Elec       q    Type
REMARK                         _______ _______ _______ _____ _____    ______ ____
ROOT
ATOM      1  C   UNL     1       1.619  10.048  19.000  0.00  0.00    +0.000 A 
ATOM      2  C   UNL     1       2.079  11.112  18.322  0.00  0.00    +0.000 A 
ATOM      3  C   UNL     1       1.398  12.410  18.543  0.00  0.00    +0.000 A 
ATOM      4  O   UNL     1       1.882  13.447  18.098  0.00  0.00    +0.000 OA
ATOM      5  N   UNL     1       0.243  12.321  19.289  0.00  0.00    +0.000 N 
ATOM      6  C   UNL     1      -0.790  13.256  19.250  0.00  0.00    +0.000 A 
ATOM      7  C   UNL     1      -1.792  13.163  20.163  0.00  0.00    +0.000 A 
ATOM      8  C   UNL     1      -1.266  12.750  21.463  0.00  0.00    +0.000 A 
ATOM      9  C   UNL     1      -0.447  11.691  21.506  0.00  0.00    +0.000 A 
ATOM     10  C   UNL     1       0.207  11.314  20.230  0.00  0.00    +0.000 A 
ATOM     11  N   UNL     1       0.808  10.182  20.102  0.00  0.00    +0.000 NA
ENDROOT
BRANCH   1  17
ATOM     12  C   UNL     1       5.097   3.952  17.106  0.00  0.00    +0.000 C 
ATOM     13  C   UNL     1       4.152   4.899  17.792  0.00  0.00    +0.000 A 
ATOM     14  C   UNL     1       3.897   6.118  17.298  0.00  0.00    +0.000 A 
ATOM     15  N   UNL     1       3.074   6.987  18.003  0.00  0.00    +0.000 N 
ATOM     16  N   UNL     1       2.741   8.262  17.708  0.00  0.00    +0.000 NA
ATOM     17  C   UNL     1       2.069   8.691  18.774  0.00  0.00    +0.000 A 
ATOM     18  C   UNL     1       1.807   7.624  19.695  0.00  0.00    +0.000 A 
ATOM     19  C   UNL     1       2.521   6.557  19.183  0.00  0.00    +0.000 A 
ATOM     20  C   UNL     1       2.803   5.230  19.644  0.00  0.00    +0.000 A 
ATOM     21  C   UNL     1       2.241   4.729  20.945  0.00  0.00    +0.000 C 
ATOM     22  N   UNL     1       3.597   4.427  18.969  0.00  0.00    +0.000 NA
ENDBRANCH   1  17
BRANCH   7  23
ATOM     23  C   UNL     1      -3.127  12.331  19.938  0.00  0.00    +0.000 C 
ATOM     24  C   UNL     1      -3.287  11.788  18.478  0.00  0.00    +0.000 C 
ATOM     25  C   UNL     1      -4.581  11.020  18.226  0.00  0.00    +0.000 C 
ATOM     26  N   UNL     1      -5.763  11.782  18.637  0.00  0.00    +0.000 NA
ATOM     27  C   UNL     1      -6.976  10.991  18.420  0.00  0.00    +0.000 C 
ATOM     28  C   UNL     1      -5.666  12.215  20.035  0.00  0.00    +0.000 C 
ATOM     29  C   UNL     1      -4.435  13.105  20.244  0.00  0.00    +0.000 C 
ENDBRANCH   7  23
TORSDOF 2
ENDMDL
