MODEL 1
REMARK VINA RESULT:      -6.5      0.000      0.000
REMARK  Name = 
REMARK  18 active torsions:
REMARK  status: ('A' for Active; 'I' for Inactive)
REMARK    1  A    between atoms: C_1  and  N_2
REMARK    2  A    between atoms: N_2  and  C_3
REMARK    3  A    between atoms: N_2  and  C_4
REMARK    4  A    between atoms: N_2  and  C_5
REMARK    5  A    between atoms: C_10  and  O_11
REMARK    6  A    between atoms: O_11  and  P_12
REMARK    7  A    between atoms: P_12  and  O_15
REMARK    8  A    between atoms: O_15  and  C_16
REMARK    9  A    between atoms: C_16  and  C_17
REMARK   10  A    between atoms: C_17  and  C_18
REMARK   11  A    between atoms: C_18  and  C_19
REMARK   12  A    between atoms: C_19  and  C_20
REMARK   13  A    between atoms: C_20  and  C_21
REMARK   14  A    between atoms: C_21  and  C_22
REMARK   15  A    between atoms: C_22  and  C_23
REMARK   16  A    between atoms: C_23  and  C_24
REMARK   17  A    between atoms: C_24  and  C_25
REMARK   18  A    between atoms: C_25  and  C_26
REMARK                            x       y       z     vdW  Elec       q    Type
REMARK                         _______ _______ _______ _____ _____    ______ ____
ROOT
ATOM      1  C   UNL     1       1.176   8.357  20.650  0.00  0.00    +0.000 C 
ENDROOT
BRANCH   1   2
ATOM      2  O   UNL     1       1.441   9.099  21.838  0.00  0.00    +0.000 OA
BRANCH   2   3
ATOM      3  P   UNL     1       0.204   9.498  22.824  0.00  0.00    +0.000 P 
ATOM      4  O   UNL     1       0.705   9.525  24.249  0.00  0.00    +0.000 OA
ATOM      5  O   UNL     1      -0.980   8.704  22.378  0.00  0.00    +0.000 OA
BRANCH   3   6
ATOM      6  O   UNL     1      -0.148  11.036  22.419  0.00  0.00    +0.000 OA
BRANCH   6  12
ATOM      7  C   UNL     1      -1.433  11.578  20.503  0.00  0.00    +0.000 C 
ATOM      8  C   UNL     1      -2.455  12.404  21.322  0.00  0.00    +0.000 C 
ATOM      9  C   UNL     1      -2.037  13.834  21.646  0.00  0.00    +0.000 C 
ATOM     10  C   UNL     1      -0.637  13.917  22.230  0.00  0.00    +0.000 C 
ATOM     11  C   UNL     1       0.398  13.126  21.421  0.00  0.00    +0.000 C 
ATOM     12  C   UNL     1      -0.026  11.661  21.149  0.00  0.00    +0.000 C 
BRANCH   7  14
ATOM     13  C   UNL     1      -0.818  13.043  18.392  0.00  0.00    +0.000 C 
ATOM     14  N   UNL     1      -1.522  11.818  18.936  0.00  0.00    +0.000 N 
ATOM     15  C   UNL     1      -3.008  11.925  18.561  0.00  0.00    +0.000 C 
ATOM     16  C   UNL     1      -0.970  10.588  18.206  0.00  0.00    +0.000 C 
ENDBRANCH   7  14
ENDBRANCH   6  12
ENDBRANCH   3   6
ENDBRANCH   2   3
ENDBRANCH   1   2
BRANCH   1  17
ATOM     17  C   UNL     1       2.332   7.667  19.871  0.00  0.00    +0.000 C 
BRANCH  17  18
ATOM     18  C   UNL     1       2.166   6.193  19.475  0.00  0.00    +0.000 C 
BRANCH  18  19
ATOM     19  C   UNL     1       2.147   5.230  20.694  0.00  0.00    +0.000 C 
BRANCH  19  20
ATOM     20  C   UNL     1       0.974   4.235  20.606  0.00  0.00    +0.000 C 
BRANCH  20  21
ATOM     21  C   UNL     1       1.303   2.834  21.148  0.00  0.00    +0.000 C 
BRANCH  21  22
ATOM     22  C   UNL     1       2.025   1.978  20.102  0.00  0.00    +0.000 C 
BRANCH  22  23
ATOM     23  C   UNL     1       1.428   2.146  18.705  0.00  0.00    +0.000 C 
BRANCH  23  24
ATOM     24  C   UNL     1       2.497   2.131  17.608  0.00  0.00    +0.000 C 
BRANCH  24  25
ATOM     25  C   UNL     1       2.752   3.534  17.064  0.00  0.00    +0.000 C 
BRANCH  25  26
ATOM     26  C   UNL     1       4.048   4.108  17.568  0.00  0.00    +0.000 C 
ATOM     27  C   UNL     1       5.236   4.083  16.930  0.00  0.00    +0.000 C 
ATOM     28  C   UNL     1       5.462   3.516  15.548  0.00  0.00    +0.000 C 
ATOM     29  C   UNL     1       6.051   4.585  14.627  0.00  0.00    +0.000 C 
ATOM     30  C   UNL     1       7.320   5.200  15.211  0.00  0.00    +0.000 C 
ATOM     31  C   UNL     1       7.082   5.747  16.620  0.00  0.00    +0.000 C 
ATOM     32  C   UNL     1       6.476   4.690  17.544  0.00  0.00    +0.000 C 
ENDBRANCH  25  26
ENDBRANCH  24  25
ENDBRANCH  23  24
ENDBRANCH  22  23
ENDBRANCH  21  22
ENDBRANCH  20  21
ENDBRANCH  19  20
ENDBRANCH  18  19
ENDBRANCH  17  18
ENDBRANCH   1  17
TORSDOF 15
ENDMDL
MODEL 2
REMARK VINA RESULT:      -6.5      1.537      3.882
REMARK  Name = 
REMARK  18 active torsions:
REMARK  status: ('A' for Active; 'I' for Inactive)
REMARK    1  A    between atoms: C_1  and  N_2
REMARK    2  A    between atoms: N_2  and  C_3
REMARK    3  A    between atoms: N_2  and  C_4
REMARK    4  A    between atoms: N_2  and  C_5
REMARK    5  A    between atoms: C_10  and  O_11
REMARK    6  A    between atoms: O_11  and  P_12
REMARK    7  A    between atoms: P_12  and  O_15
REMARK    8  A    between atoms: O_15  and  C_16
REMARK    9  A    between atoms: C_16  and  C_17
REMARK   10  A    between atoms: C_17  and  C_18
REMARK   11  A    between atoms: C_18  and  C_19
REMARK   12  A    between atoms: C_19  and  C_20
REMARK   13  A    between atoms: C_20  and  C_21
REMARK   14  A    between atoms: C_21  and  C_22
REMARK   15  A    between atoms: C_22  and  C_23
REMARK   16  A    between atoms: C_23  and  C_24
REMARK   17  A    between atoms: C_24  and  C_25
REMARK   18  A    between atoms: C_25  and  C_26
REMARK                            x       y       z     vdW  Elec       q    Type
REMARK                         _______ _______ _______ _____ _____    ______ ____
ROOT
ATOM      1  C   UNL     1       1.370   9.658  19.199  0.00  0.00    +0.000 C 
ENDROOT
BRANCH   1   2
ATOM      2  O   UNL     1       0.145   9.336  19.853  0.00  0.00    +0.000 OA
BRANCH   2   3
ATOM      3  P   UNL     1       0.063   9.417  21.480  0.00  0.00    +0.000 P 
ATOM      4  O   UNL     1       1.416   9.820  22.018  0.00  0.00    +0.000 OA
ATOM      5  O   UNL     1      -0.682   8.204  21.937  0.00  0.00    +0.000 OA
BRANCH   3   6
ATOM      6  O   UNL     1      -0.949  10.660  21.767  0.00  0.00    +0.000 OA
BRANCH   6  12
ATOM      7  C   UNL     1      -1.092  12.713  20.592  0.00  0.00    +0.000 C 
ATOM      8  C   UNL     1      -2.629  12.611  20.438  0.00  0.00    +0.000 C 
ATOM      9  C   UNL     1      -3.443  13.061  21.646  0.00  0.00    +0.000 C 
ATOM     10  C   UNL     1      -2.957  12.437  22.944  0.00  0.00    +0.000 C 
ATOM     11  C   UNL     1      -1.439  12.547  23.130  0.00  0.00    +0.000 C 
ATOM     12  C   UNL     1      -0.632  12.037  21.910  0.00  0.00    +0.000 C 
BRANCH   7  14
ATOM     13  C   UNL     1      -0.160  14.456  18.839  0.00  0.00    +0.000 C 
ATOM     14  N   UNL     1      -0.509  14.157  20.281  0.00  0.00    +0.000 N 
ATOM     15  C   UNL     1       0.764  14.341  21.121  0.00  0.00    +0.000 C 
ATOM     16  C   UNL     1      -1.510  15.217  20.759  0.00  0.00    +0.000 C 
ENDBRANCH   7  14
ENDBRANCH   6  12
ENDBRANCH   3   6
ENDBRANCH   2   3
ENDBRANCH   1   2
BRANCH   1  17
ATOM     17  C   UNL     1       1.804   8.903  17.910  0.00  0.00    +0.000 C 
BRANCH  17  18
ATOM     18  C   UNL     1       2.240   7.436  18.037  0.00  0.00    +0.000 C 
BRANCH  18  19
ATOM     19  C   UNL     1       2.700   7.055  19.472  0.00  0.00    +0.000 C 
BRANCH  19  20
ATOM     20  C   UNL     1       3.440   5.704  19.484  0.00  0.00    +0.000 C 
BRANCH  20  21
ATOM     21  C   UNL     1       4.971   5.832  19.427  0.00  0.00    +0.000 C 
BRANCH  21  22
ATOM     22  C   UNL     1       5.606   4.678  18.645  0.00  0.00    +0.000 C 
BRANCH  22  23
ATOM     23  C   UNL     1       5.798   5.017  17.167  0.00  0.00    +0.000 C 
BRANCH  23  24
ATOM     24  C   UNL     1       4.646   4.507  16.297  0.00  0.00    +0.000 C 
BRANCH  24  25
ATOM     25  C   UNL     1       4.188   3.120  16.742  0.00  0.00    +0.000 C 
BRANCH  25  26
ATOM     26  C   UNL     1       2.764   3.124  17.228  0.00  0.00    +0.000 C 
ATOM     27  C   UNL     1       2.311   2.590  18.380  0.00  0.00    +0.000 C 
ATOM     28  C   UNL     1       3.178   1.934  19.429  0.00  0.00    +0.000 C 
ATOM     29  C   UNL     1       2.999   2.634  20.777  0.00  0.00    +0.000 C 
ATOM     30  C   UNL     1       1.533   2.689  21.196  0.00  0.00    +0.000 C 
ATOM     31  C   UNL     1       0.663   3.332  20.115  0.00  0.00    +0.000 C 
ATOM     32  C   UNL     1       0.849   2.651  18.757  0.00  0.00    +0.000 C 
ENDBRANCH  25  26
ENDBRANCH  24  25
ENDBRANCH  23  24
ENDBRANCH  22  23
ENDBRANCH  21  22
ENDBRANCH  20  21
ENDBRANCH  19  20
ENDBRANCH  18  19
ENDBRANCH  17  18
ENDBRANCH   1  17
TORSDOF 15
ENDMDL
MODEL 3
REMARK VINA RESULT:      -6.5      2.197      3.160
REMARK  Name = 
REMARK  18 active torsions:
REMARK  status: ('A' for Active; 'I' for Inactive)
REMARK    1  A    between atoms: C_1  and  N_2
REMARK    2  A    between atoms: N_2  and  C_3
REMARK    3  A    between atoms: N_2  and  C_4
REMARK    4  A    between atoms: N_2  and  C_5
REMARK    5  A    between atoms: C_10  and  O_11
REMARK    6  A    between atoms: O_11  and  P_12
REMARK    7  A    between atoms: P_12  and  O_15
REMARK    8  A    between atoms: O_15  and  C_16
REMARK    9  A    between atoms: C_16  and  C_17
REMARK   10  A    between atoms: C_17  and  C_18
REMARK   11  A    between atoms: C_18  and  C_19
REMARK   12  A    between atoms: C_19  and  C_20
REMARK   13  A    between atoms: C_20  and  C_21
REMARK   14  A    between atoms: C_21  and  C_22
REMARK   15  A    between atoms: C_22  and  C_23
REMARK   16  A    between atoms: C_23  and  C_24
REMARK   17  A    between atoms: C_24  and  C_25
REMARK   18  A    between atoms: C_25  and  C_26
REMARK                            x       y       z     vdW  Elec       q    Type
REMARK                         _______ _______ _______ _____ _____    ______ ____
ROOT
ATOM      1  C   UNL     1       1.790   9.811  18.184  0.00  0.00    +0.000 C 
ENDROOT
BRANCH   1   2
ATOM      2  O   UNL     1       1.048  10.357  19.273  0.00  0.00    +0.000 OA
BRANCH   2   3
ATOM      3  P   UNL     1      -0.175  11.392  18.967  0.00  0.00    +0.000 P 
ATOM      4  O   UNL     1      -1.236  10.671  18.169  0.00  0.00    +0.000 OA
ATOM      5  O   UNL     1       0.446  12.683  18.543  0.00  0.00    +0.000 OA
BRANCH   3   6
ATOM      6  O   UNL     1      -0.814  11.698  20.433  0.00  0.00    +0.000 OA
BRANCH   6  12
ATOM      7  C   UNL     1      -2.087  13.673  20.736  0.00  0.00    +0.000 C 
ATOM      8  C   UNL     1      -3.348  12.890  21.177  0.00  0.00    +0.000 C 
ATOM      9  C   UNL     1      -3.375  12.456  22.638  0.00  0.00    +0.000 C 
ATOM     10  C   UNL     1      -2.093  11.762  23.067  0.00  0.00    +0.000 C 
ATOM     11  C   UNL     1      -0.830  12.532  22.661  0.00  0.00    +0.000 C 
ATOM     12  C   UNL     1      -0.801  12.917  21.161  0.00  0.00    +0.000 C 
BRANCH   7  14
ATOM     13  C   UNL     1      -1.721  15.653  22.446  0.00  0.00    +0.000 C 
ATOM     14  N   UNL     1      -2.150  15.226  21.059  0.00  0.00    +0.000 N 
ATOM     15  C   UNL     1      -3.600  15.691  20.851  0.00  0.00    +0.000 C 
ATOM     16  C   UNL     1      -1.294  15.988  20.040  0.00  0.00    +0.000 C 
ENDBRANCH   7  14
ENDBRANCH   6  12
ENDBRANCH   3   6
ENDBRANCH   2   3
ENDBRANCH   1   2
BRANCH   1  17
ATOM     17  C   UNL     1       1.771   8.282  17.899  0.00  0.00    +0.000 C 
BRANCH  17  18
ATOM     18  C   UNL     1       2.585   7.359  18.817  0.00  0.00    +0.000 C 
BRANCH  18  19
ATOM     19  C   UNL     1       1.859   7.024  20.150  0.00  0.00    +0.000 C 
BRANCH  19  20
ATOM     20  C   UNL     1       2.174   5.590  20.615  0.00  0.00    +0.000 C 
BRANCH  20  21
ATOM     21  C   UNL     1       1.068   4.572  20.289  0.00  0.00    +0.000 C 
BRANCH  21  22
ATOM     22  C   UNL     1       1.590   3.133  20.345  0.00  0.00    +0.000 C 
BRANCH  22  23
ATOM     23  C   UNL     1       2.840   2.937  19.487  0.00  0.00    +0.000 C 
BRANCH  23  24
ATOM     24  C   UNL     1       2.702   3.574  18.102  0.00  0.00    +0.000 C 
BRANCH  24  25
ATOM     25  C   UNL     1       3.981   3.405  17.285  0.00  0.00    +0.000 C 
BRANCH  25  26
ATOM     26  C   UNL     1       4.557   4.728  16.858  0.00  0.00    +0.000 C 
ATOM     27  C   UNL     1       5.311   5.552  17.612  0.00  0.00    +0.000 C 
ATOM     28  C   UNL     1       5.768   5.258  19.022  0.00  0.00    +0.000 C 
ATOM     29  C   UNL     1       7.294   5.312  19.106  0.00  0.00    +0.000 C 
ATOM     30  C   UNL     1       7.844   6.638  18.589  0.00  0.00    +0.000 C 
ATOM     31  C   UNL     1       7.353   6.935  17.171  0.00  0.00    +0.000 C 
ATOM     32  C   UNL     1       5.828   6.865  17.071  0.00  0.00    +0.000 C 
ENDBRANCH  25  26
ENDBRANCH  24  25
ENDBRANCH  23  24
ENDBRANCH  22  23
ENDBRANCH  21  22
ENDBRANCH  20  21
ENDBRANCH  19  20
ENDBRANCH  18  19
ENDBRANCH  17  18
ENDBRANCH   1  17
TORSDOF 15
ENDMDL
MODEL 4
REMARK VINA RESULT:      -6.4      1.575      2.293
REMARK  Name = 
REMARK  18 active torsions:
REMARK  status: ('A' for Active; 'I' for Inactive)
REMARK    1  A    between atoms: C_1  and  N_2
REMARK    2  A    between atoms: N_2  and  C_3
REMARK    3  A    between atoms: N_2  and  C_4
REMARK    4  A    between atoms: N_2  and  C_5
REMARK    5  A    between atoms: C_10  and  O_11
REMARK    6  A    between atoms: O_11  and  P_12
REMARK    7  A    between atoms: P_12  and  O_15
REMARK    8  A    between atoms: O_15  and  C_16
REMARK    9  A    between atoms: C_16  and  C_17
REMARK   10  A    between atoms: C_17  and  C_18
REMARK   11  A    between atoms: C_18  and  C_19
REMARK   12  A    between atoms: C_19  and  C_20
REMARK   13  A    between atoms: C_20  and  C_21
REMARK   14  A    between atoms: C_21  and  C_22
REMARK   15  A    between atoms: C_22  and  C_23
REMARK   16  A    between atoms: C_23  and  C_24
REMARK   17  A    between atoms: C_24  and  C_25
REMARK   18  A    between atoms: C_25  and  C_26
REMARK                            x       y       z     vdW  Elec       q    Type
REMARK                         _______ _______ _______ _____ _____    ______ ____
ROOT
ATOM      1  C   UNL     1       1.275   8.612  20.220  0.00  0.00    +0.000 C 
ENDROOT
BRANCH   1   2
ATOM      2  O   UNL     1       1.291   9.357  21.436  0.00  0.00    +0.000 OA
BRANCH   2   3
ATOM      3  P   UNL     1      -0.021   9.334  22.405  0.00  0.00    +0.000 P 
ATOM      4  O   UNL     1       0.417   9.604  23.826  0.00  0.00    +0.000 OA
ATOM      5  O   UNL     1      -0.837   8.150  22.002  0.00  0.00    +0.000 OA
BRANCH   3   6
ATOM      6  O   UNL     1      -0.892  10.624  21.927  0.00  0.00    +0.000 OA
BRANCH   6  12
ATOM      7  C   UNL     1      -0.622  12.541  20.561  0.00  0.00    +0.000 C 
ATOM      8  C   UNL     1      -2.073  12.467  20.028  0.00  0.00    +0.000 C 
ATOM      9  C   UNL     1      -3.140  13.066  20.938  0.00  0.00    +0.000 C 
ATOM     10  C   UNL     1      -3.032  12.573  22.371  0.00  0.00    +0.000 C 
ATOM     11  C   UNL     1      -1.606  12.661  22.929  0.00  0.00    +0.000 C 
ATOM     12  C   UNL     1      -0.547  11.999  22.012  0.00  0.00    +0.000 C 
BRANCH   7  14
ATOM     13  C   UNL     1      -0.279  15.092  21.162  0.00  0.00    +0.000 C 
ATOM     14  N   UNL     1       0.098  13.927  20.271  0.00  0.00    +0.000 N 
ATOM     15  C   UNL     1      -0.214  14.324  18.820  0.00  0.00    +0.000 C 
ATOM     16  C   UNL     1       1.617  13.733  20.358  0.00  0.00    +0.000 C 
ENDBRANCH   7  14
ENDBRANCH   6  12
ENDBRANCH   3   6
ENDBRANCH   2   3
ENDBRANCH   1   2
BRANCH   1  17
ATOM     17  C   UNL     1       2.255   7.424  20.005  0.00  0.00    +0.000 C 
BRANCH  17  18
ATOM     18  C   UNL     1       1.869   6.050  20.570  0.00  0.00    +0.000 C 
BRANCH  18  19
ATOM     19  C   UNL     1       1.205   5.118  19.518  0.00  0.00    +0.000 C 
BRANCH  19  20
ATOM     20  C   UNL     1       0.896   3.731  20.112  0.00  0.00    +0.000 C 
BRANCH  20  21
ATOM     21  C   UNL     1       1.004   2.581  19.097  0.00  0.00    +0.000 C 
BRANCH  21  22
ATOM     22  C   UNL     1       2.308   1.795  19.270  0.00  0.00    +0.000 C 
BRANCH  22  23
ATOM     23  C   UNL     1       3.290   2.502  20.204  0.00  0.00    +0.000 C 
BRANCH  23  24
ATOM     24  C   UNL     1       4.471   3.120  19.449  0.00  0.00    +0.000 C 
BRANCH  24  25
ATOM     25  C   UNL     1       4.152   3.287  17.965  0.00  0.00    +0.000 C 
BRANCH  25  26
ATOM     26  C   UNL     1       4.395   4.695  17.492  0.00  0.00    +0.000 C 
ATOM     27  C   UNL     1       5.257   5.581  18.029  0.00  0.00    +0.000 C 
ATOM     28  C   UNL     1       6.189   5.291  19.182  0.00  0.00    +0.000 C 
ATOM     29  C   UNL     1       7.639   5.552  18.770  0.00  0.00    +0.000 C 
ATOM     30  C   UNL     1       7.827   6.963  18.220  0.00  0.00    +0.000 C 
ATOM     31  C   UNL     1       6.860   7.251  17.070  0.00  0.00    +0.000 C 
ATOM     32  C   UNL     1       5.408   6.976  17.467  0.00  0.00    +0.000 C 
ENDBRANCH  25  26
ENDBRANCH  24  25
ENDBRANCH  23  24
ENDBRANCH  22  23
ENDBRANCH  21  22
ENDBRANCH  20  21
ENDBRANCH  19  20
ENDBRANCH  18  19
ENDBRANCH  17  18
ENDBRANCH   1  17
TORSDOF 15
ENDMDL
MODEL 5
REMARK VINA RESULT:      -6.3      4.168     10.625
REMARK  Name = 
REMARK  18 active torsions:
REMARK  status: ('A' for Active; 'I' for Inactive)
REMARK    1  A    between atoms: C_1  and  N_2
REMARK    2  A    between atoms: N_2  and  C_3
REMARK    3  A    between atoms: N_2  and  C_4
REMARK    4  A    between atoms: N_2  and  C_5
REMARK    5  A    between atoms: C_10  and  O_11
REMARK    6  A    between atoms: O_11  and  P_12
REMARK    7  A    between atoms: P_12  and  O_15
REMARK    8  A    between atoms: O_15  and  C_16
REMARK    9  A    between atoms: C_16  and  C_17
REMARK   10  A    between atoms: C_17  and  C_18
REMARK   11  A    between atoms: C_18  and  C_19
REMARK   12  A    between atoms: C_19  and  C_20
REMARK   13  A    between atoms: C_20  and  C_21
REMARK   14  A    between atoms: C_21  and  C_22
REMARK   15  A    between atoms: C_22  and  C_23
REMARK   16  A    between atoms: C_23  and  C_24
REMARK   17  A    between atoms: C_24  and  C_25
REMARK   18  A    between atoms: C_25  and  C_26
REMARK                            x       y       z     vdW  Elec       q    Type
REMARK                         _______ _______ _______ _____ _____    ______ ____
ROOT
ATOM      1  C   UNL     1       4.652   6.431  17.342  0.00  0.00    +0.000 C 
ENDROOT
BRANCH   1   2
ATOM      2  O   UNL     1       5.995   6.359  17.815  0.00  0.00    +0.000 OA
BRANCH   2   3
ATOM      3  P   UNL     1       6.520   4.987  18.524  0.00  0.00    +0.000 P 
ATOM      4  O   UNL     1       6.778   5.261  19.987  0.00  0.00    +0.000 OA
ATOM      5  O   UNL     1       7.532   4.383  17.605  0.00  0.00    +0.000 OA
BRANCH   3   6
ATOM      6  O   UNL     1       5.239   3.985  18.450  0.00  0.00    +0.000 OA
BRANCH   6  12
ATOM      7  C   UNL     1       3.003   4.278  19.177  0.00  0.00    +0.000 C 
ATOM      8  C   UNL     1       2.415   3.716  17.859  0.00  0.00    +0.000 C 
ATOM      9  C   UNL     1       2.355   2.195  17.762  0.00  0.00    +0.000 C 
ATOM     10  C   UNL     1       3.672   1.532  18.128  0.00  0.00    +0.000 C 
ATOM     11  C   UNL     1       4.261   2.056  19.443  0.00  0.00    +0.000 C 
ATOM     12  C   UNL     1       4.361   3.601  19.498  0.00  0.00    +0.000 C 
BRANCH   7  14
ATOM     13  C   UNL     1       1.600   5.765  20.850  0.00  0.00    +0.000 C 
ATOM     14  N   UNL     1       1.948   4.376  20.360  0.00  0.00    +0.000 N 
ATOM     15  C   UNL     1       2.504   3.583  21.552  0.00  0.00    +0.000 C 
ATOM     16  C   UNL     1       0.649   3.680  19.935  0.00  0.00    +0.000 C 
ENDBRANCH   7  14
ENDBRANCH   6  12
ENDBRANCH   3   6
ENDBRANCH   2   3
ENDBRANCH   1   2
BRANCH   1  17
ATOM     17  C   UNL     1       3.865   7.772  17.391  0.00  0.00    +0.000 C 
BRANCH  17  18
ATOM     18  C   UNL     1       2.350   7.718  17.639  0.00  0.00    +0.000 C 
BRANCH  18  19
ATOM     19  C   UNL     1       1.725   9.114  17.915  0.00  0.00    +0.000 C 
BRANCH  19  20
ATOM     20  C   UNL     1       1.558   9.366  19.425  0.00  0.00    +0.000 C 
BRANCH  20  21
ATOM     21  C   UNL     1       0.692  10.591  19.761  0.00  0.00    +0.000 C 
BRANCH  21  22
ATOM     22  C   UNL     1      -0.614  10.189  20.454  0.00  0.00    +0.000 C 
BRANCH  22  23
ATOM     23  C   UNL     1      -0.368   9.495  21.794  0.00  0.00    +0.000 C 
BRANCH  23  24
ATOM     24  C   UNL     1      -0.708  10.393  22.987  0.00  0.00    +0.000 C 
BRANCH  24  25
ATOM     25  C   UNL     1      -1.482  11.632  22.543  0.00  0.00    +0.000 C 
BRANCH  25  26
ATOM     26  C   UNL     1      -2.568  11.999  23.519  0.00  0.00    +0.000 C 
ATOM     27  C   UNL     1      -3.689  12.693  23.243  0.00  0.00    +0.000 C 
ATOM     28  C   UNL     1      -4.087  13.183  21.870  0.00  0.00    +0.000 C 
ATOM     29  C   UNL     1      -5.460  12.627  21.487  0.00  0.00    +0.000 C 
ATOM     30  C   UNL     1      -6.516  12.950  22.540  0.00  0.00    +0.000 C 
ATOM     31  C   UNL     1      -6.088  12.472  23.929  0.00  0.00    +0.000 C 
ATOM     32  C   UNL     1      -4.708  13.007  24.314  0.00  0.00    +0.000 C 
ENDBRANCH  25  26
ENDBRANCH  24  25
ENDBRANCH  23  24
ENDBRANCH  22  23
ENDBRANCH  21  22
ENDBRANCH  20  21
ENDBRANCH  19  20
ENDBRANCH  18  19
ENDBRANCH  17  18
ENDBRANCH   1  17
TORSDOF 15
ENDMDL
MODEL 6
REMARK VINA RESULT:      -6.2      1.589      4.286
REMARK  Name = 
REMARK  18 active torsions:
REMARK  status: ('A' for Active; 'I' for Inactive)
REMARK    1  A    between atoms: C_1  and  N_2
REMARK    2  A    between atoms: N_2  and  C_3
REMARK    3  A    between atoms: N_2  and  C_4
REMARK    4  A    between atoms: N_2  and  C_5
REMARK    5  A    between atoms: C_10  and  O_11
REMARK    6  A    between atoms: O_11  and  P_12
REMARK    7  A    between atoms: P_12  and  O_15
REMARK    8  A    between atoms: O_15  and  C_16
REMARK    9  A    between atoms: C_16  and  C_17
REMARK   10  A    between atoms: C_17  and  C_18
REMARK   11  A    between atoms: C_18  and  C_19
REMARK   12  A    between atoms: C_19  and  C_20
REMARK   13  A    between atoms: C_20  and  C_21
REMARK   14  A    between atoms: C_21  and  C_22
REMARK   15  A    between atoms: C_22  and  C_23
REMARK   16  A    between atoms: C_23  and  C_24
REMARK   17  A    between atoms: C_24  and  C_25
REMARK   18  A    between atoms: C_25  and  C_26
REMARK                            x       y       z     vdW  Elec       q    Type
REMARK                         _______ _______ _______ _____ _____    ______ ____
ROOT
ATOM      1  C   UNL     1       1.979   7.923  20.777  0.00  0.00    +0.000 C 
ENDROOT
BRANCH   1   2
ATOM      2  O   UNL     1       0.955   8.902  20.618  0.00  0.00    +0.000 OA
BRANCH   2   3
ATOM      3  P   UNL     1       0.090   9.373  21.918  0.00  0.00    +0.000 P 
ATOM      4  O   UNL     1       1.034   9.938  22.954  0.00  0.00    +0.000 OA
ATOM      5  O   UNL     1      -0.894   8.285  22.201  0.00  0.00    +0.000 OA
BRANCH   3   6
ATOM      6  O   UNL     1      -0.808  10.616  21.370  0.00  0.00    +0.000 OA
BRANCH   6  12
ATOM      7  C   UNL     1       0.401  11.888  19.778  0.00  0.00    +0.000 C 
ATOM      8  C   UNL     1      -0.521  11.455  18.611  0.00  0.00    +0.000 C 
ATOM      9  C   UNL     1      -1.826  12.232  18.481  0.00  0.00    +0.000 C 
ATOM     10  C   UNL     1      -2.580  12.337  19.796  0.00  0.00    +0.000 C 
ATOM     11  C   UNL     1      -1.691  12.787  20.961  0.00  0.00    +0.000 C 
ATOM     12  C   UNL     1      -0.396  11.950  21.106  0.00  0.00    +0.000 C 
BRANCH   7  14
ATOM     13  C   UNL     1       0.633  14.412  19.032  0.00  0.00    +0.000 C 
ATOM     14  N   UNL     1       1.329  13.130  19.435  0.00  0.00    +0.000 N 
ATOM     15  C   UNL     1       2.259  12.718  18.283  0.00  0.00    +0.000 C 
ATOM     16  C   UNL     1       2.228  13.434  20.640  0.00  0.00    +0.000 C 
ENDBRANCH   7  14
ENDBRANCH   6  12
ENDBRANCH   3   6
ENDBRANCH   2   3
ENDBRANCH   1   2
BRANCH   1  17
ATOM     17  C   UNL     1       2.048   6.686  19.837  0.00  0.00    +0.000 C 
BRANCH  17  18
ATOM     18  C   UNL     1       3.313   6.484  18.991  0.00  0.00    +0.000 C 
BRANCH  18  19
ATOM     19  C   UNL     1       3.352   7.382  17.722  0.00  0.00    +0.000 C 
BRANCH  19  20
ATOM     20  C   UNL     1       4.387   6.868  16.703  0.00  0.00    +0.000 C 
BRANCH  20  21
ATOM     21  C   UNL     1       5.846   7.044  17.153  0.00  0.00    +0.000 C 
BRANCH  21  22
ATOM     22  C   UNL     1       6.772   6.025  16.482  0.00  0.00    +0.000 C 
BRANCH  22  23
ATOM     23  C   UNL     1       7.073   4.831  17.389  0.00  0.00    +0.000 C 
BRANCH  23  24
ATOM     24  C   UNL     1       6.716   5.106  18.852  0.00  0.00    +0.000 C 
BRANCH  24  25
ATOM     25  C   UNL     1       5.847   3.991  19.429  0.00  0.00    +0.000 C 
BRANCH  25  26
ATOM     26  C   UNL     1       4.712   3.628  18.511  0.00  0.00    +0.000 C 
ATOM     27  C   UNL     1       3.579   2.985  18.857  0.00  0.00    +0.000 C 
ATOM     28  C   UNL     1       3.219   2.563  20.263  0.00  0.00    +0.000 C 
ATOM     29  C   UNL     1       1.882   3.182  20.676  0.00  0.00    +0.000 C 
ATOM     30  C   UNL     1       0.775   2.857  19.677  0.00  0.00    +0.000 C 
ATOM     31  C   UNL     1       1.163   3.267  18.255  0.00  0.00    +0.000 C 
ATOM     32  C   UNL     1       2.508   2.668  17.839  0.00  0.00    +0.000 C 
ENDBRANCH  25  26
ENDBRANCH  24  25
ENDBRANCH  23  24
ENDBRANCH  22  23
ENDBRANCH  21  22
ENDBRANCH  20  21
ENDBRANCH  19  20
ENDBRANCH  18  19
ENDBRANCH  17  18
ENDBRANCH   1  17
TORSDOF 15
ENDMDL
MODEL 7
REMARK VINA RESULT:      -6.2      6.923      9.090
REMARK  Name = 
REMARK  18 active torsions:
REMARK  status: ('A' for Active; 'I' for Inactive)
REMARK    1  A    between atoms: C_1  and  N_2
REMARK    2  A    between atoms: N_2  and  C_3
REMARK    3  A    between atoms: N_2  and  C_4
REMARK    4  A    between atoms: N_2  and  C_5
REMARK    5  A    between atoms: C_10  and  O_11
REMARK    6  A    between atoms: O_11  and  P_12
REMARK    7  A    between atoms: P_12  and  O_15
REMARK    8  A    between atoms: O_15  and  C_16
REMARK    9  A    between atoms: C_16  and  C_17
REMARK   10  A    between atoms: C_17  and  C_18
REMARK   11  A    between atoms: C_18  and  C_19
REMARK   12  A    between atoms: C_19  and  C_20
REMARK   13  A    between atoms: C_20  and  C_21
REMARK   14  A    between atoms: C_21  and  C_22
REMARK   15  A    between atoms: C_22  and  C_23
REMARK   16  A    between atoms: C_23  and  C_24
REMARK   17  A    between atoms: C_24  and  C_25
REMARK   18  A    between atoms: C_25  and  C_26
REMARK                            x       y       z     vdW  Elec       q    Type
REMARK                         _______ _______ _______ _____ _____    ______ ____
ROOT
ATOM      1  C   UNL     1       8.679  12.455  17.920  0.00  0.00    +0.000 C 
ENDROOT
BRANCH   1   2
ATOM      2  O   UNL     1       9.557  13.543  17.643  0.00  0.00    +0.000 OA
BRANCH   2   3
ATOM      3  P   UNL     1       9.221  15.017  18.255  0.00  0.00    +0.000 P 
ATOM      4  O   UNL     1       8.082  15.625  17.468  0.00  0.00    +0.000 OA
ATOM      5  O   UNL     1      10.529  15.702  18.479  0.00  0.00    +0.000 OA
BRANCH   3   6
ATOM      6  O   UNL     1       8.650  14.708  19.748  0.00  0.00    +0.000 OA
BRANCH   6  12
ATOM      7  C   UNL     1       8.112  14.826  22.052  0.00  0.00    +0.000 C 
ATOM      8  C   UNL     1       7.730  13.327  22.123  0.00  0.00    +0.000 C 
ATOM      9  C   UNL     1       8.896  12.358  22.280  0.00  0.00    +0.000 C 
ATOM     10  C   UNL     1      10.011  12.616  21.280  0.00  0.00    +0.000 C 
ATOM     11  C   UNL     1      10.423  14.091  21.210  0.00  0.00    +0.000 C 
ATOM     12  C   UNL     1       9.227  15.053  20.999  0.00  0.00    +0.000 C 
BRANCH   7  14
ATOM     13  C   UNL     1       9.716  15.959  23.821  0.00  0.00    +0.000 C 
ATOM     14  N   UNL     1       8.314  15.505  23.474  0.00  0.00    +0.000 N 
ATOM     15  C   UNL     1       7.868  14.497  24.544  0.00  0.00    +0.000 C 
ATOM     16  C   UNL     1       7.379  16.714  23.591  0.00  0.00    +0.000 C 
ENDBRANCH   7  14
ENDBRANCH   6  12
ENDBRANCH   3   6
ENDBRANCH   2   3
ENDBRANCH   1   2
BRANCH   1  17
ATOM     17  C   UNL     1       9.184  10.986  17.837  0.00  0.00    +0.000 C 
BRANCH  17  18
ATOM     18  C   UNL     1       8.913  10.053  19.025  0.00  0.00    +0.000 C 
BRANCH  18  19
ATOM     19  C   UNL     1       8.770   8.562  18.614  0.00  0.00    +0.000 C 
BRANCH  19  20
ATOM     20  C   UNL     1       7.595   8.359  17.637  0.00  0.00    +0.000 C 
BRANCH  20  21
ATOM     21  C   UNL     1       7.248   6.884  17.378  0.00  0.00    +0.000 C 
BRANCH  21  22
ATOM     22  C   UNL     1       5.751   6.693  17.115  0.00  0.00    +0.000 C 
BRANCH  22  23
ATOM     23  C   UNL     1       5.482   5.988  15.785  0.00  0.00    +0.000 C 
BRANCH  23  24
ATOM     24  C   UNL     1       5.098   4.518  15.972  0.00  0.00    +0.000 C 
BRANCH  24  25
ATOM     25  C   UNL     1       4.758   4.215  17.429  0.00  0.00    +0.000 C 
BRANCH  25  26
ATOM     26  C   UNL     1       3.282   4.013  17.635  0.00  0.00    +0.000 C 
ATOM     27  C   UNL     1       2.704   3.224  18.563  0.00  0.00    +0.000 C 
ATOM     28  C   UNL     1       3.451   2.437  19.615  0.00  0.00    +0.000 C 
ATOM     29  C   UNL     1       2.972   2.834  21.012  0.00  0.00    +0.000 C 
ATOM     30  C   UNL     1       1.460   2.692  21.154  0.00  0.00    +0.000 C 
ATOM     31  C   UNL     1       0.717   3.473  20.068  0.00  0.00    +0.000 C 
ATOM     32  C   UNL     1       1.202   3.097  18.667  0.00  0.00    +0.000 C 
ENDBRANCH  25  26
ENDBRANCH  24  25
ENDBRANCH  23  24
ENDBRANCH  22  23
ENDBRANCH  21  22
ENDBRANCH  20  21
ENDBRANCH  19  20
ENDBRANCH  18  19
ENDBRANCH  17  18
ENDBRANCH   1  17
TORSDOF 15
ENDMDL
MODEL 8
REMARK VINA RESULT:      -6.2      1.081      3.764
REMARK  Name = 
REMARK  18 active torsions:
REMARK  status: ('A' for Active; 'I' for Inactive)
REMARK    1  A    between atoms: C_1  and  N_2
REMARK    2  A    between atoms: N_2  and  C_3
REMARK    3  A    between atoms: N_2  and  C_4
REMARK    4  A    between atoms: N_2  and  C_5
REMARK    5  A    between atoms: C_10  and  O_11
REMARK    6  A    between atoms: O_11  and  P_12
REMARK    7  A    between atoms: P_12  and  O_15
REMARK    8  A    between atoms: O_15  and  C_16
REMARK    9  A    between atoms: C_16  and  C_17
REMARK   10  A    between atoms: C_17  and  C_18
REMARK   11  A    between atoms: C_18  and  C_19
REMARK   12  A    between atoms: C_19  and  C_20
REMARK   13  A    between atoms: C_20  and  C_21
REMARK   14  A    between atoms: C_21  and  C_22
REMARK   15  A    between atoms: C_22  and  C_23
REMARK   16  A    between atoms: C_23  and  C_24
REMARK   17  A    between atoms: C_24  and  C_25
REMARK   18  A    between atoms: C_25  and  C_26
REMARK                            x       y       z     vdW  Elec       q    Type
REMARK                         _______ _______ _______ _____ _____    ______ ____
ROOT
ATOM      1  C   UNL     1       1.666   7.932  20.404  0.00  0.00    +0.000 C 
ENDROOT
BRANCH   1   2
ATOM      2  O   UNL     1       1.122   9.209  20.734  0.00  0.00    +0.000 OA
BRANCH   2   3
ATOM      3  P   UNL     1       0.758   9.545  22.288  0.00  0.00    +0.000 P 
ATOM      4  O   UNL     1       2.002   9.375  23.128  0.00  0.00    +0.000 OA
ATOM      5  O   UNL     1      -0.540   8.868  22.584  0.00  0.00    +0.000 OA
BRANCH   3   6
ATOM      6  O   UNL     1       0.408  11.135  22.280  0.00  0.00    +0.000 OA
BRANCH   6  12
ATOM      7  C   UNL     1      -1.259  11.681  20.687  0.00  0.00    +0.000 C 
ATOM      8  C   UNL     1      -2.283  12.086  21.776  0.00  0.00    +0.000 C 
ATOM      9  C   UNL     1      -2.126  13.496  22.334  0.00  0.00    +0.000 C 
ATOM     10  C   UNL     1      -0.698  13.806  22.750  0.00  0.00    +0.000 C 
ATOM     11  C   UNL     1       0.332  13.435  21.676  0.00  0.00    +0.000 C 
ATOM     12  C   UNL     1       0.186  11.981  21.161  0.00  0.00    +0.000 C 
BRANCH   7  14
ATOM     13  C   UNL     1      -1.040  13.459  18.745  0.00  0.00    +0.000 C 
ATOM     14  N   UNL     1      -1.653  12.161  19.225  0.00  0.00    +0.000 N 
ATOM     15  C   UNL     1      -3.181  12.317  19.178  0.00  0.00    +0.000 C 
ATOM     16  C   UNL     1      -1.291  11.062  18.219  0.00  0.00    +0.000 C 
ENDBRANCH   7  14
ENDBRANCH   6  12
ENDBRANCH   3   6
ENDBRANCH   2   3
ENDBRANCH   1   2
BRANCH   1  17
ATOM     17  C   UNL     1       1.952   7.551  18.923  0.00  0.00    +0.000 C 
BRANCH  17  18
ATOM     18  C   UNL     1       2.643   6.210  18.637  0.00  0.00    +0.000 C 
BRANCH  18  19
ATOM     19  C   UNL     1       4.193   6.293  18.701  0.00  0.00    +0.000 C 
BRANCH  19  20
ATOM     20  C   UNL     1       4.768   7.029  17.476  0.00  0.00    +0.000 C 
BRANCH  20  21
ATOM     21  C   UNL     1       6.292   6.897  17.328  0.00  0.00    +0.000 C 
BRANCH  21  22
ATOM     22  C   UNL     1       6.671   5.746  16.390  0.00  0.00    +0.000 C 
BRANCH  22  23
ATOM     23  C   UNL     1       5.535   5.382  15.433  0.00  0.00    +0.000 C 
BRANCH  23  24
ATOM     24  C   UNL     1       5.162   3.899  15.508  0.00  0.00    +0.000 C 
BRANCH  24  25
ATOM     25  C   UNL     1       4.893   3.468  16.948  0.00  0.00    +0.000 C 
BRANCH  25  26
ATOM     26  C   UNL     1       3.442   3.142  17.178  0.00  0.00    +0.000 C 
ATOM     27  C   UNL     1       2.906   2.639  18.308  0.00  0.00    +0.000 C 
ATOM     28  C   UNL     1       3.670   2.368  19.583  0.00  0.00    +0.000 C 
ATOM     29  C   UNL     1       3.051   3.142  20.747  0.00  0.00    +0.000 C 
ATOM     30  C   UNL     1       1.562   2.845  20.897  0.00  0.00    +0.000 C 
ATOM     31  C   UNL     1       0.804   3.099  19.592  0.00  0.00    +0.000 C 
ATOM     32  C   UNL     1       1.427   2.344  18.417  0.00  0.00    +0.000 C 
ENDBRANCH  25  26
ENDBRANCH  24  25
ENDBRANCH  23  24
ENDBRANCH  22  23
ENDBRANCH  21  22
ENDBRANCH  20  21
ENDBRANCH  19  20
ENDBRANCH  18  19
ENDBRANCH  17  18
ENDBRANCH   1  17
TORSDOF 15
ENDMDL
MODEL 9
REMARK VINA RESULT:      -6.2      1.233      1.795
REMARK  Name = 
REMARK  18 active torsions:
REMARK  status: ('A' for Active; 'I' for Inactive)
REMARK    1  A    between atoms: C_1  and  N_2
REMARK    2  A    between atoms: N_2  and  C_3
REMARK    3  A    between atoms: N_2  and  C_4
REMARK    4  A    between atoms: N_2  and  C_5
REMARK    5  A    between atoms: C_10  and  O_11
REMARK    6  A    between atoms: O_11  and  P_12
REMARK    7  A    between atoms: P_12  and  O_15
REMARK    8  A    between atoms: O_15  and  C_16
REMARK    9  A    between atoms: C_16  and  C_17
REMARK   10  A    between atoms: C_17  and  C_18
REMARK   11  A    between atoms: C_18  and  C_19
REMARK   12  A    between atoms: C_19  and  C_20
REMARK   13  A    between atoms: C_20  and  C_21
REMARK   14  A    between atoms: C_21  and  C_22
REMARK   15  A    between atoms: C_22  and  C_23
REMARK   16  A    between atoms: C_23  and  C_24
REMARK   17  A    between atoms: C_24  and  C_25
REMARK   18  A    between atoms: C_25  and  C_26
REMARK                            x       y       z     vdW  Elec       q    Type
REMARK                         _______ _______ _______ _____ _____    ______ ____
ROOT
ATOM      1  C   UNL     1       1.164   7.658  20.396  0.00  0.00    +0.000 C 
ENDROOT
BRANCH   1   2
ATOM      2  O   UNL     1       1.324   8.886  21.104  0.00  0.00    +0.000 OA
BRANCH   2   3
ATOM      3  P   UNL     1       0.190   9.339  22.186  0.00  0.00    +0.000 P 
ATOM      4  O   UNL     1       0.875   9.758  23.465  0.00  0.00    +0.000 OA
ATOM      5  O   UNL     1      -0.898   8.316  22.127  0.00  0.00    +0.000 OA
BRANCH   3   6
ATOM      6  O   UNL     1      -0.464  10.682  21.538  0.00  0.00    +0.000 OA
BRANCH   6  12
ATOM      7  C   UNL     1      -0.490  12.862  20.610  0.00  0.00    +0.000 C 
ATOM      8  C   UNL     1      -1.975  12.753  20.188  0.00  0.00    +0.000 C 
ATOM      9  C   UNL     1      -2.994  13.034  21.287  0.00  0.00    +0.000 C 
ATOM     10  C   UNL     1      -2.706  12.264  22.565  0.00  0.00    +0.000 C 
ATOM     11  C   UNL     1      -1.244  12.376  23.015  0.00  0.00    +0.000 C 
ATOM     12  C   UNL     1      -0.228  12.036  21.896  0.00  0.00    +0.000 C 
BRANCH   7  14
ATOM     13  C   UNL     1      -0.311  15.252  21.723  0.00  0.00    +0.000 C 
ATOM     14  N   UNL     1       0.080  14.343  20.577  0.00  0.00    +0.000 N 
ATOM     15  C   UNL     1      -0.396  15.001  19.272  0.00  0.00    +0.000 C 
ATOM     16  C   UNL     1       1.612  14.293  20.510  0.00  0.00    +0.000 C 
ENDBRANCH   7  14
ENDBRANCH   6  12
ENDBRANCH   3   6
ENDBRANCH   2   3
ENDBRANCH   1   2
BRANCH   1  17
ATOM     17  C   UNL     1       2.374   6.990  19.683  0.00  0.00    +0.000 C 
BRANCH  17  18
ATOM     18  C   UNL     1       2.886   5.647  20.223  0.00  0.00    +0.000 C 
BRANCH  18  19
ATOM     19  C   UNL     1       1.877   4.942  21.171  0.00  0.00    +0.000 C 
BRANCH  19  20
ATOM     20  C   UNL     1       2.429   3.595  21.676  0.00  0.00    +0.000 C 
BRANCH  20  21
ATOM     21  C   UNL     1       2.343   2.460  20.642  0.00  0.00    +0.000 C 
BRANCH  21  22
ATOM     22  C   UNL     1       0.941   2.356  20.032  0.00  0.00    +0.000 C 
BRANCH  22  23
ATOM     23  C   UNL     1       0.924   2.747  18.554  0.00  0.00    +0.000 C 
BRANCH  23  24
ATOM     24  C   UNL     1       2.232   2.391  17.841  0.00  0.00    +0.000 C 
BRANCH  24  25
ATOM     25  C   UNL     1       2.726   3.551  16.979  0.00  0.00    +0.000 C 
BRANCH  25  26
ATOM     26  C   UNL     1       3.976   4.175  17.537  0.00  0.00    +0.000 C 
ATOM     27  C   UNL     1       5.202   4.147  16.977  0.00  0.00    +0.000 C 
ATOM     28  C   UNL     1       5.527   3.524  15.639  0.00  0.00    +0.000 C 
ATOM     29  C   UNL     1       6.153   4.564  14.709  0.00  0.00    +0.000 C 
ATOM     30  C   UNL     1       7.370   5.231  15.342  0.00  0.00    +0.000 C 
ATOM     31  C   UNL     1       7.033   5.835  16.707  0.00  0.00    +0.000 C 
ATOM     32  C   UNL     1       6.389   4.807  17.639  0.00  0.00    +0.000 C 
ENDBRANCH  25  26
ENDBRANCH  24  25
ENDBRANCH  23  24
ENDBRANCH  22  23
ENDBRANCH  21  22
ENDBRANCH  20  21
ENDBRANCH  19  20
ENDBRANCH  18  19
ENDBRANCH  17  18
ENDBRANCH   1  17
TORSDOF 15
ENDMDL
