MODEL 1
REMARK VINA RESULT:      -7.9      0.000      0.000
REMARK  Name = 
REMARK  9 active torsions:
REMARK  status: ('A' for Active; 'I' for Inactive)
REMARK    1  A    between atoms: C_1  and  C_2
REMARK    2  A    between atoms: C_2  and  C_3
REMARK    3  A    between atoms: C_2  and  C_4
REMARK    4  A    between atoms: C_4  and  O_5
REMARK    5  A    between atoms: O_5  and  C_6
REMARK    6  A    between atoms: C_9  and  C_10
REMARK    7  A    between atoms: C_13  and  C_14
REMARK    8  A    between atoms: C_14  and  O_16
REMARK    9  A    between atoms: C_21  and  N_22
REMARK                            x       y       z     vdW  Elec       q    Type
REMARK                         _______ _______ _______ _____ _____    ______ ____
ROOT
ATOM      1  C   UNL     1       1.133   9.712  19.003  0.00  0.00    +0.000 A 
ATOM      2  C   UNL     1       1.766   9.066  17.929  0.00  0.00    +0.000 A 
ATOM      3  C   UNL     1       2.325   7.804  18.060  0.00  0.00    +0.000 A 
ATOM      4  C   UNL     1       2.294   7.154  19.291  0.00  0.00    +0.000 A 
ATOM      5  C   UNL     1       1.650   7.761  20.375  0.00  0.00    +0.000 A 
ATOM      6  C   UNL     1       1.062   9.046  20.245  0.00  0.00    +0.000 A 
ENDROOT
BRANCH   4   7
ATOM      7  C   UNL     1       2.910   5.811  19.403  0.00  0.00    +0.000 A 
ATOM      8  N   UNL     1       4.144   5.593  19.080  0.00  0.00    +0.000 NA
ATOM      9  C   UNL     1       4.640   4.329  19.297  0.00  0.00    +0.000 A 
ATOM     10  C   UNL     1       3.955   3.302  19.823  0.00  0.00    +0.000 A 
ATOM     11  C   UNL     1       2.551   3.558  20.146  0.00  0.00    +0.000 A 
ATOM     12  O   UNL     1       1.833   2.689  20.632  0.00  0.00    +0.000 OA
ATOM     13  N   UNL     1       2.095   4.815  19.891  0.00  0.00    +0.000 N 
ATOM     14  H   UNL     1       1.118   4.970  20.089  0.00  0.00    +0.000 HD
BRANCH  10  15
ATOM     15  C   UNL     1       4.612   2.002  20.061  0.00  0.00    +0.000 C 
ATOM     16  O   UNL     1       5.173   1.716  21.106  0.00  0.00    +0.000 OA
BRANCH  15  17
ATOM     17  O   UNL     1       4.533   1.132  19.030  0.00  0.00    +0.000 OA
ATOM     18  H   UNL     1       3.854   1.353  18.348  0.00  0.00    +0.000 HD
ENDBRANCH  15  17
ENDBRANCH  10  15
ENDBRANCH   4   7
BRANCH   6  19
ATOM     19  N   UNL     1       0.441   9.610  21.401  0.00  0.00    +0.000 N 
ATOM     20  C   UNL     1      -0.483   9.084  22.278  0.00  0.00    +0.000 A 
ATOM     21  C   UNL     1      -0.804  10.114  23.126  0.00  0.00    +0.000 A 
ATOM     22  N   UNL     1      -0.055  11.204  22.819  0.00  0.00    +0.000 NA
ATOM     23  N   UNL     1       0.720  10.886  21.792  0.00  0.00    +0.000 NA
ENDBRANCH   6  19
BRANCH   1  24
ATOM     24  O   UNL     1       0.607  10.971  18.859  0.00  0.00    +0.000 OA
BRANCH  24  25
ATOM     25  C   UNL     1      -0.722  11.044  18.329  0.00  0.00    +0.000 C 
BRANCH  25  27
ATOM     26  C   UNL     1      -2.038  12.391  20.000  0.00  0.00    +0.000 C 
ATOM     27  C   UNL     1      -1.371  12.394  18.627  0.00  0.00    +0.000 C 
ATOM     28  C   UNL     1      -0.302  13.487  18.546  0.00  0.00    +0.000 C 
ENDBRANCH  25  27
ENDBRANCH  24  25
ENDBRANCH   1  24
TORSDOF 7
ENDMDL
MODEL 2
REMARK VINA RESULT:      -7.9      0.763      1.477
REMARK  Name = 
REMARK  9 active torsions:
REMARK  status: ('A' for Active; 'I' for Inactive)
REMARK    1  A    between atoms: C_1  and  C_2
REMARK    2  A    between atoms: C_2  and  C_3
REMARK    3  A    between atoms: C_2  and  C_4
REMARK    4  A    between atoms: C_4  and  O_5
REMARK    5  A    between atoms: O_5  and  C_6
REMARK    6  A    between atoms: C_9  and  C_10
REMARK    7  A    between atoms: C_13  and  C_14
REMARK    8  A    between atoms: C_14  and  O_16
REMARK    9  A    between atoms: C_21  and  N_22
REMARK                            x       y       z     vdW  Elec       q    Type
REMARK                         _______ _______ _______ _____ _____    ______ ____
ROOT
ATOM      1  C   UNL     1       1.255   9.797  19.020  0.00  0.00    +0.000 A 
ATOM      2  C   UNL     1       1.907   9.136  17.967  0.00  0.00    +0.000 A 
ATOM      3  C   UNL     1       2.374   7.837  18.095  0.00  0.00    +0.000 A 
ATOM      4  C   UNL     1       2.228   7.162  19.302  0.00  0.00    +0.000 A 
ATOM      5  C   UNL     1       1.561   7.783  20.364  0.00  0.00    +0.000 A 
ATOM      6  C   UNL     1       1.067   9.107  20.236  0.00  0.00    +0.000 A 
ENDROOT
BRANCH   4   7
ATOM      7  C   UNL     1       2.748   5.778  19.412  0.00  0.00    +0.000 A 
ATOM      8  N   UNL     1       1.968   4.766  19.622  0.00  0.00    +0.000 NA
ATOM      9  C   UNL     1       2.542   3.517  19.629  0.00  0.00    +0.000 A 
ATOM     10  C   UNL     1       3.843   3.255  19.428  0.00  0.00    +0.000 A 
ATOM     11  C   UNL     1       4.714   4.414  19.231  0.00  0.00    +0.000 A 
ATOM     12  O   UNL     1       5.920   4.289  19.039  0.00  0.00    +0.000 OA
ATOM     13  N   UNL     1       4.108   5.633  19.258  0.00  0.00    +0.000 N 
ATOM     14  H   UNL     1       4.723   6.425  19.152  0.00  0.00    +0.000 HD
BRANCH  10  15
ATOM     15  C   UNL     1       4.335   1.864  19.402  0.00  0.00    +0.000 C 
ATOM     16  O   UNL     1       3.912   1.017  18.632  0.00  0.00    +0.000 OA
BRANCH  15  17
ATOM     17  O   UNL     1       5.314   1.594  20.294  0.00  0.00    +0.000 OA
ATOM     18  H   UNL     1       5.032   1.609  21.241  0.00  0.00    +0.000 HD
ENDBRANCH  15  17
ENDBRANCH  10  15
ENDBRANCH   4   7
BRANCH   6  19
ATOM     19  N   UNL     1       0.416   9.683  21.371  0.00  0.00    +0.000 N 
ATOM     20  C   UNL     1      -0.563   9.182  22.202  0.00  0.00    +0.000 A 
ATOM     21  C   UNL     1      -0.885  10.216  23.045  0.00  0.00    +0.000 A 
ATOM     22  N   UNL     1      -0.086  11.281  22.781  0.00  0.00    +0.000 NA
ATOM     23  N   UNL     1       0.722  10.945  21.785  0.00  0.00    +0.000 NA
ENDBRANCH   6  19
BRANCH   1  24
ATOM     24  O   UNL     1       0.820  11.091  18.882  0.00  0.00    +0.000 OA
BRANCH  24  25
ATOM     25  C   UNL     1      -0.555  11.261  18.521  0.00  0.00    +0.000 C 
BRANCH  25  27
ATOM     26  C   UNL     1      -2.102  12.665  19.927  0.00  0.00    +0.000 C 
ATOM     27  C   UNL     1      -1.044  12.676  18.827  0.00  0.00    +0.000 C 
ATOM     28  C   UNL     1       0.154  13.536  19.235  0.00  0.00    +0.000 C 
ENDBRANCH  25  27
ENDBRANCH  24  25
ENDBRANCH   1  24
TORSDOF 7
ENDMDL
MODEL 3
REMARK VINA RESULT:      -7.8      1.000      1.641
REMARK  Name = 
REMARK  9 active torsions:
REMARK  status: ('A' for Active; 'I' for Inactive)
REMARK    1  A    between atoms: C_1  and  C_2
REMARK    2  A    between atoms: C_2  and  C_3
REMARK    3  A    between atoms: C_2  and  C_4
REMARK    4  A    between atoms: C_4  and  O_5
REMARK    5  A    between atoms: O_5  and  C_6
REMARK    6  A    between atoms: C_9  and  C_10
REMARK    7  A    between atoms: C_13  and  C_14
REMARK    8  A    between atoms: C_14  and  O_16
REMARK    9  A    between atoms: C_21  and  N_22
REMARK                            x       y       z     vdW  Elec       q    Type
REMARK                         _______ _______ _______ _____ _____    ______ ____
ROOT
ATOM      1  C   UNL     1       1.211   9.662  18.993  0.00  0.00    +0.000 A 
ATOM      2  C   UNL     1       1.862   8.958  17.967  0.00  0.00    +0.000 A 
ATOM      3  C   UNL     1       2.394   7.694  18.170  0.00  0.00    +0.000 A 
ATOM      4  C   UNL     1       2.318   7.101  19.427  0.00  0.00    +0.000 A 
ATOM      5  C   UNL     1       1.656   7.766  20.465  0.00  0.00    +0.000 A 
ATOM      6  C   UNL     1       1.095   9.054  20.260  0.00  0.00    +0.000 A 
ENDROOT
BRANCH   4   7
ATOM      7  C   UNL     1       2.908   5.754  19.616  0.00  0.00    +0.000 A 
ATOM      8  N   UNL     1       2.243   4.785  20.158  0.00  0.00    +0.000 NA
ATOM      9  C   UNL     1       2.855   3.555  20.215  0.00  0.00    +0.000 A 
ATOM     10  C   UNL     1       4.081   3.270  19.749  0.00  0.00    +0.000 A 
ATOM     11  C   UNL     1       4.831   4.388  19.175  0.00  0.00    +0.000 A 
ATOM     12  O   UNL     1       5.961   4.240  18.719  0.00  0.00    +0.000 OA
ATOM     13  N   UNL     1       4.197   5.594  19.163  0.00  0.00    +0.000 N 
ATOM     14  H   UNL     1       4.736   6.362  18.793  0.00  0.00    +0.000 HD
BRANCH  10  15
ATOM     15  C   UNL     1       4.612   1.895  19.816  0.00  0.00    +0.000 C 
ATOM     16  O   UNL     1       5.302   1.487  20.737  0.00  0.00    +0.000 OA
BRANCH  15  17
ATOM     17  O   UNL     1       4.261   1.102  18.780  0.00  0.00    +0.000 OA
ATOM     18  H   UNL     1       3.525   1.448  18.219  0.00  0.00    +0.000 HD
ENDBRANCH  15  17
ENDBRANCH  10  15
ENDBRANCH   4   7
BRANCH   6  19
ATOM     19  N   UNL     1       0.453   9.680  21.373  0.00  0.00    +0.000 N 
ATOM     20  C   UNL     1      -0.484   9.200  22.263  0.00  0.00    +0.000 A 
ATOM     21  C   UNL     1      -0.823  10.275  23.046  0.00  0.00    +0.000 A 
ATOM     22  N   UNL     1      -0.072  11.348  22.690  0.00  0.00    +0.000 NA
ATOM     23  N   UNL     1       0.721  10.977  21.696  0.00  0.00    +0.000 NA
ENDBRANCH   6  19
BRANCH   1  24
ATOM     24  O   UNL     1       0.711  10.921  18.778  0.00  0.00    +0.000 OA
BRANCH  24  25
ATOM     25  C   UNL     1       1.674  11.951  18.527  0.00  0.00    +0.000 C 
BRANCH  25  27
ATOM     26  C   UNL     1      -0.472  13.246  18.764  0.00  0.00    +0.000 C 
ATOM     27  C   UNL     1       1.043  13.340  18.601  0.00  0.00    +0.000 C 
ATOM     28  C   UNL     1       1.668  14.107  19.768  0.00  0.00    +0.000 C 
ENDBRANCH  25  27
ENDBRANCH  24  25
ENDBRANCH   1  24
TORSDOF 7
ENDMDL
MODEL 4
REMARK VINA RESULT:      -7.8      1.153      1.322
REMARK  Name = 
REMARK  9 active torsions:
REMARK  status: ('A' for Active; 'I' for Inactive)
REMARK    1  A    between atoms: C_1  and  C_2
REMARK    2  A    between atoms: C_2  and  C_3
REMARK    3  A    between atoms: C_2  and  C_4
REMARK    4  A    between atoms: C_4  and  O_5
REMARK    5  A    between atoms: O_5  and  C_6
REMARK    6  A    between atoms: C_9  and  C_10
REMARK    7  A    between atoms: C_13  and  C_14
REMARK    8  A    between atoms: C_14  and  O_16
REMARK    9  A    between atoms: C_21  and  N_22
REMARK                            x       y       z     vdW  Elec       q    Type
REMARK                         _______ _______ _______ _____ _____    ______ ____
ROOT
ATOM      1  C   UNL     1       1.245   9.898  19.028  0.00  0.00    +0.000 A 
ATOM      2  C   UNL     1       1.904   9.317  17.933  0.00  0.00    +0.000 A 
ATOM      3  C   UNL     1       2.429   8.035  17.991  0.00  0.00    +0.000 A 
ATOM      4  C   UNL     1       2.338   7.299  19.168  0.00  0.00    +0.000 A 
ATOM      5  C   UNL     1       1.667   7.840  20.270  0.00  0.00    +0.000 A 
ATOM      6  C   UNL     1       1.113   9.145  20.214  0.00  0.00    +0.000 A 
ENDROOT
BRANCH   4   7
ATOM      7  C   UNL     1       2.921   5.936  19.203  0.00  0.00    +0.000 A 
ATOM      8  N   UNL     1       4.200   5.737  19.197  0.00  0.00    +0.000 NA
ATOM      9  C   UNL     1       4.636   4.437  19.312  0.00  0.00    +0.000 A 
ATOM     10  C   UNL     1       3.849   3.358  19.438  0.00  0.00    +0.000 A 
ATOM     11  C   UNL     1       2.407   3.601  19.404  0.00  0.00    +0.000 A 
ATOM     12  O   UNL     1       1.596   2.685  19.512  0.00  0.00    +0.000 OA
ATOM     13  N   UNL     1       2.018   4.898  19.263  0.00  0.00    +0.000 N 
ATOM     14  H   UNL     1       1.023   5.049  19.210  0.00  0.00    +0.000 HD
BRANCH  10  15
ATOM     15  C   UNL     1       4.436   2.015  19.611  0.00  0.00    +0.000 C 
ATOM     16  O   UNL     1       5.138   1.707  20.561  0.00  0.00    +0.000 OA
BRANCH  15  17
ATOM     17  O   UNL     1       4.122   1.132  18.637  0.00  0.00    +0.000 OA
ATOM     18  H   UNL     1       4.457   1.365  17.737  0.00  0.00    +0.000 HD
ENDBRANCH  15  17
ENDBRANCH  10  15
ENDBRANCH   4   7
BRANCH   6  19
ATOM     19  N   UNL     1       0.461   9.638  21.386  0.00  0.00    +0.000 N 
ATOM     20  C   UNL     1      -0.660  10.426  21.533  0.00  0.00    +0.000 A 
ATOM     21  C   UNL     1      -0.752  10.678  22.879  0.00  0.00    +0.000 A 
ATOM     22  N   UNL     1       0.237  10.015  23.532  0.00  0.00    +0.000 NA
ATOM     23  N   UNL     1       0.953   9.361  22.628  0.00  0.00    +0.000 NA
ENDBRANCH   6  19
BRANCH   1  24
ATOM     24  O   UNL     1       0.751  11.176  18.959  0.00  0.00    +0.000 OA
BRANCH  24  25
ATOM     25  C   UNL     1       1.722  12.228  18.923  0.00  0.00    +0.000 C 
BRANCH  25  27
ATOM     26  C   UNL     1       0.982  13.742  20.794  0.00  0.00    +0.000 C 
ATOM     27  C   UNL     1       1.101  13.577  19.281  0.00  0.00    +0.000 C 
ATOM     28  C   UNL     1       1.959  14.693  18.680  0.00  0.00    +0.000 C 
ENDBRANCH  25  27
ENDBRANCH  24  25
ENDBRANCH   1  24
TORSDOF 7
ENDMDL
MODEL 5
REMARK VINA RESULT:      -7.8      2.741      8.141
REMARK  Name = 
REMARK  9 active torsions:
REMARK  status: ('A' for Active; 'I' for Inactive)
REMARK    1  A    between atoms: C_1  and  C_2
REMARK    2  A    between atoms: C_2  and  C_3
REMARK    3  A    between atoms: C_2  and  C_4
REMARK    4  A    between atoms: C_4  and  O_5
REMARK    5  A    between atoms: O_5  and  C_6
REMARK    6  A    between atoms: C_9  and  C_10
REMARK    7  A    between atoms: C_13  and  C_14
REMARK    8  A    between atoms: C_14  and  O_16
REMARK    9  A    between atoms: C_21  and  N_22
REMARK                            x       y       z     vdW  Elec       q    Type
REMARK                         _______ _______ _______ _____ _____    ______ ____
ROOT
ATOM      1  C   UNL     1       3.868   5.906  17.422  0.00  0.00    +0.000 A 
ATOM      2  C   UNL     1       3.723   7.286  17.210  0.00  0.00    +0.000 A 
ATOM      3  C   UNL     1       2.973   8.083  18.061  0.00  0.00    +0.000 A 
ATOM      4  C   UNL     1       2.313   7.512  19.145  0.00  0.00    +0.000 A 
ATOM      5  C   UNL     1       2.456   6.143  19.398  0.00  0.00    +0.000 A 
ATOM      6  C   UNL     1       3.234   5.324  18.540  0.00  0.00    +0.000 A 
ENDROOT
BRANCH   4   7
ATOM      7  C   UNL     1       1.508   8.388  20.031  0.00  0.00    +0.000 A 
ATOM      8  N   UNL     1       1.378   8.149  21.296  0.00  0.00    +0.000 NA
ATOM      9  C   UNL     1       0.676   9.067  22.042  0.00  0.00    +0.000 A 
ATOM     10  C   UNL     1       0.120  10.194  21.572  0.00  0.00    +0.000 A 
ATOM     11  C   UNL     1       0.246  10.425  20.133  0.00  0.00    +0.000 A 
ATOM     12  O   UNL     1      -0.225  11.425  19.597  0.00  0.00    +0.000 OA
ATOM     13  N   UNL     1       0.926   9.479  19.428  0.00  0.00    +0.000 N 
ATOM     14  H   UNL     1       0.979   9.634  18.433  0.00  0.00    +0.000 HD
BRANCH  10  15
ATOM     15  C   UNL     1      -0.563  11.133  22.482  0.00  0.00    +0.000 C 
ATOM     16  O   UNL     1      -1.408  10.786  23.292  0.00  0.00    +0.000 OA
BRANCH  15  17
ATOM     17  O   UNL     1      -0.171  12.420  22.365  0.00  0.00    +0.000 OA
ATOM     18  H   UNL     1       0.653  12.560  21.839  0.00  0.00    +0.000 HD
ENDBRANCH  15  17
ENDBRANCH  10  15
ENDBRANCH   4   7
BRANCH   6  19
ATOM     19  N   UNL     1       3.316   3.931  18.850  0.00  0.00    +0.000 N 
ATOM     20  C   UNL     1       2.457   2.891  18.567  0.00  0.00    +0.000 A 
ATOM     21  C   UNL     1       2.988   1.799  19.208  0.00  0.00    +0.000 A 
ATOM     22  N   UNL     1       4.158   2.148  19.801  0.00  0.00    +0.000 NA
ATOM     23  N   UNL     1       4.370   3.434  19.558  0.00  0.00    +0.000 NA
ENDBRANCH   6  19
BRANCH   1  24
ATOM     24  O   UNL     1       4.596   5.130  16.555  0.00  0.00    +0.000 OA
BRANCH  24  25
ATOM     25  C   UNL     1       5.369   5.832  15.575  0.00  0.00    +0.000 C 
BRANCH  25  27
ATOM     26  C   UNL     1       7.288   4.462  16.456  0.00  0.00    +0.000 C 
ATOM     27  C   UNL     1       6.643   5.070  15.214  0.00  0.00    +0.000 C 
ATOM     28  C   UNL     1       6.297   3.982  14.195  0.00  0.00    +0.000 C 
ENDBRANCH  25  27
ENDBRANCH  24  25
ENDBRANCH   1  24
TORSDOF 7
ENDMDL
MODEL 6
REMARK VINA RESULT:      -7.7      3.099      8.364
REMARK  Name = 
REMARK  9 active torsions:
REMARK  status: ('A' for Active; 'I' for Inactive)
REMARK    1  A    between atoms: C_1  and  C_2
REMARK    2  A    between atoms: C_2  and  C_3
REMARK    3  A    between atoms: C_2  and  C_4
REMARK    4  A    between atoms: C_4  and  O_5
REMARK    5  A    between atoms: O_5  and  C_6
REMARK    6  A    between atoms: C_9  and  C_10
REMARK    7  A    between atoms: C_13  and  C_14
REMARK    8  A    between atoms: C_14  and  O_16
REMARK    9  A    between atoms: C_21  and  N_22
REMARK                            x       y       z     vdW  Elec       q    Type
REMARK                         _______ _______ _______ _____ _____    ______ ____
ROOT
ATOM      1  C   UNL     1       4.676   5.324  17.040  0.00  0.00    +0.000 A 
ATOM      2  C   UNL     1       4.514   6.679  16.711  0.00  0.00    +0.000 A 
ATOM      3  C   UNL     1       3.706   7.522  17.458  0.00  0.00    +0.000 A 
ATOM      4  C   UNL     1       3.005   7.024  18.552  0.00  0.00    +0.000 A 
ATOM      5  C   UNL     1       3.164   5.683  18.921  0.00  0.00    +0.000 A 
ATOM      6  C   UNL     1       4.000   4.818  18.170  0.00  0.00    +0.000 A 
ENDROOT
BRANCH   4   7
ATOM      7  C   UNL     1       2.140   7.947  19.325  0.00  0.00    +0.000 A 
ATOM      8  N   UNL     1       1.804   7.707  20.551  0.00  0.00    +0.000 NA
ATOM      9  C   UNL     1       1.063   8.666  21.202  0.00  0.00    +0.000 A 
ATOM     10  C   UNL     1       0.666   9.835  20.676  0.00  0.00    +0.000 A 
ATOM     11  C   UNL     1       1.023  10.071  19.278  0.00  0.00    +0.000 A 
ATOM     12  O   UNL     1       0.711  11.107  18.698  0.00  0.00    +0.000 OA
ATOM     13  N   UNL     1       1.734   9.084  18.664  0.00  0.00    +0.000 N 
ATOM     14  H   UNL     1       1.947   9.245  17.691  0.00  0.00    +0.000 HD
BRANCH  10  15
ATOM     15  C   UNL     1      -0.079  10.813  21.493  0.00  0.00    +0.000 C 
ATOM     16  O   UNL     1      -1.136  10.556  22.047  0.00  0.00    +0.000 OA
BRANCH  15  17
ATOM     17  O   UNL     1       0.507  12.025  21.598  0.00  0.00    +0.000 OA
ATOM     18  H   UNL     1       0.758  12.290  22.517  0.00  0.00    +0.000 HD
ENDBRANCH  15  17
ENDBRANCH  10  15
ENDBRANCH   4   7
BRANCH   6  19
ATOM     19  N   UNL     1       4.095   3.457  18.595  0.00  0.00    +0.000 N 
ATOM     20  C   UNL     1       3.487   2.316  18.116  0.00  0.00    +0.000 A 
ATOM     21  C   UNL     1       3.858   1.318  18.982  0.00  0.00    +0.000 A 
ATOM     22  N   UNL     1       4.712   1.819  19.911  0.00  0.00    +0.000 NA
ATOM     23  N   UNL     1       4.877   3.109  19.657  0.00  0.00    +0.000 NA
ENDBRANCH   6  19
BRANCH   1  24
ATOM     24  O   UNL     1       5.462   4.500  16.274  0.00  0.00    +0.000 OA
BRANCH  24  25
ATOM     25  C   UNL     1       5.114   4.402  14.889  0.00  0.00    +0.000 C 
BRANCH  25  27
ATOM     26  C   UNL     1       5.835   3.510  12.647  0.00  0.00    +0.000 C 
ATOM     27  C   UNL     1       6.291   3.911  14.047  0.00  0.00    +0.000 C 
ATOM     28  C   UNL     1       7.346   5.017  13.979  0.00  0.00    +0.000 C 
ENDBRANCH  25  27
ENDBRANCH  24  25
ENDBRANCH   1  24
TORSDOF 7
ENDMDL
MODEL 7
REMARK VINA RESULT:      -7.7      3.238      8.323
REMARK  Name = 
REMARK  9 active torsions:
REMARK  status: ('A' for Active; 'I' for Inactive)
REMARK    1  A    between atoms: C_1  and  C_2
REMARK    2  A    between atoms: C_2  and  C_3
REMARK    3  A    between atoms: C_2  and  C_4
REMARK    4  A    between atoms: C_4  and  O_5
REMARK    5  A    between atoms: O_5  and  C_6
REMARK    6  A    between atoms: C_9  and  C_10
REMARK    7  A    between atoms: C_13  and  C_14
REMARK    8  A    between atoms: C_14  and  O_16
REMARK    9  A    between atoms: C_21  and  N_22
REMARK                            x       y       z     vdW  Elec       q    Type
REMARK                         _______ _______ _______ _____ _____    ______ ____
ROOT
ATOM      1  C   UNL     1       4.857   5.324  16.817  0.00  0.00    +0.000 A 
ATOM      2  C   UNL     1       4.818   6.669  16.416  0.00  0.00    +0.000 A 
ATOM      3  C   UNL     1       3.980   7.590  17.026  0.00  0.00    +0.000 A 
ATOM      4  C   UNL     1       3.124   7.184  18.045  0.00  0.00    +0.000 A 
ATOM      5  C   UNL     1       3.155   5.855  18.484  0.00  0.00    +0.000 A 
ATOM      6  C   UNL     1       4.021   4.910  17.875  0.00  0.00    +0.000 A 
ENDROOT
BRANCH   4   7
ATOM      7  C   UNL     1       2.231   8.189  18.669  0.00  0.00    +0.000 A 
ATOM      8  N   UNL     1       1.751   9.188  18.001  0.00  0.00    +0.000 NA
ATOM      9  C   UNL     1       0.870  10.018  18.653  0.00  0.00    +0.000 A 
ATOM     10  C   UNL     1       0.457   9.876  19.922  0.00  0.00    +0.000 A 
ATOM     11  C   UNL     1       1.040   8.763  20.671  0.00  0.00    +0.000 A 
ATOM     12  O   UNL     1       0.733   8.540  21.839  0.00  0.00    +0.000 OA
ATOM     13  N   UNL     1       1.928   7.982  19.995  0.00  0.00    +0.000 N 
ATOM     14  H   UNL     1       2.346   7.237  20.531  0.00  0.00    +0.000 HD
BRANCH  10  15
ATOM     15  C   UNL     1      -0.539  10.800  20.498  0.00  0.00    +0.000 C 
ATOM     16  O   UNL     1      -1.479  11.252  19.865  0.00  0.00    +0.000 OA
BRANCH  15  17
ATOM     17  O   UNL     1      -0.343  11.102  21.801  0.00  0.00    +0.000 OA
ATOM     18  H   UNL     1      -1.159  11.102  22.357  0.00  0.00    +0.000 HD
ENDBRANCH  15  17
ENDBRANCH  10  15
ENDBRANCH   4   7
BRANCH   6  19
ATOM     19  N   UNL     1       3.982   3.567  18.362  0.00  0.00    +0.000 N 
ATOM     20  C   UNL     1       3.266   2.470  17.931  0.00  0.00    +0.000 A 
ATOM     21  C   UNL     1       3.536   1.482  18.844  0.00  0.00    +0.000 A 
ATOM     22  N   UNL     1       4.432   1.939  19.756  0.00  0.00    +0.000 NA
ATOM     23  N   UNL     1       4.723   3.194  19.444  0.00  0.00    +0.000 NA
ENDBRANCH   6  19
BRANCH   1  24
ATOM     24  O   UNL     1       5.677   4.422  16.186  0.00  0.00    +0.000 OA
BRANCH  24  25
ATOM     25  C   UNL     1       5.272   4.008  14.876  0.00  0.00    +0.000 C 
BRANCH  25  27
ATOM     26  C   UNL     1       6.024   3.463  12.535  0.00  0.00    +0.000 C 
ATOM     27  C   UNL     1       6.472   3.831  13.948  0.00  0.00    +0.000 C 
ATOM     28  C   UNL     1       7.286   5.127  13.938  0.00  0.00    +0.000 C 
ENDBRANCH  25  27
ENDBRANCH  24  25
ENDBRANCH   1  24
TORSDOF 7
ENDMDL
MODEL 8
REMARK VINA RESULT:      -7.7      1.015      1.704
REMARK  Name = 
REMARK  9 active torsions:
REMARK  status: ('A' for Active; 'I' for Inactive)
REMARK    1  A    between atoms: C_1  and  C_2
REMARK    2  A    between atoms: C_2  and  C_3
REMARK    3  A    between atoms: C_2  and  C_4
REMARK    4  A    between atoms: C_4  and  O_5
REMARK    5  A    between atoms: O_5  and  C_6
REMARK    6  A    between atoms: C_9  and  C_10
REMARK    7  A    between atoms: C_13  and  C_14
REMARK    8  A    between atoms: C_14  and  O_16
REMARK    9  A    between atoms: C_21  and  N_22
REMARK                            x       y       z     vdW  Elec       q    Type
REMARK                         _______ _______ _______ _____ _____    ______ ____
ROOT
ATOM      1  C   UNL     1       1.029   9.612  19.042  0.00  0.00    +0.000 A 
ATOM      2  C   UNL     1       1.644   8.901  18.000  0.00  0.00    +0.000 A 
ATOM      3  C   UNL     1       2.210   7.651  18.201  0.00  0.00    +0.000 A 
ATOM      4  C   UNL     1       2.206   7.082  19.471  0.00  0.00    +0.000 A 
ATOM      5  C   UNL     1       1.580   7.755  20.526  0.00  0.00    +0.000 A 
ATOM      6  C   UNL     1       0.985   9.027  20.325  0.00  0.00    +0.000 A 
ENDROOT
BRANCH   4   7
ATOM      7  C   UNL     1       2.830   5.750  19.657  0.00  0.00    +0.000 A 
ATOM      8  N   UNL     1       2.188   4.760  20.189  0.00  0.00    +0.000 NA
ATOM      9  C   UNL     1       2.832   3.547  20.243  0.00  0.00    +0.000 A 
ATOM     10  C   UNL     1       4.069   3.298  19.784  0.00  0.00    +0.000 A 
ATOM     11  C   UNL     1       4.791   4.439  19.222  0.00  0.00    +0.000 A 
ATOM     12  O   UNL     1       5.929   4.324  18.773  0.00  0.00    +0.000 OA
ATOM     13  N   UNL     1       4.126   5.627  19.212  0.00  0.00    +0.000 N 
ATOM     14  H   UNL     1       4.646   6.412  18.850  0.00  0.00    +0.000 HD
BRANCH  10  15
ATOM     15  C   UNL     1       4.635   1.937  19.848  0.00  0.00    +0.000 C 
ATOM     16  O   UNL     1       5.337   1.546  20.767  0.00  0.00    +0.000 OA
BRANCH  15  17
ATOM     17  O   UNL     1       4.304   1.138  18.810  0.00  0.00    +0.000 OA
ATOM     18  H   UNL     1       5.068   0.721  18.343  0.00  0.00    +0.000 HD
ENDBRANCH  15  17
ENDBRANCH  10  15
ENDBRANCH   4   7
BRANCH   6  19
ATOM     19  N   UNL     1       0.384   9.662  21.455  0.00  0.00    +0.000 N 
ATOM     20  C   UNL     1      -0.587   9.222  22.329  0.00  0.00    +0.000 A 
ATOM     21  C   UNL     1      -0.853  10.294  23.144  0.00  0.00    +0.000 A 
ATOM     22  N   UNL     1      -0.029  11.323  22.821  0.00  0.00    +0.000 NA
ATOM     23  N   UNL     1       0.741  10.928  21.817  0.00  0.00    +0.000 NA
ENDBRANCH   6  19
BRANCH   1  24
ATOM     24  O   UNL     1       0.494  10.858  18.828  0.00  0.00    +0.000 OA
BRANCH  24  25
ATOM     25  C   UNL     1      -0.917  10.984  19.034  0.00  0.00    +0.000 C 
BRANCH  25  27
ATOM     26  C   UNL     1      -1.804   9.836  16.975  0.00  0.00    +0.000 C 
ATOM     27  C   UNL     1      -1.663  11.166  17.713  0.00  0.00    +0.000 C 
ATOM     28  C   UNL     1      -3.037  11.775  17.999  0.00  0.00    +0.000 C 
ENDBRANCH  25  27
ENDBRANCH  24  25
ENDBRANCH   1  24
TORSDOF 7
ENDMDL
MODEL 9
REMARK VINA RESULT:      -7.7      2.423      8.024
REMARK  Name = 
REMARK  9 active torsions:
REMARK  status: ('A' for Active; 'I' for Inactive)
REMARK    1  A    between atoms: C_1  and  C_2
REMARK    2  A    between atoms: C_2  and  C_3
REMARK    3  A    between atoms: C_2  and  C_4
REMARK    4  A    between atoms: C_4  and  O_5
REMARK    5  A    between atoms: O_5  and  C_6
REMARK    6  A    between atoms: C_9  and  C_10
REMARK    7  A    between atoms: C_13  and  C_14
REMARK    8  A    between atoms: C_14  and  O_16
REMARK    9  A    between atoms: C_21  and  N_22
REMARK                            x       y       z     vdW  Elec       q    Type
REMARK                         _______ _______ _______ _____ _____    ______ ____
ROOT
ATOM      1  C   UNL     1       3.799   6.108  17.564  0.00  0.00    +0.000 A 
ATOM      2  C   UNL     1       3.560   7.447  17.216  0.00  0.00    +0.000 A 
ATOM      3  C   UNL     1       2.761   8.273  17.992  0.00  0.00    +0.000 A 
ATOM      4  C   UNL     1       2.147   7.772  19.136  0.00  0.00    +0.000 A 
ATOM      5  C   UNL     1       2.384   6.448  19.523  0.00  0.00    +0.000 A 
ATOM      6  C   UNL     1       3.212   5.601  18.742  0.00  0.00    +0.000 A 
ENDROOT
BRANCH   4   7
ATOM      7  C   UNL     1       1.289   8.676  19.938  0.00  0.00    +0.000 A 
ATOM      8  N   UNL     1       1.155   8.537  21.218  0.00  0.00    +0.000 NA
ATOM      9  C   UNL     1       0.399   9.477  21.879  0.00  0.00    +0.000 A 
ATOM     10  C   UNL     1      -0.205  10.532  21.312  0.00  0.00    +0.000 A 
ATOM     11  C   UNL     1      -0.073  10.650  19.859  0.00  0.00    +0.000 A 
ATOM     12  O   UNL     1      -0.586  11.577  19.238  0.00  0.00    +0.000 OA
ATOM     13  N   UNL     1       0.661   9.684  19.242  0.00  0.00    +0.000 N 
ATOM     14  H   UNL     1       0.719   9.758  18.238  0.00  0.00    +0.000 HD
BRANCH  10  15
ATOM     15  C   UNL     1      -0.946  11.508  22.135  0.00  0.00    +0.000 C 
ATOM     16  O   UNL     1      -0.639  11.786  23.283  0.00  0.00    +0.000 OA
BRANCH  15  17
ATOM     17  O   UNL     1      -1.993  12.092  21.513  0.00  0.00    +0.000 OA
ATOM     18  H   UNL     1      -1.982  13.080  21.514  0.00  0.00    +0.000 HD
ENDBRANCH  15  17
ENDBRANCH  10  15
ENDBRANCH   4   7
BRANCH   6  19
ATOM     19  N   UNL     1       3.390   4.255  19.189  0.00  0.00    +0.000 N 
ATOM     20  C   UNL     1       4.533   3.549  19.499  0.00  0.00    +0.000 A 
ATOM     21  C   UNL     1       4.109   2.270  19.757  0.00  0.00    +0.000 A 
ATOM     22  N   UNL     1       2.755   2.216  19.674  0.00  0.00    +0.000 NA
ATOM     23  N   UNL     1       2.320   3.428  19.358  0.00  0.00    +0.000 NA
ENDBRANCH   6  19
BRANCH   1  24
ATOM     24  O   UNL     1       4.574   5.299  16.770  0.00  0.00    +0.000 OA
BRANCH  24  25
ATOM     25  C   UNL     1       5.872   5.801  16.432  0.00  0.00    +0.000 C 
BRANCH  25  27
ATOM     26  C   UNL     1       7.677   4.713  17.810  0.00  0.00    +0.000 C 
ATOM     27  C   UNL     1       6.763   5.927  17.667  0.00  0.00    +0.000 C 
ATOM     28  C   UNL     1       7.585   7.214  17.554  0.00  0.00    +0.000 C 
ENDBRANCH  25  27
ENDBRANCH  24  25
ENDBRANCH   1  24
TORSDOF 7
ENDMDL
