MODEL 1
REMARK VINA RESULT:      -7.3      0.000      0.000
REMARK  Name = 
REMARK  3 active torsions:
REMARK  status: ('A' for Active; 'I' for Inactive)
REMARK    1  A    between atoms: C_1  and  C_2
REMARK    2  A    between atoms: C_2  and  N_3
REMARK    3  A    between atoms: C_7  and  C_8
REMARK                            x       y       z     vdW  Elec       q    Type
REMARK                         _______ _______ _______ _____ _____    ______ ____
ROOT
ATOM      1  N   UNL     1       8.415   8.113  18.178  0.00  0.00    +0.000 N 
ATOM      2  C   UNL     1       7.453   7.140  18.083  0.00  0.00    +0.000 C 
ATOM      3  N   UNL     1       6.404   7.263  17.335  0.00  0.00    +0.000 NA
ATOM      4  N   UNL     1       5.420   6.290  17.209  0.00  0.00    +0.000 NA
ATOM      5  C   UNL     1       5.276   5.345  18.079  0.00  0.00    +0.000 C 
ATOM      6  C   UNL     1       6.155   5.106  19.272  0.00  0.00    +0.000 C 
ATOM      7  S   UNL     1       7.807   5.764  19.084  0.00  0.00    +0.000 S 
ATOM      8  H   UNL     1       9.056   7.984  18.951  0.00  0.00    +0.000 HD
ENDROOT
BRANCH   5   9
ATOM      9  C   UNL     1       4.073   4.520  17.918  0.00  0.00    +0.000 A 
ATOM     10  C   UNL     1       3.787   3.722  16.820  0.00  0.00    +0.000 A 
ATOM     11  N   UNL     1       2.642   3.017  17.084  0.00  0.00    +0.000 N 
ATOM     12  C   UNL     1       2.149   3.356  18.320  0.00  0.00    +0.000 A 
ATOM     13  C   UNL     1       1.020   2.882  19.001  0.00  0.00    +0.000 A 
ATOM     14  C   UNL     1       0.753   3.420  20.265  0.00  0.00    +0.000 A 
ATOM     15  C   UNL     1       1.575   4.396  20.818  0.00  0.00    +0.000 A 
ATOM     16  C   UNL     1       2.704   4.848  20.127  0.00  0.00    +0.000 A 
ATOM     17  C   UNL     1       3.010   4.314  18.858  0.00  0.00    +0.000 A 
ATOM     18  H   UNL     1       2.225   2.329  16.471  0.00  0.00    +0.000 HD
ENDBRANCH   5   9
BRANCH   1  20
ATOM     19  C   UNL     1       9.064  10.445  18.514  0.00  0.00    +0.000 C 
ATOM     20  C   UNL     1       8.125   9.486  17.805  0.00  0.00    +0.000 C 
ENDBRANCH   1  20
TORSDOF 2
ENDMDL
MODEL 2
REMARK VINA RESULT:      -7.1      3.465      4.857
REMARK  Name = 
REMARK  3 active torsions:
REMARK  status: ('A' for Active; 'I' for Inactive)
REMARK    1  A    between atoms: C_1  and  C_2
REMARK    2  A    between atoms: C_2  and  N_3
REMARK    3  A    between atoms: C_7  and  C_8
REMARK                            x       y       z     vdW  Elec       q    Type
REMARK                         _______ _______ _______ _____ _____    ______ ____
ROOT
ATOM      1  N   UNL     1       6.612   4.131  14.423  0.00  0.00    +0.000 N 
ATOM      2  C   UNL     1       5.951   4.574  15.540  0.00  0.00    +0.000 C 
ATOM      3  N   UNL     1       4.713   4.282  15.783  0.00  0.00    +0.000 NA
ATOM      4  N   UNL     1       4.022   4.706  16.911  0.00  0.00    +0.000 NA
ATOM      5  C   UNL     1       4.425   5.702  17.628  0.00  0.00    +0.000 C 
ATOM      6  C   UNL     1       5.690   6.483  17.417  0.00  0.00    +0.000 C 
ATOM      7  S   UNL     1       6.958   5.566  16.551  0.00  0.00    +0.000 S 
ATOM      8  H   UNL     1       7.490   4.604  14.250  0.00  0.00    +0.000 HD
ENDROOT
BRANCH   5   9
ATOM      9  C   UNL     1       3.487   6.155  18.661  0.00  0.00    +0.000 A 
ATOM     10  C   UNL     1       3.252   5.516  19.870  0.00  0.00    +0.000 A 
ATOM     11  N   UNL     1       2.406   6.295  20.614  0.00  0.00    +0.000 N 
ATOM     12  C   UNL     1       2.051   7.420  19.910  0.00  0.00    +0.000 A 
ATOM     13  C   UNL     1       1.227   8.491  20.277  0.00  0.00    +0.000 A 
ATOM     14  C   UNL     1       1.036   9.513  19.341  0.00  0.00    +0.000 A 
ATOM     15  C   UNL     1       1.639   9.460  18.088  0.00  0.00    +0.000 A 
ATOM     16  C   UNL     1       2.468   8.388  17.744  0.00  0.00    +0.000 A 
ATOM     17  C   UNL     1       2.693   7.350  18.672  0.00  0.00    +0.000 A 
ATOM     18  H   UNL     1       2.098   6.089  21.555  0.00  0.00    +0.000 HD
ENDBRANCH   5   9
BRANCH   1  20
ATOM     19  C   UNL     1       6.789   3.627  12.038  0.00  0.00    +0.000 C 
ATOM     20  C   UNL     1       5.879   3.685  13.252  0.00  0.00    +0.000 C 
ENDBRANCH   1  20
TORSDOF 2
ENDMDL
MODEL 3
REMARK VINA RESULT:      -6.9      1.461      1.640
REMARK  Name = 
REMARK  3 active torsions:
REMARK  status: ('A' for Active; 'I' for Inactive)
REMARK    1  A    between atoms: C_1  and  C_2
REMARK    2  A    between atoms: C_2  and  N_3
REMARK    3  A    between atoms: C_7  and  C_8
REMARK                            x       y       z     vdW  Elec       q    Type
REMARK                         _______ _______ _______ _____ _____    ______ ____
ROOT
ATOM      1  N   UNL     1       7.701   7.310  16.929  0.00  0.00    +0.000 N 
ATOM      2  C   UNL     1       6.637   6.452  17.036  0.00  0.00    +0.000 C 
ATOM      3  N   UNL     1       5.811   6.482  18.033  0.00  0.00    +0.000 NA
ATOM      4  N   UNL     1       4.717   5.635  18.162  0.00  0.00    +0.000 NA
ATOM      5  C   UNL     1       4.626   4.528  17.502  0.00  0.00    +0.000 C 
ATOM      6  C   UNL     1       5.604   4.032  16.477  0.00  0.00    +0.000 C 
ATOM      7  S   UNL     1       6.552   5.337  15.705  0.00  0.00    +0.000 S 
ATOM      8  H   UNL     1       8.379   7.038  16.228  0.00  0.00    +0.000 HD
ENDROOT
BRANCH   5   9
ATOM      9  C   UNL     1       3.518   3.650  17.896  0.00  0.00    +0.000 A 
ATOM     10  C   UNL     1       2.964   2.653  17.107  0.00  0.00    +0.000 A 
ATOM     11  N   UNL     1       2.038   1.974  17.854  0.00  0.00    +0.000 N 
ATOM     12  C   UNL     1       1.946   2.521  19.111  0.00  0.00    +0.000 A 
ATOM     13  C   UNL     1       1.151   2.147  20.201  0.00  0.00    +0.000 A 
ATOM     14  C   UNL     1       1.263   2.901  21.374  0.00  0.00    +0.000 A 
ATOM     15  C   UNL     1       2.128   3.989  21.448  0.00  0.00    +0.000 A 
ATOM     16  C   UNL     1       2.922   4.340  20.352  0.00  0.00    +0.000 A 
ATOM     17  C   UNL     1       2.844   3.589  19.160  0.00  0.00    +0.000 A 
ATOM     18  H   UNL     1       1.509   1.171  17.540  0.00  0.00    +0.000 HD
ENDBRANCH   5   9
BRANCH   1  20
ATOM     19  C   UNL     1       8.215   9.501  17.882  0.00  0.00    +0.000 C 
ATOM     20  C   UNL     1       8.223   7.998  18.096  0.00  0.00    +0.000 C 
ENDBRANCH   1  20
TORSDOF 2
ENDMDL
MODEL 4
REMARK VINA RESULT:      -6.8      4.082      5.832
REMARK  Name = 
REMARK  3 active torsions:
REMARK  status: ('A' for Active; 'I' for Inactive)
REMARK    1  A    between atoms: C_1  and  C_2
REMARK    2  A    between atoms: C_2  and  N_3
REMARK    3  A    between atoms: C_7  and  C_8
REMARK                            x       y       z     vdW  Elec       q    Type
REMARK                         _______ _______ _______ _____ _____    ______ ____
ROOT
ATOM      1  N   UNL     1       5.010   3.279  19.248  0.00  0.00    +0.000 N 
ATOM      2  C   UNL     1       4.434   4.521  19.170  0.00  0.00    +0.000 C 
ATOM      3  N   UNL     1       3.343   4.828  19.796  0.00  0.00    +0.000 NA
ATOM      4  N   UNL     1       2.744   6.081  19.745  0.00  0.00    +0.000 NA
ATOM      5  C   UNL     1       3.011   6.931  18.810  0.00  0.00    +0.000 C 
ATOM      6  C   UNL     1       4.023   6.747  17.716  0.00  0.00    +0.000 C 
ATOM      7  S   UNL     1       5.326   5.597  18.136  0.00  0.00    +0.000 S 
ATOM      8  H   UNL     1       5.723   3.112  18.550  0.00  0.00    +0.000 HD
ENDROOT
BRANCH   5   9
ATOM      9  C   UNL     1       2.154   8.122  18.778  0.00  0.00    +0.000 A 
ATOM     10  C   UNL     1       1.876   8.882  17.651  0.00  0.00    +0.000 A 
ATOM     11  N   UNL     1       0.950   9.834  17.989  0.00  0.00    +0.000 N 
ATOM     12  C   UNL     1       0.635   9.739  19.322  0.00  0.00    +0.000 A 
ATOM     13  C   UNL     1      -0.264  10.489  20.092  0.00  0.00    +0.000 A 
ATOM     14  C   UNL     1      -0.379  10.170  21.449  0.00  0.00    +0.000 A 
ATOM     15  C   UNL     1       0.381   9.150  22.012  0.00  0.00    +0.000 A 
ATOM     16  C   UNL     1       1.265   8.405  21.226  0.00  0.00    +0.000 A 
ATOM     17  C   UNL     1       1.391   8.691  19.850  0.00  0.00    +0.000 A 
ATOM     18  H   UNL     1       0.538  10.501  17.350  0.00  0.00    +0.000 HD
ENDBRANCH   5   9
BRANCH   1  20
ATOM     19  C   UNL     1       3.497   1.517  18.487  0.00  0.00    +0.000 C 
ATOM     20  C   UNL     1       4.235   2.125  19.666  0.00  0.00    +0.000 C 
ENDBRANCH   1  20
TORSDOF 2
ENDMDL
MODEL 5
REMARK VINA RESULT:      -6.8      2.820      3.256
REMARK  Name = 
REMARK  3 active torsions:
REMARK  status: ('A' for Active; 'I' for Inactive)
REMARK    1  A    between atoms: C_1  and  C_2
REMARK    2  A    between atoms: C_2  and  N_3
REMARK    3  A    between atoms: C_7  and  C_8
REMARK                            x       y       z     vdW  Elec       q    Type
REMARK                         _______ _______ _______ _____ _____    ______ ____
ROOT
ATOM      1  N   UNL     1       7.802   5.406  14.490  0.00  0.00    +0.000 N 
ATOM      2  C   UNL     1       6.924   4.870  15.396  0.00  0.00    +0.000 C 
ATOM      3  N   UNL     1       6.196   3.832  15.136  0.00  0.00    +0.000 NA
ATOM      4  N   UNL     1       5.307   3.260  16.039  0.00  0.00    +0.000 NA
ATOM      5  C   UNL     1       4.867   3.904  17.069  0.00  0.00    +0.000 C 
ATOM      6  C   UNL     1       5.282   5.285  17.486  0.00  0.00    +0.000 C 
ATOM      7  S   UNL     1       6.903   5.752  16.894  0.00  0.00    +0.000 S 
ATOM      8  H   UNL     1       8.139   6.328  14.738  0.00  0.00    +0.000 HD
ENDROOT
BRANCH   5   9
ATOM      9  C   UNL     1       3.786   3.243  17.810  0.00  0.00    +0.000 A 
ATOM     10  C   UNL     1       3.476   1.893  17.744  0.00  0.00    +0.000 A 
ATOM     11  N   UNL     1       2.491   1.630  18.659  0.00  0.00    +0.000 N 
ATOM     12  C   UNL     1       2.121   2.785  19.306  0.00  0.00    +0.000 A 
ATOM     13  C   UNL     1       1.174   2.988  20.317  0.00  0.00    +0.000 A 
ATOM     14  C   UNL     1       1.001   4.293  20.790  0.00  0.00    +0.000 A 
ATOM     15  C   UNL     1       1.739   5.350  20.266  0.00  0.00    +0.000 A 
ATOM     16  C   UNL     1       2.689   5.125  19.264  0.00  0.00    +0.000 A 
ATOM     17  C   UNL     1       2.898   3.818  18.778  0.00  0.00    +0.000 A 
ATOM     18  H   UNL     1       2.101   0.717  18.853  0.00  0.00    +0.000 HD
ENDBRANCH   5   9
BRANCH   1  20
ATOM     19  C   UNL     1       8.474   6.123  12.252  0.00  0.00    +0.000 C 
ATOM     20  C   UNL     1       7.667   5.131  13.071  0.00  0.00    +0.000 C 
ENDBRANCH   1  20
TORSDOF 2
ENDMDL
MODEL 6
REMARK VINA RESULT:      -6.8      3.424      6.825
REMARK  Name = 
REMARK  3 active torsions:
REMARK  status: ('A' for Active; 'I' for Inactive)
REMARK    1  A    between atoms: C_1  and  C_2
REMARK    2  A    between atoms: C_2  and  N_3
REMARK    3  A    between atoms: C_7  and  C_8
REMARK                            x       y       z     vdW  Elec       q    Type
REMARK                         _______ _______ _______ _____ _____    ______ ____
ROOT
ATOM      1  N   UNL     1       2.455   2.203  20.106  0.00  0.00    +0.000 N 
ATOM      2  C   UNL     1       3.270   2.661  19.102  0.00  0.00    +0.000 C 
ATOM      3  N   UNL     1       4.410   3.230  19.331  0.00  0.00    +0.000 NA
ATOM      4  N   UNL     1       5.262   3.691  18.335  0.00  0.00    +0.000 NA
ATOM      5  C   UNL     1       4.850   3.919  17.132  0.00  0.00    +0.000 C 
ATOM      6  C   UNL     1       3.465   3.661  16.612  0.00  0.00    +0.000 C 
ATOM      7  S   UNL     1       2.584   2.401  17.526  0.00  0.00    +0.000 S 
ATOM      8  H   UNL     1       1.514   1.985  19.804  0.00  0.00    +0.000 HD
ENDROOT
BRANCH   5   9
ATOM      9  C   UNL     1       5.813   4.592  16.253  0.00  0.00    +0.000 A 
ATOM     10  C   UNL     1       6.725   5.558  16.652  0.00  0.00    +0.000 A 
ATOM     11  N   UNL     1       7.528   5.862  15.584  0.00  0.00    +0.000 N 
ATOM     12  C   UNL     1       7.146   5.140  14.480  0.00  0.00    +0.000 A 
ATOM     13  C   UNL     1       7.684   5.117  13.187  0.00  0.00    +0.000 A 
ATOM     14  C   UNL     1       7.077   4.277  12.247  0.00  0.00    +0.000 A 
ATOM     15  C   UNL     1       5.974   3.500  12.587  0.00  0.00    +0.000 A 
ATOM     16  C   UNL     1       5.458   3.528  13.886  0.00  0.00    +0.000 A 
ATOM     17  C   UNL     1       6.058   4.353  14.860  0.00  0.00    +0.000 A 
ATOM     18  H   UNL     1       8.306   6.508  15.603  0.00  0.00    +0.000 HD
ENDBRANCH   5   9
BRANCH   1  20
ATOM     19  C   UNL     1       2.077   4.121  21.574  0.00  0.00    +0.000 C 
ATOM     20  C   UNL     1       2.596   2.698  21.463  0.00  0.00    +0.000 C 
ENDBRANCH   1  20
TORSDOF 2
ENDMDL
MODEL 7
REMARK VINA RESULT:      -6.7      3.878      5.834
REMARK  Name = 
REMARK  3 active torsions:
REMARK  status: ('A' for Active; 'I' for Inactive)
REMARK    1  A    between atoms: C_1  and  C_2
REMARK    2  A    between atoms: C_2  and  N_3
REMARK    3  A    between atoms: C_7  and  C_8
REMARK                            x       y       z     vdW  Elec       q    Type
REMARK                         _______ _______ _______ _____ _____    ______ ____
ROOT
ATOM      1  N   UNL     1       0.813   9.629  20.964  0.00  0.00    +0.000 N 
ATOM      2  C   UNL     1       1.325   8.665  20.133  0.00  0.00    +0.000 C 
ATOM      3  N   UNL     1       1.663   7.487  20.551  0.00  0.00    +0.000 NA
ATOM      4  N   UNL     1       2.172   6.488  19.730  0.00  0.00    +0.000 NA
ATOM      5  C   UNL     1       2.682   6.747  18.572  0.00  0.00    +0.000 C 
ATOM      6  C   UNL     1       2.738   8.096  17.916  0.00  0.00    +0.000 C 
ATOM      7  S   UNL     1       1.474   9.222  18.493  0.00  0.00    +0.000 S 
ATOM      8  H   UNL     1       0.799  10.556  20.560  0.00  0.00    +0.000 HD
ENDROOT
BRANCH   5   9
ATOM      9  C   UNL     1       3.358   5.621  17.916  0.00  0.00    +0.000 A 
ATOM     10  C   UNL     1       2.779   4.393  17.629  0.00  0.00    +0.000 A 
ATOM     11  N   UNL     1       3.678   3.647  16.914  0.00  0.00    +0.000 N 
ATOM     12  C   UNL     1       4.851   4.345  16.749  0.00  0.00    +0.000 A 
ATOM     13  C   UNL     1       6.027   3.985  16.079  0.00  0.00    +0.000 A 
ATOM     14  C   UNL     1       7.080   4.906  16.078  0.00  0.00    +0.000 A 
ATOM     15  C   UNL     1       6.962   6.130  16.729  0.00  0.00    +0.000 A 
ATOM     16  C   UNL     1       5.776   6.476  17.382  0.00  0.00    +0.000 A 
ATOM     17  C   UNL     1       4.690   5.576  17.387  0.00  0.00    +0.000 A 
ATOM     18  H   UNL     1       3.505   2.724  16.539  0.00  0.00    +0.000 HD
ENDBRANCH   5   9
BRANCH   1  20
ATOM     19  C   UNL     1      -0.308   9.675  23.136  0.00  0.00    +0.000 C 
ATOM     20  C   UNL     1       1.015   9.556  22.400  0.00  0.00    +0.000 C 
ENDBRANCH   1  20
TORSDOF 2
ENDMDL
MODEL 8
REMARK VINA RESULT:      -6.7      4.383      5.737
REMARK  Name = 
REMARK  3 active torsions:
REMARK  status: ('A' for Active; 'I' for Inactive)
REMARK    1  A    between atoms: C_1  and  C_2
REMARK    2  A    between atoms: C_2  and  N_3
REMARK    3  A    between atoms: C_7  and  C_8
REMARK                            x       y       z     vdW  Elec       q    Type
REMARK                         _______ _______ _______ _____ _____    ______ ____
ROOT
ATOM      1  N   UNL     1      -0.012  10.521  20.728  0.00  0.00    +0.000 N 
ATOM      2  C   UNL     1       0.644   9.566  19.995  0.00  0.00    +0.000 C 
ATOM      3  N   UNL     1       1.274   8.575  20.540  0.00  0.00    +0.000 NA
ATOM      4  N   UNL     1       1.936   7.587  19.822  0.00  0.00    +0.000 NA
ATOM      5  C   UNL     1       2.286   7.753  18.589  0.00  0.00    +0.000 C 
ATOM      6  C   UNL     1       1.981   8.954  17.742  0.00  0.00    +0.000 C 
ATOM      7  S   UNL     1       0.538   9.862  18.285  0.00  0.00    +0.000 S 
ATOM      8  H   UNL     1      -0.270  11.344  20.197  0.00  0.00    +0.000 HD
ENDROOT
BRANCH   5   9
ATOM      9  C   UNL     1       3.152   6.706  18.034  0.00  0.00    +0.000 A 
ATOM     10  C   UNL     1       4.440   6.898  17.557  0.00  0.00    +0.000 A 
ATOM     11  N   UNL     1       4.968   5.676  17.233  0.00  0.00    +0.000 N 
ATOM     12  C   UNL     1       4.045   4.683  17.457  0.00  0.00    +0.000 A 
ATOM     13  C   UNL     1       4.151   3.298  17.283  0.00  0.00    +0.000 A 
ATOM     14  C   UNL     1       3.030   2.519  17.590  0.00  0.00    +0.000 A 
ATOM     15  C   UNL     1       1.852   3.104  18.044  0.00  0.00    +0.000 A 
ATOM     16  C   UNL     1       1.769   4.488  18.222  0.00  0.00    +0.000 A 
ATOM     17  C   UNL     1       2.887   5.300  17.936  0.00  0.00    +0.000 A 
ATOM     18  H   UNL     1       5.908   5.516  16.897  0.00  0.00    +0.000 HD
ENDBRANCH   5   9
BRANCH   1  20
ATOM     19  C   UNL     1      -0.693  10.023  23.022  0.00  0.00    +0.000 C 
ATOM     20  C   UNL     1       0.307  10.734  22.129  0.00  0.00    +0.000 C 
ENDBRANCH   1  20
TORSDOF 2
ENDMDL
MODEL 9
REMARK VINA RESULT:      -6.6      2.915      4.570
REMARK  Name = 
REMARK  3 active torsions:
REMARK  status: ('A' for Active; 'I' for Inactive)
REMARK    1  A    between atoms: C_1  and  C_2
REMARK    2  A    between atoms: C_2  and  N_3
REMARK    3  A    between atoms: C_7  and  C_8
REMARK                            x       y       z     vdW  Elec       q    Type
REMARK                         _______ _______ _______ _____ _____    ______ ____
ROOT
ATOM      1  N   UNL     1       6.525   3.769  13.320  0.00  0.00    +0.000 N 
ATOM      2  C   UNL     1       6.044   3.990  14.585  0.00  0.00    +0.000 C 
ATOM      3  N   UNL     1       4.934   3.477  15.011  0.00  0.00    +0.000 NA
ATOM      4  N   UNL     1       4.429   3.674  16.291  0.00  0.00    +0.000 NA
ATOM      5  C   UNL     1       4.821   4.650  17.040  0.00  0.00    +0.000 C 
ATOM      6  C   UNL     1       5.894   5.644  16.701  0.00  0.00    +0.000 C 
ATOM      7  S   UNL     1       7.081   5.033  15.511  0.00  0.00    +0.000 S 
ATOM      8  H   UNL     1       7.274   4.394  13.049  0.00  0.00    +0.000 HD
ENDROOT
BRANCH   5   9
ATOM      9  C   UNL     1       4.053   4.843  18.276  0.00  0.00    +0.000 A 
ATOM     10  C   UNL     1       4.283   5.834  19.218  0.00  0.00    +0.000 A 
ATOM     11  N   UNL     1       3.295   5.768  20.166  0.00  0.00    +0.000 N 
ATOM     12  C   UNL     1       2.435   4.734  19.886  0.00  0.00    +0.000 A 
ATOM     13  C   UNL     1       1.287   4.307  20.565  0.00  0.00    +0.000 A 
ATOM     14  C   UNL     1       0.601   3.204  20.047  0.00  0.00    +0.000 A 
ATOM     15  C   UNL     1       1.050   2.551  18.904  0.00  0.00    +0.000 A 
ATOM     16  C   UNL     1       2.192   2.999  18.233  0.00  0.00    +0.000 A 
ATOM     17  C   UNL     1       2.897   4.119  18.721  0.00  0.00    +0.000 A 
ATOM     18  H   UNL     1       3.194   6.399  20.950  0.00  0.00    +0.000 HD
ENDBRANCH   5   9
BRANCH   1  20
ATOM     19  C   UNL     1       6.265   2.165  11.493  0.00  0.00    +0.000 C 
ATOM     20  C   UNL     1       5.644   3.322  12.256  0.00  0.00    +0.000 C 
ENDBRANCH   1  20
TORSDOF 2
ENDMDL
