MODEL 1
REMARK VINA RESULT:      -7.6      0.000      0.000
REMARK  Name = 
REMARK  7 active torsions:
REMARK  status: ('A' for Active; 'I' for Inactive)
REMARK    1  A    between atoms: C_1  and  O_2
REMARK    2  A    between atoms: O_2  and  C_3
REMARK    3  A    between atoms: C_7  and  C_8
REMARK    4  A    between atoms: C_13  and  O_14
REMARK    5  A    between atoms: O_14  and  C_15
REMARK    6  A    between atoms: C_15  and  C_16
REMARK    7  A    between atoms: C_15  and  C_17
REMARK                            x       y       z     vdW  Elec       q    Type
REMARK                         _______ _______ _______ _____ _____    ______ ____
ROOT
ATOM      1  C   UNL     1       1.368   8.921  19.832  0.00  0.00    +0.000 A 
ATOM      2  N   UNL     1       1.018   9.753  18.771  0.00  0.00    +0.000 NA
ATOM      3  C   UNL     1       1.671   9.457  17.671  0.00  0.00    +0.000 A 
ATOM      4  C   UNL     1       2.191   8.199  17.536  0.00  0.00    +0.000 A 
ATOM      5  C   UNL     1       2.070   7.276  18.614  0.00  0.00    +0.000 A 
ATOM      6  C   UNL     1       2.081   5.842  18.546  0.00  0.00    +0.000 A 
ATOM      7  C   UNL     1       3.046   5.397  17.695  0.00  0.00    +0.000 A 
ATOM      8  C   UNL     1       4.140   5.374  18.423  0.00  0.00    +0.000 A 
ATOM      9  N   UNL     1       5.120   4.309  17.635  0.00  0.00    +0.000 N 
ATOM     10  C   UNL     1       6.592   4.416  17.822  0.00  0.00    +0.000 C 
ATOM     11  C   UNL     1       7.459   4.974  16.613  0.00  0.00    +0.000 C 
ATOM     12  O   UNL     1       7.409   4.162  15.436  0.00  0.00    +0.000 OA
ATOM     13  C   UNL     1       6.081   4.220  14.925  0.00  0.00    +0.000 C 
ATOM     14  C   UNL     1       5.016   3.700  16.029  0.00  0.00    +0.000 C 
ATOM     15  N   UNL     1       3.973   6.573  19.481  0.00  0.00    +0.000 NA
ATOM     16  C   UNL     1       2.659   7.756  19.678  0.00  0.00    +0.000 A 
ENDROOT
BRANCH   1  21
ATOM     17  C   UNL     1      -1.228  11.138  21.959  0.00  0.00    +0.000 A 
ATOM     18  C   UNL     1      -1.191  10.592  23.238  0.00  0.00    +0.000 A 
ATOM     19  C   UNL     1      -0.304   9.532  23.441  0.00  0.00    +0.000 A 
ATOM     20  C   UNL     1       0.480   9.005  22.384  0.00  0.00    +0.000 A 
ATOM     21  C   UNL     1       0.355   9.497  21.056  0.00  0.00    +0.000 A 
ATOM     22  N   UNL     1      -0.476  10.608  20.901  0.00  0.00    +0.000 NA
BRANCH  17  24
ATOM     23  C   UNL     1      -3.120  12.429  22.767  0.00  0.00    +0.000 C 
ATOM     24  O   UNL     1      -2.132  12.195  21.740  0.00  0.00    +0.000 OA
ENDBRANCH  17  24
ENDBRANCH   1  21
BRANCH   6  25
ATOM     25  O   UNL     1       2.043   5.097  19.847  0.00  0.00    +0.000 OA
BRANCH  25  26
ATOM     26  C   UNL     1       1.030   4.063  20.127  0.00  0.00    +0.000 C 
ATOM     27  C   UNL     1       1.022   3.240  18.835  0.00  0.00    +0.000 C 
ATOM     28  C   UNL     1       1.361   3.114  21.293  0.00  0.00    +0.000 C 
ENDBRANCH  25  26
ENDBRANCH   6  25
TORSDOF 4
ENDMDL
MODEL 2
REMARK VINA RESULT:      -7.3      2.852      8.937
REMARK  Name = 
REMARK  7 active torsions:
REMARK  status: ('A' for Active; 'I' for Inactive)
REMARK    1  A    between atoms: C_1  and  O_2
REMARK    2  A    between atoms: O_2  and  C_3
REMARK    3  A    between atoms: C_7  and  C_8
REMARK    4  A    between atoms: C_13  and  O_14
REMARK    5  A    between atoms: O_14  and  C_15
REMARK    6  A    between atoms: C_15  and  C_16
REMARK    7  A    between atoms: C_15  and  C_17
REMARK                            x       y       z     vdW  Elec       q    Type
REMARK                         _______ _______ _______ _____ _____    ______ ____
ROOT
ATOM      1  C   UNL     1       1.838   8.099  19.350  0.00  0.00    +0.000 A 
ATOM      2  N   UNL     1       1.856   7.572  20.639  0.00  0.00    +0.000 NA
ATOM      3  C   UNL     1       1.389   8.418  21.528  0.00  0.00    +0.000 A 
ATOM      4  C   UNL     1       0.557   9.418  21.107  0.00  0.00    +0.000 A 
ATOM      5  C   UNL     1       0.278   9.554  19.716  0.00  0.00    +0.000 A 
ATOM      6  C   UNL     1      -0.874  10.157  19.107  0.00  0.00    +0.000 A 
ATOM      7  C   UNL     1      -1.213  11.315  19.736  0.00  0.00    +0.000 A 
ATOM      8  C   UNL     1      -0.441  12.226  19.186  0.00  0.00    +0.000 A 
ATOM      9  N   UNL     1      -1.232  13.643  19.472  0.00  0.00    +0.000 N 
ATOM     10  C   UNL     1      -0.450  14.909  19.493  0.00  0.00    +0.000 C 
ATOM     11  C   UNL     1      -0.208  15.613  20.896  0.00  0.00    +0.000 C 
ATOM     12  O   UNL     1      -1.407  16.043  21.547  0.00  0.00    +0.000 OA
ATOM     13  C   UNL     1      -2.149  14.880  21.901  0.00  0.00    +0.000 C 
ATOM     14  C   UNL     1      -2.492  13.994  20.590  0.00  0.00    +0.000 C 
ATOM     15  N   UNL     1       0.917  11.456  18.801  0.00  0.00    +0.000 NA
ATOM     16  C   UNL     1       1.389   9.760  19.059  0.00  0.00    +0.000 A 
ENDROOT
BRANCH   1  21
ATOM     17  C   UNL     1       2.364   4.453  17.734  0.00  0.00    +0.000 A 
ATOM     18  C   UNL     1       3.592   4.529  17.086  0.00  0.00    +0.000 A 
ATOM     19  C   UNL     1       4.283   5.739  17.194  0.00  0.00    +0.000 A 
ATOM     20  C   UNL     1       3.734   6.850  17.884  0.00  0.00    +0.000 A 
ATOM     21  C   UNL     1       2.432   6.798  18.449  0.00  0.00    +0.000 A 
ATOM     22  N   UNL     1       1.802   5.553  18.398  0.00  0.00    +0.000 NA
BRANCH  17  24
ATOM     23  C   UNL     1       1.075   2.709  18.828  0.00  0.00    +0.000 C 
ATOM     24  O   UNL     1       1.653   3.243  17.617  0.00  0.00    +0.000 OA
ENDBRANCH  17  24
ENDBRANCH   1  21
BRANCH   6  25
ATOM     25  O   UNL     1      -0.875  10.267  17.612  0.00  0.00    +0.000 OA
BRANCH  25  26
ATOM     26  C   UNL     1      -2.054   9.910  16.802  0.00  0.00    +0.000 C 
ATOM     27  C   UNL     1      -3.095   9.542  17.865  0.00  0.00    +0.000 C 
ATOM     28  C   UNL     1      -2.635  11.049  15.944  0.00  0.00    +0.000 C 
ENDBRANCH  25  26
ENDBRANCH   6  25
TORSDOF 4
ENDMDL
MODEL 3
REMARK VINA RESULT:      -7.2      2.830      9.846
REMARK  Name = 
REMARK  7 active torsions:
REMARK  status: ('A' for Active; 'I' for Inactive)
REMARK    1  A    between atoms: C_1  and  O_2
REMARK    2  A    between atoms: O_2  and  C_3
REMARK    3  A    between atoms: C_7  and  C_8
REMARK    4  A    between atoms: C_13  and  O_14
REMARK    5  A    between atoms: O_14  and  C_15
REMARK    6  A    between atoms: C_15  and  C_16
REMARK    7  A    between atoms: C_15  and  C_17
REMARK                            x       y       z     vdW  Elec       q    Type
REMARK                         _______ _______ _______ _____ _____    ______ ____
ROOT
ATOM      1  C   UNL     1       0.751   9.674  20.993  0.00  0.00    +0.000 A 
ATOM      2  N   UNL     1       0.493   8.921  22.137  0.00  0.00    +0.000 NA
ATOM      3  C   UNL     1      -0.105   9.625  23.070  0.00  0.00    +0.000 A 
ATOM      4  C   UNL     1      -0.797  10.746  22.703  0.00  0.00    +0.000 A 
ATOM      5  C   UNL     1      -0.790  11.153  21.338  0.00  0.00    +0.000 A 
ATOM      6  C   UNL     1      -1.774  11.944  20.653  0.00  0.00    +0.000 A 
ATOM      7  C   UNL     1      -2.184  12.991  21.420  0.00  0.00    +0.000 A 
ATOM      8  C   UNL     1      -1.282  13.924  21.210  0.00  0.00    +0.000 A 
ATOM      9  N   UNL     1      -2.056  15.323  21.612  0.00  0.00    +0.000 N 
ATOM     10  C   UNL     1      -1.243  16.499  22.022  0.00  0.00    +0.000 C 
ATOM     11  C   UNL     1      -1.255  16.916  23.555  0.00  0.00    +0.000 C 
ATOM     12  O   UNL     1      -2.540  17.311  24.042  0.00  0.00    +0.000 OA
ATOM     13  C   UNL     1      -3.384  16.164  24.020  0.00  0.00    +0.000 C 
ATOM     14  C   UNL     1      -3.497  15.560  22.522  0.00  0.00    +0.000 C 
ATOM     15  N   UNL     1       0.093  13.136  20.942  0.00  0.00    +0.000 NA
ATOM     16  C   UNL     1       0.436  11.390  20.951  0.00  0.00    +0.000 A 
ENDROOT
BRANCH   1  21
ATOM     17  C   UNL     1       2.583   6.369  19.615  0.00  0.00    +0.000 A 
ATOM     18  C   UNL     1       2.868   6.654  18.283  0.00  0.00    +0.000 A 
ATOM     19  C   UNL     1       2.510   7.925  17.825  0.00  0.00    +0.000 A 
ATOM     20  C   UNL     1       1.842   8.856  18.659  0.00  0.00    +0.000 A 
ATOM     21  C   UNL     1       1.458   8.516  19.985  0.00  0.00    +0.000 A 
ATOM     22  N   UNL     1       1.901   7.274  20.441  0.00  0.00    +0.000 NA
BRANCH  17  24
ATOM     23  C   UNL     1       1.913   4.373  20.825  0.00  0.00    +0.000 C 
ATOM     24  O   UNL     1       2.925   5.085  20.081  0.00  0.00    +0.000 OA
ENDBRANCH  17  24
ENDBRANCH   1  21
BRANCH   6  25
ATOM     25  O   UNL     1      -1.475  12.324  19.234  0.00  0.00    +0.000 OA
BRANCH  25  26
ATOM     26  C   UNL     1      -2.215  11.747  18.097  0.00  0.00    +0.000 C 
ATOM     27  C   UNL     1      -1.542  10.382  17.914  0.00  0.00    +0.000 C 
ATOM     28  C   UNL     1      -3.716  11.506  18.339  0.00  0.00    +0.000 C 
ENDBRANCH  25  26
ENDBRANCH   6  25
TORSDOF 4
ENDMDL
MODEL 4
REMARK VINA RESULT:      -7.0      2.906     10.093
REMARK  Name = 
REMARK  7 active torsions:
REMARK  status: ('A' for Active; 'I' for Inactive)
REMARK    1  A    between atoms: C_1  and  O_2
REMARK    2  A    between atoms: O_2  and  C_3
REMARK    3  A    between atoms: C_7  and  C_8
REMARK    4  A    between atoms: C_13  and  O_14
REMARK    5  A    between atoms: O_14  and  C_15
REMARK    6  A    between atoms: C_15  and  C_16
REMARK    7  A    between atoms: C_15  and  C_17
REMARK                            x       y       z     vdW  Elec       q    Type
REMARK                         _______ _______ _______ _____ _____    ______ ____
ROOT
ATOM      1  C   UNL     1       0.586   9.869  21.245  0.00  0.00    +0.000 A 
ATOM      2  N   UNL     1       0.216   8.927  22.202  0.00  0.00    +0.000 NA
ATOM      3  C   UNL     1      -0.377   9.476  23.236  0.00  0.00    +0.000 A 
ATOM      4  C   UNL     1      -0.966  10.700  23.080  0.00  0.00    +0.000 A 
ATOM      5  C   UNL     1      -0.859  11.371  21.828  0.00  0.00    +0.000 A 
ATOM      6  C   UNL     1      -1.747  12.360  21.283  0.00  0.00    +0.000 A 
ATOM      7  C   UNL     1      -2.119  13.262  22.232  0.00  0.00    +0.000 A 
ATOM      8  C   UNL     1      -1.142  14.142  22.248  0.00  0.00    +0.000 A 
ATOM      9  N   UNL     1      -1.832  15.490  22.899  0.00  0.00    +0.000 N 
ATOM     10  C   UNL     1      -0.959  16.490  23.569  0.00  0.00    +0.000 C 
ATOM     11  C   UNL     1      -1.019  16.591  25.153  0.00  0.00    +0.000 C 
ATOM     12  O   UNL     1      -2.296  16.984  25.664  0.00  0.00    +0.000 OA
ATOM     13  C   UNL     1      -3.218  15.938  25.379  0.00  0.00    +0.000 C 
ATOM     14  C   UNL     1      -3.297  15.657  23.786  0.00  0.00    +0.000 C 
ATOM     15  N   UNL     1       0.184  13.313  21.876  0.00  0.00    +0.000 NA
ATOM     16  C   UNL     1       0.399  11.579  21.542  0.00  0.00    +0.000 A 
ENDROOT
BRANCH   1  21
ATOM     17  C   UNL     1       2.494   6.890  19.331  0.00  0.00    +0.000 A 
ATOM     18  C   UNL     1       2.601   7.328  18.015  0.00  0.00    +0.000 A 
ATOM     19  C   UNL     1       2.096   8.602  17.737  0.00  0.00    +0.000 A 
ATOM     20  C   UNL     1       1.460   9.384  18.733  0.00  0.00    +0.000 A 
ATOM     21  C   UNL     1       1.259   8.883  20.048  0.00  0.00    +0.000 A 
ATOM     22  N   UNL     1       1.845   7.646  20.318  0.00  0.00    +0.000 NA
BRANCH  17  24
ATOM     23  C   UNL     1       2.359   4.896  20.712  0.00  0.00    +0.000 C 
ATOM     24  O   UNL     1       2.985   5.601  19.618  0.00  0.00    +0.000 OA
ENDBRANCH  17  24
ENDBRANCH   1  21
BRANCH   6  25
ATOM     25  O   UNL     1      -1.349  12.990  19.982  0.00  0.00    +0.000 OA
BRANCH  25  26
ATOM     26  C   UNL     1      -1.732  12.411  18.682  0.00  0.00    +0.000 C 
ATOM     27  C   UNL     1      -0.508  12.703  17.809  0.00  0.00    +0.000 C 
ATOM     28  C   UNL     1      -1.964  10.889  18.680  0.00  0.00    +0.000 C 
ENDBRANCH  25  26
ENDBRANCH   6  25
TORSDOF 4
ENDMDL
MODEL 5
REMARK VINA RESULT:      -6.9      2.798     10.194
REMARK  Name = 
REMARK  7 active torsions:
REMARK  status: ('A' for Active; 'I' for Inactive)
REMARK    1  A    between atoms: C_1  and  O_2
REMARK    2  A    between atoms: O_2  and  C_3
REMARK    3  A    between atoms: C_7  and  C_8
REMARK    4  A    between atoms: C_13  and  O_14
REMARK    5  A    between atoms: O_14  and  C_15
REMARK    6  A    between atoms: C_15  and  C_16
REMARK    7  A    between atoms: C_15  and  C_17
REMARK                            x       y       z     vdW  Elec       q    Type
REMARK                         _______ _______ _______ _____ _____    ______ ____
ROOT
ATOM      1  C   UNL     1       0.563   9.914  21.200  0.00  0.00    +0.000 A 
ATOM      2  N   UNL     1       0.514   9.102  22.330  0.00  0.00    +0.000 NA
ATOM      3  C   UNL     1      -0.028   9.713  23.358  0.00  0.00    +0.000 A 
ATOM      4  C   UNL     1      -0.857  10.776  23.126  0.00  0.00    +0.000 A 
ATOM      5  C   UNL     1      -1.051  11.229  21.790  0.00  0.00    +0.000 A 
ATOM      6  C   UNL     1      -2.177  11.947  21.262  0.00  0.00    +0.000 A 
ATOM      7  C   UNL     1      -2.583  12.923  22.118  0.00  0.00    +0.000 A 
ATOM      8  C   UNL     1      -1.801  13.944  21.847  0.00  0.00    +0.000 A 
ATOM      9  N   UNL     1      -2.642  15.249  22.401  0.00  0.00    +0.000 N 
ATOM     10  C   UNL     1      -1.895  16.482  22.767  0.00  0.00    +0.000 C 
ATOM     11  C   UNL     1      -1.758  16.841  24.308  0.00  0.00    +0.000 C 
ATOM     12  O   UNL     1      -3.005  17.097  24.960  0.00  0.00    +0.000 OA
ATOM     13  C   UNL     1      -3.740  15.877  24.984  0.00  0.00    +0.000 C 
ATOM     14  C   UNL     1      -3.978  15.317  23.483  0.00  0.00    +0.000 C 
ATOM     15  N   UNL     1      -0.403  13.299  21.385  0.00  0.00    +0.000 NA
ATOM     16  C   UNL     1       0.094  11.593  21.274  0.00  0.00    +0.000 A 
ENDROOT
BRANCH   1  21
ATOM     17  C   UNL     1       2.513   6.853  19.467  0.00  0.00    +0.000 A 
ATOM     18  C   UNL     1       2.598   7.205  18.123  0.00  0.00    +0.000 A 
ATOM     19  C   UNL     1       2.065   8.447  17.767  0.00  0.00    +0.000 A 
ATOM     20  C   UNL     1       1.422   9.281  18.716  0.00  0.00    +0.000 A 
ATOM     21  C   UNL     1       1.244   8.864  20.064  0.00  0.00    +0.000 A 
ATOM     22  N   UNL     1       1.858   7.659  20.408  0.00  0.00    +0.000 NA
BRANCH  17  24
ATOM     23  C   UNL     1       4.354   5.273  19.348  0.00  0.00    +0.000 C 
ATOM     24  O   UNL     1       3.033   5.596  19.833  0.00  0.00    +0.000 OA
ENDBRANCH  17  24
ENDBRANCH   1  21
BRANCH   6  25
ATOM     25  O   UNL     1      -2.087  12.403  19.836  0.00  0.00    +0.000 OA
BRANCH  25  26
ATOM     26  C   UNL     1      -2.415  11.512  18.708  0.00  0.00    +0.000 C 
ATOM     27  C   UNL     1      -3.910  11.770  18.498  0.00  0.00    +0.000 C 
ATOM     28  C   UNL     1      -1.689  11.826  17.387  0.00  0.00    +0.000 C 
ENDBRANCH  25  26
ENDBRANCH   6  25
TORSDOF 4
ENDMDL
MODEL 6
REMARK VINA RESULT:      -6.8      3.045      9.628
REMARK  Name = 
REMARK  7 active torsions:
REMARK  status: ('A' for Active; 'I' for Inactive)
REMARK    1  A    between atoms: C_1  and  O_2
REMARK    2  A    between atoms: O_2  and  C_3
REMARK    3  A    between atoms: C_7  and  C_8
REMARK    4  A    between atoms: C_13  and  O_14
REMARK    5  A    between atoms: O_14  and  C_15
REMARK    6  A    between atoms: C_15  and  C_16
REMARK    7  A    between atoms: C_15  and  C_17
REMARK                            x       y       z     vdW  Elec       q    Type
REMARK                         _______ _______ _______ _____ _____    ______ ____
ROOT
ATOM      1  C   UNL     1       0.796   9.561  21.157  0.00  0.00    +0.000 A 
ATOM      2  N   UNL     1       0.400   9.014  22.376  0.00  0.00    +0.000 NA
ATOM      3  C   UNL     1      -0.253   9.876  23.119  0.00  0.00    +0.000 A 
ATOM      4  C   UNL     1      -0.860  10.940  22.510  0.00  0.00    +0.000 A 
ATOM      5  C   UNL     1      -0.708  11.117  21.104  0.00  0.00    +0.000 A 
ATOM      6  C   UNL     1      -1.589  11.810  20.207  0.00  0.00    +0.000 A 
ATOM      7  C   UNL     1      -2.024  12.979  20.751  0.00  0.00    +0.000 A 
ATOM      8  C   UNL     1      -1.069  13.841  20.484  0.00  0.00    +0.000 A 
ATOM      9  N   UNL     1      -1.817  15.307  20.578  0.00  0.00    +0.000 N 
ATOM     10  C   UNL     1      -0.998  16.513  20.872  0.00  0.00    +0.000 C 
ATOM     11  C   UNL     1      -1.136  17.175  22.309  0.00  0.00    +0.000 C 
ATOM     12  O   UNL     1      -2.443  17.679  22.596  0.00  0.00    +0.000 OA
ATOM     13  C   UNL     1      -3.329  16.566  22.675  0.00  0.00    +0.000 C 
ATOM     14  C   UNL     1      -3.326  15.728  21.290  0.00  0.00    +0.000 C 
ATOM     15  N   UNL     1       0.291  12.984  20.485  0.00  0.00    +0.000 NA
ATOM     16  C   UNL     1       0.558  11.255  20.809  0.00  0.00    +0.000 A 
ENDROOT
BRANCH   1  21
ATOM     17  C   UNL     1       2.696   7.175  18.535  0.00  0.00    +0.000 A 
ATOM     18  C   UNL     1       2.615   5.903  19.094  0.00  0.00    +0.000 A 
ATOM     19  C   UNL     1       1.916   5.793  20.299  0.00  0.00    +0.000 A 
ATOM     20  C   UNL     1       1.363   6.927  20.946  0.00  0.00    +0.000 A 
ATOM     21  C   UNL     1       1.545   8.236  20.423  0.00  0.00    +0.000 A 
ATOM     22  N   UNL     1       2.174   8.306  19.180  0.00  0.00    +0.000 NA
BRANCH  17  24
ATOM     23  C   UNL     1       4.725   6.698  17.289  0.00  0.00    +0.000 C 
ATOM     24  O   UNL     1       3.413   7.300  17.330  0.00  0.00    +0.000 OA
ENDBRANCH  17  24
ENDBRANCH   1  21
BRANCH   6  25
ATOM     25  O   UNL     1      -1.143  11.944  18.782  0.00  0.00    +0.000 OA
BRANCH  25  26
ATOM     26  C   UNL     1      -1.950  11.436  17.658  0.00  0.00    +0.000 C 
ATOM     27  C   UNL     1      -1.449   9.996  17.507  0.00  0.00    +0.000 C 
ATOM     28  C   UNL     1      -3.469  11.387  17.906  0.00  0.00    +0.000 C 
ENDBRANCH  25  26
ENDBRANCH   6  25
TORSDOF 4
ENDMDL
MODEL 7
REMARK VINA RESULT:      -6.8      2.763      9.124
REMARK  Name = 
REMARK  7 active torsions:
REMARK  status: ('A' for Active; 'I' for Inactive)
REMARK    1  A    between atoms: C_1  and  O_2
REMARK    2  A    between atoms: O_2  and  C_3
REMARK    3  A    between atoms: C_7  and  C_8
REMARK    4  A    between atoms: C_13  and  O_14
REMARK    5  A    between atoms: O_14  and  C_15
REMARK    6  A    between atoms: C_15  and  C_16
REMARK    7  A    between atoms: C_15  and  C_17
REMARK                            x       y       z     vdW  Elec       q    Type
REMARK                         _______ _______ _______ _____ _____    ______ ____
ROOT
ATOM      1  C   UNL     1       1.790   8.345  19.755  0.00  0.00    +0.000 A 
ATOM      2  N   UNL     1       1.733   7.802  21.037  0.00  0.00    +0.000 NA
ATOM      3  C   UNL     1       1.156   8.612  21.894  0.00  0.00    +0.000 A 
ATOM      4  C   UNL     1       0.310   9.575  21.418  0.00  0.00    +0.000 A 
ATOM      5  C   UNL     1       0.135   9.716  20.012  0.00  0.00    +0.000 A 
ATOM      6  C   UNL     1      -0.994  10.270  19.319  0.00  0.00    +0.000 A 
ATOM      7  C   UNL     1      -1.439  11.401  19.930  0.00  0.00    +0.000 A 
ATOM      8  C   UNL     1      -0.673  12.356  19.452  0.00  0.00    +0.000 A 
ATOM      9  N   UNL     1      -1.553  13.729  19.688  0.00  0.00    +0.000 N 
ATOM     10  C   UNL     1      -0.840  15.031  19.783  0.00  0.00    +0.000 C 
ATOM     11  C   UNL     1      -0.745  15.727  21.208  0.00  0.00    +0.000 C 
ATOM     12  O   UNL     1      -2.011  16.088  21.766  0.00  0.00    +0.000 OA
ATOM     13  C   UNL     1      -2.720  14.886  22.049  0.00  0.00    +0.000 C 
ATOM     14  C   UNL     1      -2.914  14.002  20.706  0.00  0.00    +0.000 C 
ATOM     15  N   UNL     1       0.748  11.660  19.168  0.00  0.00    +0.000 NA
ATOM     16  C   UNL     1       1.283   9.986  19.446  0.00  0.00    +0.000 A 
ENDROOT
BRANCH   1  21
ATOM     17  C   UNL     1       4.035   6.251  17.157  0.00  0.00    +0.000 A 
ATOM     18  C   UNL     1       3.578   4.942  17.272  0.00  0.00    +0.000 A 
ATOM     19  C   UNL     1       2.518   4.725  18.156  0.00  0.00    +0.000 A 
ATOM     20  C   UNL     1       1.972   5.775  18.936  0.00  0.00    +0.000 A 
ATOM     21  C   UNL     1       2.517   7.087  18.892  0.00  0.00    +0.000 A 
ATOM     22  N   UNL     1       3.519   7.292  17.942  0.00  0.00    +0.000 NA
BRANCH  17  24
ATOM     23  C   UNL     1       6.308   5.695  16.504  0.00  0.00    +0.000 C 
ATOM     24  O   UNL     1       5.115   6.476  16.281  0.00  0.00    +0.000 OA
ENDBRANCH  17  24
ENDBRANCH   1  21
BRANCH   6  25
ATOM     25  O   UNL     1      -0.883  10.400  17.829  0.00  0.00    +0.000 OA
BRANCH  25  26
ATOM     26  C   UNL     1      -1.959   9.961  16.923  0.00  0.00    +0.000 C 
ATOM     27  C   UNL     1      -3.053   9.505  17.895  0.00  0.00    +0.000 C 
ATOM     28  C   UNL     1      -2.553  11.059  16.022  0.00  0.00    +0.000 C 
ENDBRANCH  25  26
ENDBRANCH   6  25
TORSDOF 4
ENDMDL
MODEL 8
REMARK VINA RESULT:      -6.7      2.973      9.011
REMARK  Name = 
REMARK  7 active torsions:
REMARK  status: ('A' for Active; 'I' for Inactive)
REMARK    1  A    between atoms: C_1  and  O_2
REMARK    2  A    between atoms: O_2  and  C_3
REMARK    3  A    between atoms: C_7  and  C_8
REMARK    4  A    between atoms: C_13  and  O_14
REMARK    5  A    between atoms: O_14  and  C_15
REMARK    6  A    between atoms: C_15  and  C_16
REMARK    7  A    between atoms: C_15  and  C_17
REMARK                            x       y       z     vdW  Elec       q    Type
REMARK                         _______ _______ _______ _____ _____    ______ ____
ROOT
ATOM      1  C   UNL     1       1.387   8.558  20.380  0.00  0.00    +0.000 A 
ATOM      2  N   UNL     1       1.449   8.257  21.739  0.00  0.00    +0.000 NA
ATOM      3  C   UNL     1       1.134   9.286  22.490  0.00  0.00    +0.000 A 
ATOM      4  C   UNL     1       0.374  10.286  21.948  0.00  0.00    +0.000 A 
ATOM      5  C   UNL     1       0.008  10.214  20.574  0.00  0.00    +0.000 A 
ATOM      6  C   UNL     1      -1.123  10.828  19.935  0.00  0.00    +0.000 A 
ATOM      7  C   UNL     1      -1.300  12.105  20.369  0.00  0.00    +0.000 A 
ATOM      8  C   UNL     1      -0.486  12.821  19.625  0.00  0.00    +0.000 A 
ATOM      9  N   UNL     1      -1.111  14.344  19.702  0.00  0.00    +0.000 N 
ATOM     10  C   UNL     1      -0.211  15.502  19.457  0.00  0.00    +0.000 C 
ATOM     11  C   UNL     1       0.202  16.402  20.699  0.00  0.00    +0.000 C 
ATOM     12  O   UNL     1      -0.898  17.063  21.331  0.00  0.00    +0.000 OA
ATOM     13  C   UNL     1      -1.721  16.064  21.925  0.00  0.00    +0.000 C 
ATOM     14  C   UNL     1      -2.245  15.012  20.810  0.00  0.00    +0.000 C 
ATOM     15  N   UNL     1       0.758  11.855  19.304  0.00  0.00    +0.000 NA
ATOM     16  C   UNL     1       1.082  10.185  19.829  0.00  0.00    +0.000 A 
ENDROOT
BRANCH   1  21
ATOM     17  C   UNL     1       1.960   4.623  19.777  0.00  0.00    +0.000 A 
ATOM     18  C   UNL     1       2.677   4.550  18.587  0.00  0.00    +0.000 A 
ATOM     19  C   UNL     1       3.018   5.765  17.987  0.00  0.00    +0.000 A 
ATOM     20  C   UNL     1       2.607   7.007  18.534  0.00  0.00    +0.000 A 
ATOM     21  C   UNL     1       1.783   7.067  19.690  0.00  0.00    +0.000 A 
ATOM     22  N   UNL     1       1.528   5.844  20.313  0.00  0.00    +0.000 NA
BRANCH  17  24
ATOM     23  C   UNL     1       2.281   3.055  21.604  0.00  0.00    +0.000 C 
ATOM     24  O   UNL     1       1.597   3.403  20.381  0.00  0.00    +0.000 OA
ENDBRANCH  17  24
ENDBRANCH   1  21
BRANCH   6  25
ATOM     25  O   UNL     1      -1.224  10.684  18.445  0.00  0.00    +0.000 OA
BRANCH  25  26
ATOM     26  C   UNL     1      -2.404  10.085  17.796  0.00  0.00    +0.000 C 
ATOM     27  C   UNL     1      -3.489  11.142  18.027  0.00  0.00    +0.000 C 
ATOM     28  C   UNL     1      -2.278   9.859  16.278  0.00  0.00    +0.000 C 
ENDBRANCH  25  26
ENDBRANCH   6  25
TORSDOF 4
ENDMDL
MODEL 9
REMARK VINA RESULT:      -6.6      6.036      8.349
REMARK  Name = 
REMARK  7 active torsions:
REMARK  status: ('A' for Active; 'I' for Inactive)
REMARK    1  A    between atoms: C_1  and  O_2
REMARK    2  A    between atoms: O_2  and  C_3
REMARK    3  A    between atoms: C_7  and  C_8
REMARK    4  A    between atoms: C_13  and  O_14
REMARK    5  A    between atoms: O_14  and  C_15
REMARK    6  A    between atoms: C_15  and  C_16
REMARK    7  A    between atoms: C_15  and  C_17
REMARK                            x       y       z     vdW  Elec       q    Type
REMARK                         _______ _______ _______ _____ _____    ______ ____
ROOT
ATOM      1  C   UNL     1       2.502  14.187  20.206  0.00  0.00    +0.000 A 
ATOM      2  N   UNL     1       2.108  15.517  20.083  0.00  0.00    +0.000 NA
ATOM      3  C   UNL     1       0.984  15.642  19.415  0.00  0.00    +0.000 A 
ATOM      4  C   UNL     1       0.138  14.569  19.349  0.00  0.00    +0.000 A 
ATOM      5  C   UNL     1       0.530  13.335  19.943  0.00  0.00    +0.000 A 
ATOM      6  C   UNL     1      -0.321  12.282  20.420  0.00  0.00    +0.000 A 
ATOM      7  C   UNL     1      -1.343  12.044  19.553  0.00  0.00    +0.000 A 
ATOM      8  C   UNL     1      -0.830  11.230  18.657  0.00  0.00    +0.000 A 
ATOM      9  N   UNL     1      -2.144  10.484  18.000  0.00  0.00    +0.000 N 
ATOM     10  C   UNL     1      -2.037   9.918  16.629  0.00  0.00    +0.000 C 
ATOM     11  C   UNL     1      -2.793  10.669  15.451  0.00  0.00    +0.000 C 
ATOM     12  O   UNL     1      -4.215  10.705  15.601  0.00  0.00    +0.000 OA
ATOM     13  C   UNL     1      -4.512  11.516  16.733  0.00  0.00    +0.000 C 
ATOM     14  C   UNL     1      -3.807  10.924  18.066  0.00  0.00    +0.000 C 
ATOM     15  N   UNL     1       0.723  11.631  18.556  0.00  0.00    +0.000 NA
ATOM     16  C   UNL     1       1.637  12.909  19.392  0.00  0.00    +0.000 A 
ENDROOT
BRANCH   1  21
ATOM     17  C   UNL     1       5.105  14.318  23.270  0.00  0.00    +0.000 A 
ATOM     18  C   UNL     1       6.274  14.832  22.718  0.00  0.00    +0.000 A 
ATOM     19  C   UNL     1       6.226  15.179  21.365  0.00  0.00    +0.000 A 
ATOM     20  C   UNL     1       5.063  14.967  20.582  0.00  0.00    +0.000 A 
ATOM     21  C   UNL     1       3.910  14.341  21.129  0.00  0.00    +0.000 A 
ATOM     22  N   UNL     1       3.958  14.082  22.499  0.00  0.00    +0.000 NA
BRANCH  17  24
ATOM     23  C   UNL     1       5.374  15.010  25.583  0.00  0.00    +0.000 C 
ATOM     24  O   UNL     1       5.148  13.950  24.629  0.00  0.00    +0.000 OA
ENDBRANCH  17  24
ENDBRANCH   1  21
BRANCH   6  25
ATOM     25  O   UNL     1       0.349  11.033  20.909  0.00  0.00    +0.000 OA
BRANCH  25  26
ATOM     26  C   UNL     1       0.058  10.456  22.234  0.00  0.00    +0.000 C 
ATOM     27  C   UNL     1      -1.017  11.399  22.784  0.00  0.00    +0.000 C 
ATOM     28  C   UNL     1      -0.524   9.030  22.220  0.00  0.00    +0.000 C 
ENDBRANCH  25  26
ENDBRANCH   6  25
TORSDOF 4
ENDMDL
