MODEL 1
REMARK VINA RESULT:      -8.4      0.000      0.000
REMARK  Name = 
REMARK  9 active torsions:
REMARK  status: ('A' for Active; 'I' for Inactive)
REMARK    1  A    between atoms: C_1  and  O_2
REMARK    2  A    between atoms: O_2  and  C_3
REMARK    3  A    between atoms: C_6  and  C_7
REMARK    4  A    between atoms: C_9  and  N_10
REMARK    5  A    between atoms: C_11  and  C_13
REMARK    6  A    between atoms: C_13  and  N_14
REMARK    7  A    between atoms: N_14  and  C_15
REMARK    8  A    between atoms: N_14  and  S_16
REMARK    9  A    between atoms: S_16  and  C_19
REMARK                            x       y       z     vdW  Elec       q    Type
REMARK                         _______ _______ _______ _____ _____    ______ ____
ROOT
ATOM      1  N   UNL     1       3.780   3.130  20.039  0.00  0.00    +0.000 NA
ATOM      2  C   UNL     1       4.654   2.064  20.622  0.00  0.00    +0.000 C 
ENDROOT
BRANCH   1   3
ATOM      3  S   UNL     1       3.443   2.802  18.378  0.00  0.00    +0.000 S 
ATOM      4  O   UNL     1       3.650   1.386  18.161  0.00  0.00    +0.000 OA
ATOM      5  O   UNL     1       2.179   3.436  18.065  0.00  0.00    +0.000 OA
BRANCH   3   6
ATOM      6  C   UNL     1       4.729   3.645  17.488  0.00  0.00    +0.000 A 
ATOM      7  C   UNL     1       5.796   4.218  18.219  0.00  0.00    +0.000 A 
ATOM      8  C   UNL     1       6.863   4.832  17.552  0.00  0.00    +0.000 A 
ATOM      9  C   UNL     1       6.814   4.838  16.179  0.00  0.00    +0.000 A 
ATOM     10  N   UNL     1       7.695   5.329  15.259  0.00  0.00    +0.000 N 
ATOM     11  C   UNL     1       7.191   5.062  14.007  0.00  0.00    +0.000 A 
ATOM     12  O   UNL     1       7.731   5.377  12.958  0.00  0.00    +0.000 OA
ATOM     13  O   UNL     1       5.967   4.384  14.089  0.00  0.00    +0.000 OA
ATOM     14  C   UNL     1       5.782   4.269  15.459  0.00  0.00    +0.000 A 
ATOM     15  C   UNL     1       4.716   3.657  16.085  0.00  0.00    +0.000 A 
ATOM     16  H   UNL     1       8.568   5.807  15.423  0.00  0.00    +0.000 HD
ENDBRANCH   3   6
ENDBRANCH   1   3
BRANCH   1  17
ATOM     17  C   UNL     1       2.542   3.321  20.857  0.00  0.00    +0.000 C 
BRANCH  17  19
ATOM     18  N   UNL     1       2.564   5.706  20.284  0.00  0.00    +0.000 N 
ATOM     19  C   UNL     1       1.771   4.599  20.547  0.00  0.00    +0.000 C 
ATOM     20  O   UNL     1       0.541   4.574  20.545  0.00  0.00    +0.000 OA
ATOM     21  H   UNL     1       3.560   5.616  20.479  0.00  0.00    +0.000 HD
BRANCH  18  28
ATOM     22  C   UNL     1       2.332   7.523  18.667  0.00  0.00    +0.000 A 
ATOM     23  C   UNL     1       1.869   8.808  18.343  0.00  0.00    +0.000 A 
ATOM     24  C   UNL     1       1.224   9.595  19.297  0.00  0.00    +0.000 A 
ATOM     25  C   UNL     1       1.009   9.104  20.582  0.00  0.00    +0.000 A 
ATOM     26  C   UNL     1       0.311   9.924  21.623  0.00  0.00    +0.000 C 
ATOM     27  C   UNL     1       1.454   7.814  20.903  0.00  0.00    +0.000 A 
ATOM     28  C   UNL     1       2.115   7.011  19.963  0.00  0.00    +0.000 A 
BRANCH  22  30
ATOM     29  C   UNL     1       4.199   7.294  17.226  0.00  0.00    +0.000 C 
ATOM     30  O   UNL     1       3.011   6.720  17.777  0.00  0.00    +0.000 OA
ENDBRANCH  22  30
ENDBRANCH  18  28
ENDBRANCH  17  19
ENDBRANCH   1  17
TORSDOF 6
ENDMDL
MODEL 2
REMARK VINA RESULT:      -8.1      1.390      1.754
REMARK  Name = 
REMARK  9 active torsions:
REMARK  status: ('A' for Active; 'I' for Inactive)
REMARK    1  A    between atoms: C_1  and  O_2
REMARK    2  A    between atoms: O_2  and  C_3
REMARK    3  A    between atoms: C_6  and  C_7
REMARK    4  A    between atoms: C_9  and  N_10
REMARK    5  A    between atoms: C_11  and  C_13
REMARK    6  A    between atoms: C_13  and  N_14
REMARK    7  A    between atoms: N_14  and  C_15
REMARK    8  A    between atoms: N_14  and  S_16
REMARK    9  A    between atoms: S_16  and  C_19
REMARK                            x       y       z     vdW  Elec       q    Type
REMARK                         _______ _______ _______ _____ _____    ______ ____
ROOT
ATOM      1  N   UNL     1       2.670   3.678  19.272  0.00  0.00    +0.000 NA
ATOM      2  C   UNL     1       2.104   4.255  18.012  0.00  0.00    +0.000 C 
ENDROOT
BRANCH   1   3
ATOM      3  S   UNL     1       4.031   2.674  18.924  0.00  0.00    +0.000 S 
ATOM      4  O   UNL     1       4.740   2.453  20.165  0.00  0.00    +0.000 OA
ATOM      5  O   UNL     1       3.552   1.567  18.122  0.00  0.00    +0.000 OA
BRANCH   3   6
ATOM      6  C   UNL     1       5.082   3.685  17.910  0.00  0.00    +0.000 A 
ATOM      7  C   UNL     1       5.925   4.631  18.539  0.00  0.00    +0.000 A 
ATOM      8  C   UNL     1       6.819   5.400  17.783  0.00  0.00    +0.000 A 
ATOM      9  C   UNL     1       6.829   5.180  16.427  0.00  0.00    +0.000 A 
ATOM     10  N   UNL     1       7.587   5.742  15.440  0.00  0.00    +0.000 N 
ATOM     11  C   UNL     1       7.227   5.159  14.247  0.00  0.00    +0.000 A 
ATOM     12  O   UNL     1       7.709   5.443  13.161  0.00  0.00    +0.000 OA
ATOM     13  O   UNL     1       6.226   4.197  14.436  0.00  0.00    +0.000 OA
ATOM     14  C   UNL     1       6.019   4.249  15.807  0.00  0.00    +0.000 A 
ATOM     15  C   UNL     1       5.128   3.477  16.523  0.00  0.00    +0.000 A 
ATOM     16  H   UNL     1       8.292   6.458  15.525  0.00  0.00    +0.000 HD
ENDBRANCH   3   6
ENDBRANCH   1   3
BRANCH   1  17
ATOM     17  C   UNL     1       2.979   4.751  20.268  0.00  0.00    +0.000 C 
BRANCH  17  19
ATOM     18  N   UNL     1       2.260   7.085  20.486  0.00  0.00    +0.000 N 
ATOM     19  C   UNL     1       1.855   5.759  20.479  0.00  0.00    +0.000 C 
ATOM     20  O   UNL     1       0.703   5.353  20.621  0.00  0.00    +0.000 OA
ATOM     21  H   UNL     1       3.262   7.261  20.518  0.00  0.00    +0.000 HD
BRANCH  18  28
ATOM     22  C   UNL     1       1.178   9.070  19.559  0.00  0.00    +0.000 A 
ATOM     23  C   UNL     1       0.341  10.184  19.723  0.00  0.00    +0.000 A 
ATOM     24  C   UNL     1      -0.222  10.478  20.965  0.00  0.00    +0.000 A 
ATOM     25  C   UNL     1       0.023   9.651  22.058  0.00  0.00    +0.000 A 
ATOM     26  C   UNL     1      -0.575   9.937  23.401  0.00  0.00    +0.000 C 
ATOM     27  C   UNL     1       0.845   8.528  21.893  0.00  0.00    +0.000 A 
ATOM     28  C   UNL     1       1.430   8.221  20.657  0.00  0.00    +0.000 A 
BRANCH  22  30
ATOM     29  C   UNL     1       2.234   9.880  17.597  0.00  0.00    +0.000 C 
ATOM     30  O   UNL     1       1.793   8.757  18.366  0.00  0.00    +0.000 OA
ENDBRANCH  22  30
ENDBRANCH  18  28
ENDBRANCH  17  19
ENDBRANCH   1  17
TORSDOF 6
ENDMDL
MODEL 3
REMARK VINA RESULT:      -8.0      4.304      8.327
REMARK  Name = 
REMARK  9 active torsions:
REMARK  status: ('A' for Active; 'I' for Inactive)
REMARK    1  A    between atoms: C_1  and  O_2
REMARK    2  A    between atoms: O_2  and  C_3
REMARK    3  A    between atoms: C_6  and  C_7
REMARK    4  A    between atoms: C_9  and  N_10
REMARK    5  A    between atoms: C_11  and  C_13
REMARK    6  A    between atoms: C_13  and  N_14
REMARK    7  A    between atoms: N_14  and  C_15
REMARK    8  A    between atoms: N_14  and  S_16
REMARK    9  A    between atoms: S_16  and  C_19
REMARK                            x       y       z     vdW  Elec       q    Type
REMARK                         _______ _______ _______ _____ _____    ______ ____
ROOT
ATOM      1  N   UNL     1      -0.024   9.322  21.748  0.00  0.00    +0.000 NA
ATOM      2  C   UNL     1      -0.738   8.948  23.009  0.00  0.00    +0.000 C 
ENDROOT
BRANCH   1   3
ATOM      3  S   UNL     1      -0.022  11.035  21.534  0.00  0.00    +0.000 S 
ATOM      4  O   UNL     1      -0.942  11.597  22.499  0.00  0.00    +0.000 OA
ATOM      5  O   UNL     1       1.361  11.457  21.475  0.00  0.00    +0.000 OA
BRANCH   3   6
ATOM      6  C   UNL     1      -0.752  11.283  19.933  0.00  0.00    +0.000 A 
ATOM      7  C   UNL     1      -0.494  12.495  19.250  0.00  0.00    +0.000 A 
ATOM      8  C   UNL     1      -0.993  12.702  17.958  0.00  0.00    +0.000 A 
ATOM      9  C   UNL     1      -1.726  11.679  17.407  0.00  0.00    +0.000 A 
ATOM     10  N   UNL     1      -2.317  11.568  16.181  0.00  0.00    +0.000 N 
ATOM     11  C   UNL     1      -2.914  10.330  16.111  0.00  0.00    +0.000 A 
ATOM     12  O   UNL     1      -3.539   9.914  15.148  0.00  0.00    +0.000 OA
ATOM     13  O   UNL     1      -2.716   9.605  17.293  0.00  0.00    +0.000 OA
ATOM     14  C   UNL     1      -1.971  10.488  18.062  0.00  0.00    +0.000 A 
ATOM     15  C   UNL     1      -1.494  10.252  19.335  0.00  0.00    +0.000 A 
ATOM     16  H   UNL     1      -2.340  12.245  15.435  0.00  0.00    +0.000 HD
ENDBRANCH   3   6
ENDBRANCH   1   3
BRANCH   1  17
ATOM     17  C   UNL     1       1.350   8.730  21.708  0.00  0.00    +0.000 C 
BRANCH  17  19
ATOM     18  N   UNL     1       2.196   6.732  20.565  0.00  0.00    +0.000 N 
ATOM     19  C   UNL     1       1.692   8.015  20.407  0.00  0.00    +0.000 C 
ATOM     20  O   UNL     1       1.505   8.592  19.337  0.00  0.00    +0.000 OA
ATOM     21  H   UNL     1       2.445   6.448  21.510  0.00  0.00    +0.000 HD
BRANCH  18  28
ATOM     22  C   UNL     1       2.081   4.530  19.512  0.00  0.00    +0.000 A 
ATOM     23  C   UNL     1       2.454   3.658  18.478  0.00  0.00    +0.000 A 
ATOM     24  C   UNL     1       3.346   4.068  17.485  0.00  0.00    +0.000 A 
ATOM     25  C   UNL     1       3.860   5.362  17.497  0.00  0.00    +0.000 A 
ATOM     26  C   UNL     1       4.811   5.832  16.439  0.00  0.00    +0.000 C 
ATOM     27  C   UNL     1       3.474   6.241  18.518  0.00  0.00    +0.000 A 
ATOM     28  C   UNL     1       2.589   5.846  19.531  0.00  0.00    +0.000 A 
BRANCH  22  30
ATOM     29  C   UNL     1       1.343   2.801  20.955  0.00  0.00    +0.000 C 
ATOM     30  O   UNL     1       1.238   4.165  20.538  0.00  0.00    +0.000 OA
ENDBRANCH  22  30
ENDBRANCH  18  28
ENDBRANCH  17  19
ENDBRANCH   1  17
TORSDOF 6
ENDMDL
MODEL 4
REMARK VINA RESULT:      -8.0      5.467      7.529
REMARK  Name = 
REMARK  9 active torsions:
REMARK  status: ('A' for Active; 'I' for Inactive)
REMARK    1  A    between atoms: C_1  and  O_2
REMARK    2  A    between atoms: O_2  and  C_3
REMARK    3  A    between atoms: C_6  and  C_7
REMARK    4  A    between atoms: C_9  and  N_10
REMARK    5  A    between atoms: C_11  and  C_13
REMARK    6  A    between atoms: C_13  and  N_14
REMARK    7  A    between atoms: N_14  and  C_15
REMARK    8  A    between atoms: N_14  and  S_16
REMARK    9  A    between atoms: S_16  and  C_19
REMARK                            x       y       z     vdW  Elec       q    Type
REMARK                         _______ _______ _______ _____ _____    ______ ____
ROOT
ATOM      1  N   UNL     1       7.234   6.784  18.127  0.00  0.00    +0.000 NA
ATOM      2  C   UNL     1       7.392   6.705  16.641  0.00  0.00    +0.000 C 
ENDROOT
BRANCH   1   3
ATOM      3  S   UNL     1       6.960   5.216  18.795  0.00  0.00    +0.000 S 
ATOM      4  O   UNL     1       7.603   4.252  17.928  0.00  0.00    +0.000 OA
ATOM      5  O   UNL     1       7.279   5.291  20.206  0.00  0.00    +0.000 OA
BRANCH   3   6
ATOM      6  C   UNL     1       5.210   4.960  18.629  0.00  0.00    +0.000 A 
ATOM      7  C   UNL     1       4.411   6.025  18.149  0.00  0.00    +0.000 A 
ATOM      8  C   UNL     1       3.039   5.844  17.938  0.00  0.00    +0.000 A 
ATOM      9  C   UNL     1       2.530   4.598  18.216  0.00  0.00    +0.000 A 
ATOM     10  N   UNL     1       1.261   4.109  18.096  0.00  0.00    +0.000 N 
ATOM     11  C   UNL     1       1.279   2.789  18.484  0.00  0.00    +0.000 A 
ATOM     12  O   UNL     1       0.301   2.057  18.504  0.00  0.00    +0.000 OA
ATOM     13  O   UNL     1       2.568   2.390  18.861  0.00  0.00    +0.000 OA
ATOM     14  C   UNL     1       3.305   3.551  18.673  0.00  0.00    +0.000 A 
ATOM     15  C   UNL     1       4.659   3.696  18.891  0.00  0.00    +0.000 A 
ATOM     16  H   UNL     1       0.432   4.591  17.785  0.00  0.00    +0.000 HD
ENDBRANCH   3   6
ENDBRANCH   1   3
BRANCH   1  17
ATOM     17  C   UNL     1       8.391   7.491  18.758  0.00  0.00    +0.000 C 
BRANCH  17  19
ATOM     18  N   UNL     1       9.460   9.666  19.133  0.00  0.00    +0.000 N 
ATOM     19  C   UNL     1       8.459   8.984  18.458  0.00  0.00    +0.000 C 
ATOM     20  O   UNL     1       7.658   9.474  17.664  0.00  0.00    +0.000 OA
ATOM     21  H   UNL     1       9.940   9.163  19.876  0.00  0.00    +0.000 HD
BRANCH  18  28
ATOM     22  C   UNL     1       9.400  11.909  20.102  0.00  0.00    +0.000 A 
ATOM     23  C   UNL     1       9.706  13.276  20.017  0.00  0.00    +0.000 A 
ATOM     24  C   UNL     1      10.326  13.800  18.883  0.00  0.00    +0.000 A 
ATOM     25  C   UNL     1      10.672  12.964  17.825  0.00  0.00    +0.000 A 
ATOM     26  C   UNL     1      11.347  13.498  16.598  0.00  0.00    +0.000 C 
ATOM     27  C   UNL     1      10.385  11.595  17.914  0.00  0.00    +0.000 A 
ATOM     28  C   UNL     1       9.751  11.050  19.039  0.00  0.00    +0.000 A 
BRANCH  22  30
ATOM     29  C   UNL     1       8.762  12.135  22.373  0.00  0.00    +0.000 C 
ATOM     30  O   UNL     1       8.752  11.346  21.179  0.00  0.00    +0.000 OA
ENDBRANCH  22  30
ENDBRANCH  18  28
ENDBRANCH  17  19
ENDBRANCH   1  17
TORSDOF 6
ENDMDL
MODEL 5
REMARK VINA RESULT:      -7.9      1.901      2.292
REMARK  Name = 
REMARK  9 active torsions:
REMARK  status: ('A' for Active; 'I' for Inactive)
REMARK    1  A    between atoms: C_1  and  O_2
REMARK    2  A    between atoms: O_2  and  C_3
REMARK    3  A    between atoms: C_6  and  C_7
REMARK    4  A    between atoms: C_9  and  N_10
REMARK    5  A    between atoms: C_11  and  C_13
REMARK    6  A    between atoms: C_13  and  N_14
REMARK    7  A    between atoms: N_14  and  C_15
REMARK    8  A    between atoms: N_14  and  S_16
REMARK    9  A    between atoms: S_16  and  C_19
REMARK                            x       y       z     vdW  Elec       q    Type
REMARK                         _______ _______ _______ _____ _____    ______ ____
ROOT
ATOM      1  N   UNL     1       2.493   2.767  19.804  0.00  0.00    +0.000 NA
ATOM      2  C   UNL     1       1.727   3.278  18.625  0.00  0.00    +0.000 C 
ENDROOT
BRANCH   1   3
ATOM      3  S   UNL     1       4.023   2.137  19.311  0.00  0.00    +0.000 S 
ATOM      4  O   UNL     1       4.842   2.000  20.496  0.00  0.00    +0.000 OA
ATOM      5  O   UNL     1       3.761   1.011  18.440  0.00  0.00    +0.000 OA
BRANCH   3   6
ATOM      6  C   UNL     1       4.747   3.438  18.340  0.00  0.00    +0.000 A 
ATOM      7  C   UNL     1       4.362   3.567  16.985  0.00  0.00    +0.000 A 
ATOM      8  C   UNL     1       4.857   4.620  16.205  0.00  0.00    +0.000 A 
ATOM      9  C   UNL     1       5.713   5.498  16.822  0.00  0.00    +0.000 A 
ATOM     10  N   UNL     1       6.335   6.617  16.347  0.00  0.00    +0.000 N 
ATOM     11  C   UNL     1       7.072   7.159  17.374  0.00  0.00    +0.000 A 
ATOM     12  O   UNL     1       7.759   8.165  17.282  0.00  0.00    +0.000 OA
ATOM     13  O   UNL     1       6.939   6.403  18.546  0.00  0.00    +0.000 OA
ATOM     14  C   UNL     1       6.083   5.386  18.148  0.00  0.00    +0.000 A 
ATOM     15  C   UNL     1       5.614   4.362  18.944  0.00  0.00    +0.000 A 
ATOM     16  H   UNL     1       6.292   7.010  15.419  0.00  0.00    +0.000 HD
ENDBRANCH   3   6
ENDBRANCH   1   3
BRANCH   1  17
ATOM     17  C   UNL     1       2.611   3.813  20.868  0.00  0.00    +0.000 C 
BRANCH  17  19
ATOM     18  N   UNL     1       2.350   6.244  20.668  0.00  0.00    +0.000 N 
ATOM     19  C   UNL     1       1.699   5.018  20.672  0.00  0.00    +0.000 C 
ATOM     20  O   UNL     1       0.490   4.841  20.531  0.00  0.00    +0.000 OA
ATOM     21  H   UNL     1       3.326   6.248  20.956  0.00  0.00    +0.000 HD
BRANCH  18  28
ATOM     22  C   UNL     1       1.799   8.149  19.241  0.00  0.00    +0.000 A 
ATOM     23  C   UNL     1       1.189   9.401  19.071  0.00  0.00    +0.000 A 
ATOM     24  C   UNL     1       0.563  10.042  20.140  0.00  0.00    +0.000 A 
ATOM     25  C   UNL     1       0.515   9.433  21.391  0.00  0.00    +0.000 A 
ATOM     26  C   UNL     1      -0.158  10.093  22.554  0.00  0.00    +0.000 C 
ATOM     27  C   UNL     1       1.107   8.173  21.559  0.00  0.00    +0.000 A 
ATOM     28  C   UNL     1       1.751   7.517  20.501  0.00  0.00    +0.000 A 
BRANCH  22  30
ATOM     29  C   UNL     1       3.297   8.318  17.412  0.00  0.00    +0.000 C 
ATOM     30  O   UNL     1       2.465   7.491  18.231  0.00  0.00    +0.000 OA
ENDBRANCH  22  30
ENDBRANCH  18  28
ENDBRANCH  17  19
ENDBRANCH   1  17
TORSDOF 6
ENDMDL
MODEL 6
REMARK VINA RESULT:      -7.8      4.416      8.437
REMARK  Name = 
REMARK  9 active torsions:
REMARK  status: ('A' for Active; 'I' for Inactive)
REMARK    1  A    between atoms: C_1  and  O_2
REMARK    2  A    between atoms: O_2  and  C_3
REMARK    3  A    between atoms: C_6  and  C_7
REMARK    4  A    between atoms: C_9  and  N_10
REMARK    5  A    between atoms: C_11  and  C_13
REMARK    6  A    between atoms: C_13  and  N_14
REMARK    7  A    between atoms: N_14  and  C_15
REMARK    8  A    between atoms: N_14  and  S_16
REMARK    9  A    between atoms: S_16  and  C_19
REMARK                            x       y       z     vdW  Elec       q    Type
REMARK                         _______ _______ _______ _____ _____    ______ ____
ROOT
ATOM      1  N   UNL     1       0.250   8.982  20.519  0.00  0.00    +0.000 NA
ATOM      2  C   UNL     1      -0.463   8.553  21.763  0.00  0.00    +0.000 C 
ENDROOT
BRANCH   1   3
ATOM      3  S   UNL     1       0.056  10.678  20.260  0.00  0.00    +0.000 S 
ATOM      4  O   UNL     1      -0.448  11.254  21.489  0.00  0.00    +0.000 OA
ATOM      5  O   UNL     1       1.275  11.160  19.646  0.00  0.00    +0.000 OA
BRANCH   3   6
ATOM      6  C   UNL     1      -1.256  10.798  19.068  0.00  0.00    +0.000 A 
ATOM      7  C   UNL     1      -2.347  11.656  19.343  0.00  0.00    +0.000 A 
ATOM      8  C   UNL     1      -3.367  11.833  18.400  0.00  0.00    +0.000 A 
ATOM      9  C   UNL     1      -3.243  11.142  17.219  0.00  0.00    +0.000 A 
ATOM     10  N   UNL     1      -4.044  11.119  16.113  0.00  0.00    +0.000 N 
ATOM     11  C   UNL     1      -3.464  10.282  15.189  0.00  0.00    +0.000 A 
ATOM     12  O   UNL     1      -3.931  10.031  14.088  0.00  0.00    +0.000 OA
ATOM     13  O   UNL     1      -2.266   9.744  15.675  0.00  0.00    +0.000 OA
ATOM     14  C   UNL     1      -2.176  10.313  16.938  0.00  0.00    +0.000 A 
ATOM     15  C   UNL     1      -1.154  10.118  17.845  0.00  0.00    +0.000 A 
ATOM     16  H   UNL     1      -4.912  11.610  15.960  0.00  0.00    +0.000 HD
ENDBRANCH   3   6
ENDBRANCH   1   3
BRANCH   1  17
ATOM     17  C   UNL     1       1.685   8.559  20.544  0.00  0.00    +0.000 C 
BRANCH  17  19
ATOM     18  N   UNL     1       2.837   6.627  19.568  0.00  0.00    +0.000 N 
ATOM     19  C   UNL     1       2.140   7.797  19.305  0.00  0.00    +0.000 C 
ATOM     20  O   UNL     1       1.871   8.244  18.192  0.00  0.00    +0.000 OA
ATOM     21  H   UNL     1       3.123   6.467  20.532  0.00  0.00    +0.000 HD
BRANCH  18  28
ATOM     22  C   UNL     1       2.657   4.552  18.291  0.00  0.00    +0.000 A 
ATOM     23  C   UNL     1       3.174   3.670  17.328  0.00  0.00    +0.000 A 
ATOM     24  C   UNL     1       4.395   3.928  16.706  0.00  0.00    +0.000 A 
ATOM     25  C   UNL     1       5.110   5.082  17.017  0.00  0.00    +0.000 A 
ATOM     26  C   UNL     1       6.420   5.389  16.359  0.00  0.00    +0.000 C 
ATOM     27  C   UNL     1       4.588   5.973  17.965  0.00  0.00    +0.000 A 
ATOM     28  C   UNL     1       3.368   5.727  18.611  0.00  0.00    +0.000 A 
BRANCH  22  30
ATOM     29  C   UNL     1       1.166   2.948  19.199  0.00  0.00    +0.000 C 
ATOM     30  O   UNL     1       1.478   4.325  18.965  0.00  0.00    +0.000 OA
ENDBRANCH  22  30
ENDBRANCH  18  28
ENDBRANCH  17  19
ENDBRANCH   1  17
TORSDOF 6
ENDMDL
MODEL 7
REMARK VINA RESULT:      -7.7      1.654      2.002
REMARK  Name = 
REMARK  9 active torsions:
REMARK  status: ('A' for Active; 'I' for Inactive)
REMARK    1  A    between atoms: C_1  and  O_2
REMARK    2  A    between atoms: O_2  and  C_3
REMARK    3  A    between atoms: C_6  and  C_7
REMARK    4  A    between atoms: C_9  and  N_10
REMARK    5  A    between atoms: C_11  and  C_13
REMARK    6  A    between atoms: C_13  and  N_14
REMARK    7  A    between atoms: N_14  and  C_15
REMARK    8  A    between atoms: N_14  and  S_16
REMARK    9  A    between atoms: S_16  and  C_19
REMARK                            x       y       z     vdW  Elec       q    Type
REMARK                         _______ _______ _______ _____ _____    ______ ____
ROOT
ATOM      1  N   UNL     1       3.568   2.922  20.170  0.00  0.00    +0.000 NA
ATOM      2  C   UNL     1       4.422   1.889  20.836  0.00  0.00    +0.000 C 
ENDROOT
BRANCH   1   3
ATOM      3  S   UNL     1       3.493   2.647  18.468  0.00  0.00    +0.000 S 
ATOM      4  O   UNL     1       4.010   1.319  18.216  0.00  0.00    +0.000 OA
ATOM      5  O   UNL     1       2.170   3.036  18.029  0.00  0.00    +0.000 OA
BRANCH   3   6
ATOM      6  C   UNL     1       4.669   3.788  17.780  0.00  0.00    +0.000 A 
ATOM      7  C   UNL     1       4.812   3.850  16.374  0.00  0.00    +0.000 A 
ATOM      8  C   UNL     1       5.677   4.783  15.790  0.00  0.00    +0.000 A 
ATOM      9  C   UNL     1       6.356   5.617  16.644  0.00  0.00    +0.000 A 
ATOM     10  N   UNL     1       7.238   6.628  16.388  0.00  0.00    +0.000 N 
ATOM     11  C   UNL     1       7.619   7.172  17.592  0.00  0.00    +0.000 A 
ATOM     12  O   UNL     1       8.411   8.094  17.720  0.00  0.00    +0.000 OA
ATOM     13  O   UNL     1       6.985   6.526  18.662  0.00  0.00    +0.000 OA
ATOM     14  C   UNL     1       6.212   5.572  18.017  0.00  0.00    +0.000 A 
ATOM     15  C   UNL     1       5.368   4.665  18.624  0.00  0.00    +0.000 A 
ATOM     16  H   UNL     1       7.577   6.949  15.494  0.00  0.00    +0.000 HD
ENDBRANCH   3   6
ENDBRANCH   1   3
BRANCH   1  17
ATOM     17  C   UNL     1       2.216   2.998  20.806  0.00  0.00    +0.000 C 
BRANCH  17  19
ATOM     18  N   UNL     1       2.227   5.449  20.723  0.00  0.00    +0.000 N 
ATOM     19  C   UNL     1       1.468   4.301  20.548  0.00  0.00    +0.000 C 
ATOM     20  O   UNL     1       0.287   4.259  20.211  0.00  0.00    +0.000 OA
ATOM     21  H   UNL     1       3.140   5.336  21.159  0.00  0.00    +0.000 HD
BRANCH  18  28
ATOM     22  C   UNL     1       2.077   7.459  19.342  0.00  0.00    +0.000 A 
ATOM     23  C   UNL     1       1.627   8.775  19.159  0.00  0.00    +0.000 A 
ATOM     24  C   UNL     1       0.924   9.436  20.167  0.00  0.00    +0.000 A 
ATOM     25  C   UNL     1       0.639   8.785  21.364  0.00  0.00    +0.000 A 
ATOM     26  C   UNL     1      -0.121   9.466  22.460  0.00  0.00    +0.000 C 
ATOM     27  C   UNL     1       1.072   7.463  21.542  0.00  0.00    +0.000 A 
ATOM     28  C   UNL     1       1.790   6.785  20.547  0.00  0.00    +0.000 A 
BRANCH  22  30
ATOM     29  C   UNL     1       3.436   7.592  17.404  0.00  0.00    +0.000 C 
ATOM     30  O   UNL     1       2.810   6.774  18.397  0.00  0.00    +0.000 OA
ENDBRANCH  22  30
ENDBRANCH  18  28
ENDBRANCH  17  19
ENDBRANCH   1  17
TORSDOF 6
ENDMDL
MODEL 8
REMARK VINA RESULT:      -7.6      5.026      9.277
REMARK  Name = 
REMARK  9 active torsions:
REMARK  status: ('A' for Active; 'I' for Inactive)
REMARK    1  A    between atoms: C_1  and  O_2
REMARK    2  A    between atoms: O_2  and  C_3
REMARK    3  A    between atoms: C_6  and  C_7
REMARK    4  A    between atoms: C_9  and  N_10
REMARK    5  A    between atoms: C_11  and  C_13
REMARK    6  A    between atoms: C_13  and  N_14
REMARK    7  A    between atoms: N_14  and  C_15
REMARK    8  A    between atoms: N_14  and  S_16
REMARK    9  A    between atoms: S_16  and  C_19
REMARK                            x       y       z     vdW  Elec       q    Type
REMARK                         _______ _______ _______ _____ _____    ______ ____
ROOT
ATOM      1  N   UNL     1       0.112   9.361  20.428  0.00  0.00    +0.000 NA
ATOM      2  C   UNL     1      -0.536   9.013  21.731  0.00  0.00    +0.000 C 
ENDROOT
BRANCH   1   3
ATOM      3  S   UNL     1      -0.133  11.027  20.051  0.00  0.00    +0.000 S 
ATOM      4  O   UNL     1      -0.530  11.698  21.270  0.00  0.00    +0.000 OA
ATOM      5  O   UNL     1       1.017  11.467  19.288  0.00  0.00    +0.000 OA
BRANCH   3   6
ATOM      6  C   UNL     1      -1.551  11.038  18.980  0.00  0.00    +0.000 A 
ATOM      7  C   UNL     1      -1.587  10.133  17.893  0.00  0.00    +0.000 A 
ATOM      8  C   UNL     1      -2.715  10.062  17.067  0.00  0.00    +0.000 A 
ATOM      9  C   UNL     1      -3.760  10.899  17.373  0.00  0.00    +0.000 A 
ATOM     10  N   UNL     1      -4.983  11.049  16.783  0.00  0.00    +0.000 N 
ATOM     11  C   UNL     1      -5.676  12.007  17.486  0.00  0.00    +0.000 A 
ATOM     12  O   UNL     1      -6.805  12.388  17.215  0.00  0.00    +0.000 OA
ATOM     13  O   UNL     1      -4.916  12.499  18.555  0.00  0.00    +0.000 OA
ATOM     14  C   UNL     1      -3.738  11.776  18.440  0.00  0.00    +0.000 A 
ATOM     15  C   UNL     1      -2.642  11.871  19.273  0.00  0.00    +0.000 A 
ATOM     16  H   UNL     1      -5.351  10.567  15.978  0.00  0.00    +0.000 HD
ENDBRANCH   3   6
ENDBRANCH   1   3
BRANCH   1  17
ATOM     17  C   UNL     1       1.556   8.969  20.420  0.00  0.00    +0.000 C 
BRANCH  17  19
ATOM     18  N   UNL     1       2.296   6.752  19.675  0.00  0.00    +0.000 N 
ATOM     19  C   UNL     1       1.951   8.037  19.281  0.00  0.00    +0.000 C 
ATOM     20  O   UNL     1       1.939   8.460  18.126  0.00  0.00    +0.000 OA
ATOM     21  H   UNL     1       2.415   6.593  20.673  0.00  0.00    +0.000 HD
BRANCH  18  28
ATOM     22  C   UNL     1       2.037   4.444  18.917  0.00  0.00    +0.000 A 
ATOM     23  C   UNL     1       2.419   3.395  18.067  0.00  0.00    +0.000 A 
ATOM     24  C   UNL     1       3.463   3.560  17.156  0.00  0.00    +0.000 A 
ATOM     25  C   UNL     1       4.126   4.780  17.064  0.00  0.00    +0.000 A 
ATOM     26  C   UNL     1       5.245   4.988  16.089  0.00  0.00    +0.000 C 
ATOM     27  C   UNL     1       3.734   5.835  17.899  0.00  0.00    +0.000 A 
ATOM     28  C   UNL     1       2.696   5.688  18.830  0.00  0.00    +0.000 A 
BRANCH  22  30
ATOM     29  C   UNL     1       1.240   3.283  20.824  0.00  0.00    +0.000 C 
ATOM     30  O   UNL     1       1.041   4.323  19.862  0.00  0.00    +0.000 OA
ENDBRANCH  22  30
ENDBRANCH  18  28
ENDBRANCH  17  19
ENDBRANCH   1  17
TORSDOF 6
ENDMDL
MODEL 9
REMARK VINA RESULT:      -7.6      4.620      8.471
REMARK  Name = 
REMARK  9 active torsions:
REMARK  status: ('A' for Active; 'I' for Inactive)
REMARK    1  A    between atoms: C_1  and  O_2
REMARK    2  A    between atoms: O_2  and  C_3
REMARK    3  A    between atoms: C_6  and  C_7
REMARK    4  A    between atoms: C_9  and  N_10
REMARK    5  A    between atoms: C_11  and  C_13
REMARK    6  A    between atoms: C_13  and  N_14
REMARK    7  A    between atoms: N_14  and  C_15
REMARK    8  A    between atoms: N_14  and  S_16
REMARK    9  A    between atoms: S_16  and  C_19
REMARK                            x       y       z     vdW  Elec       q    Type
REMARK                         _______ _______ _______ _____ _____    ______ ____
ROOT
ATOM      1  N   UNL     1       0.455   9.483  20.194  0.00  0.00    +0.000 NA
ATOM      2  C   UNL     1       0.438   8.981  21.603  0.00  0.00    +0.000 C 
ENDROOT
BRANCH   1   3
ATOM      3  S   UNL     1      -0.118  11.110  20.119  0.00  0.00    +0.000 S 
ATOM      4  O   UNL     1      -0.699  11.429  21.406  0.00  0.00    +0.000 OA
ATOM      5  O   UNL     1       0.945  11.912  19.551  0.00  0.00    +0.000 OA
BRANCH   3   6
ATOM      6  C   UNL     1      -1.461  11.056  18.956  0.00  0.00    +0.000 A 
ATOM      7  C   UNL     1      -2.653  11.752  19.263  0.00  0.00    +0.000 A 
ATOM      8  C   UNL     1      -3.709  11.792  18.344  0.00  0.00    +0.000 A 
ATOM      9  C   UNL     1      -3.517  11.134  17.153  0.00  0.00    +0.000 A 
ATOM     10  N   UNL     1      -4.331  11.009  16.064  0.00  0.00    +0.000 N 
ATOM     11  C   UNL     1      -3.661  10.267  15.119  0.00  0.00    +0.000 A 
ATOM     12  O   UNL     1      -4.113   9.963  14.025  0.00  0.00    +0.000 OA
ATOM     13  O   UNL     1      -2.389   9.898  15.574  0.00  0.00    +0.000 OA
ATOM     14  C   UNL     1      -2.351  10.463  16.841  0.00  0.00    +0.000 A 
ATOM     15  C   UNL     1      -1.292  10.405  17.723  0.00  0.00    +0.000 A 
ATOM     16  H   UNL     1      -5.262  11.375  15.934  0.00  0.00    +0.000 HD
ENDBRANCH   3   6
ENDBRANCH   1   3
BRANCH   1  17
ATOM     17  C   UNL     1       1.806   9.314  19.575  0.00  0.00    +0.000 C 
BRANCH  17  19
ATOM     18  N   UNL     1       2.400   6.942  19.388  0.00  0.00    +0.000 N 
ATOM     19  C   UNL     1       1.954   8.067  18.711  0.00  0.00    +0.000 C 
ATOM     20  O   UNL     1       1.677   8.128  17.514  0.00  0.00    +0.000 OA
ATOM     21  H   UNL     1       2.741   7.080  20.337  0.00  0.00    +0.000 HD
BRANCH  18  28
ATOM     22  C   UNL     1       3.794   5.408  18.095  0.00  0.00    +0.000 A 
ATOM     23  C   UNL     1       4.021   4.128  17.565  0.00  0.00    +0.000 A 
ATOM     24  C   UNL     1       3.087   3.107  17.738  0.00  0.00    +0.000 A 
ATOM     25  C   UNL     1       1.921   3.340  18.463  0.00  0.00    +0.000 A 
ATOM     26  C   UNL     1       0.904   2.260  18.673  0.00  0.00    +0.000 C 
ATOM     27  C   UNL     1       1.699   4.612  19.009  0.00  0.00    +0.000 A 
ATOM     28  C   UNL     1       2.620   5.655  18.836  0.00  0.00    +0.000 A 
BRANCH  22  30
ATOM     29  C   UNL     1       4.896   6.836  16.558  0.00  0.00    +0.000 C 
ATOM     30  O   UNL     1       4.662   6.462  17.919  0.00  0.00    +0.000 OA
ENDBRANCH  22  30
ENDBRANCH  18  28
ENDBRANCH  17  19
ENDBRANCH   1  17
TORSDOF 6
ENDMDL
