MODEL 1
REMARK VINA RESULT:      -8.0      0.000      0.000
REMARK  Name = 
REMARK  8 active torsions:
REMARK  status: ('A' for Active; 'I' for Inactive)
REMARK    1  A    between atoms: C_1  and  N_2
REMARK    2  A    between atoms: N_2  and  C_3
REMARK    3  A    between atoms: N_2  and  C_4
REMARK    4  A    between atoms: C_4  and  C_5
REMARK    5  A    between atoms: C_5  and  N_6
REMARK    6  A    between atoms: N_6  and  C_7
REMARK    7  A    between atoms: C_24  and  C_25
REMARK    8  A    between atoms: C_24  and  C_26
REMARK                            x       y       z     vdW  Elec       q    Type
REMARK                         _______ _______ _______ _____ _____    ______ ____
ROOT
ATOM      1  C   UNL     1       3.107   5.509  20.018  0.00  0.00    +0.000 A 
ATOM      2  C   UNL     1       4.074   4.862  19.211  0.00  0.00    +0.000 A 
ATOM      3  C   UNL     1       4.516   5.393  18.028  0.00  0.00    +0.000 A 
ATOM      4  C   UNL     1       4.023   6.613  17.561  0.00  0.00    +0.000 A 
ATOM      5  C   UNL     1       3.083   7.323  18.326  0.00  0.00    +0.000 A 
ATOM      6  O   UNL     1       2.680   8.517  17.896  0.00  0.00    +0.000 OA
ATOM      7  C   UNL     1       1.826   9.281  18.563  0.00  0.00    +0.000 A 
ATOM      8  C   UNL     1       1.508  10.554  18.076  0.00  0.00    +0.000 A 
ATOM      9  C   UNL     1       0.613  11.373  18.773  0.00  0.00    +0.000 A 
ATOM     10  C   UNL     1       0.021  10.918  19.952  0.00  0.00    +0.000 A 
ATOM     11  C   UNL     1       0.333   9.649  20.448  0.00  0.00    +0.000 A 
ATOM     12  C   UNL     1       1.251   8.824  19.765  0.00  0.00    +0.000 A 
ATOM     13  C   UNL     1       1.628   7.564  20.261  0.00  0.00    +0.000 A 
ATOM     14  O   UNL     1       1.120   7.178  21.295  0.00  0.00    +0.000 OA
ATOM     15  C   UNL     1       2.598   6.780  19.564  0.00  0.00    +0.000 A 
ATOM     16  C   UNL     1       4.508   7.057  16.225  0.00  0.00    +0.000 C 
ATOM     17  C   UNL     1       5.553   6.422  15.653  0.00  0.00    +0.000 C 
ATOM     18  C   UNL     1       6.325   5.398  16.472  0.00  0.00    +0.000 C 
ATOM     19  C   UNL     1       7.072   4.387  15.594  0.00  0.00    +0.000 C 
ATOM     20  C   UNL     1       7.347   6.156  17.345  0.00  0.00    +0.000 C 
ATOM     21  O   UNL     1       5.451   4.727  17.309  0.00  0.00    +0.000 OA
ENDROOT
BRANCH   1  22
ATOM     22  N   UNL     1       2.714   4.890  21.265  0.00  0.00    +0.000 N 
ATOM     23  H   UNL     1       3.172   5.139  22.142  0.00  0.00    +0.000 HD
BRANCH  22  24
ATOM     24  C   UNL     1       1.981   3.637  21.313  0.00  0.00    +0.000 C 
BRANCH  24  25
ATOM     25  C   UNL     1       0.757   3.632  20.398  0.00  0.00    +0.000 C 
BRANCH  25  27
ATOM     26  C   UNL     1       1.121   3.503  18.010  0.00  0.00    +0.000 C 
ATOM     27  N   UNL     1       0.951   2.720  19.241  0.00  0.00    +0.000 NA
ATOM     28  C   UNL     1       2.116   1.826  19.408  0.00  0.00    +0.000 C 
ENDBRANCH  25  27
ENDBRANCH  24  25
ENDBRANCH  22  24
ENDBRANCH   1  22
TORSDOF 4
ENDMDL
MODEL 2
REMARK VINA RESULT:      -7.5      3.899      7.807
REMARK  Name = 
REMARK  8 active torsions:
REMARK  status: ('A' for Active; 'I' for Inactive)
REMARK    1  A    between atoms: C_1  and  N_2
REMARK    2  A    between atoms: N_2  and  C_3
REMARK    3  A    between atoms: N_2  and  C_4
REMARK    4  A    between atoms: C_4  and  C_5
REMARK    5  A    between atoms: C_5  and  N_6
REMARK    6  A    between atoms: N_6  and  C_7
REMARK    7  A    between atoms: C_24  and  C_25
REMARK    8  A    between atoms: C_24  and  C_26
REMARK                            x       y       z     vdW  Elec       q    Type
REMARK                         _______ _______ _______ _____ _____    ______ ____
ROOT
ATOM      1  C   UNL     1       6.512   6.065  17.789  0.00  0.00    +0.000 A 
ATOM      2  C   UNL     1       5.595   5.885  18.853  0.00  0.00    +0.000 A 
ATOM      3  C   UNL     1       4.441   5.161  18.713  0.00  0.00    +0.000 A 
ATOM      4  C   UNL     1       4.115   4.560  17.496  0.00  0.00    +0.000 A 
ATOM      5  C   UNL     1       4.993   4.674  16.405  0.00  0.00    +0.000 A 
ATOM      6  O   UNL     1       4.696   4.034  15.276  0.00  0.00    +0.000 OA
ATOM      7  C   UNL     1       5.477   4.048  14.205  0.00  0.00    +0.000 A 
ATOM      8  C   UNL     1       5.125   3.291  13.081  0.00  0.00    +0.000 A 
ATOM      9  C   UNL     1       5.943   3.291  11.946  0.00  0.00    +0.000 A 
ATOM     10  C   UNL     1       7.108   4.059  11.924  0.00  0.00    +0.000 A 
ATOM     11  C   UNL     1       7.470   4.817  13.040  0.00  0.00    +0.000 A 
ATOM     12  C   UNL     1       6.664   4.806  14.198  0.00  0.00    +0.000 A 
ATOM     13  C   UNL     1       7.022   5.515  15.359  0.00  0.00    +0.000 A 
ATOM     14  O   UNL     1       8.045   6.171  15.339  0.00  0.00    +0.000 OA
ATOM     15  C   UNL     1       6.203   5.438  16.527  0.00  0.00    +0.000 A 
ATOM     16  C   UNL     1       2.799   3.867  17.430  0.00  0.00    +0.000 C 
ATOM     17  C   UNL     1       2.114   3.633  18.569  0.00  0.00    +0.000 C 
ATOM     18  C   UNL     1       2.791   3.912  19.902  0.00  0.00    +0.000 C 
ATOM     19  C   UNL     1       1.784   4.149  21.035  0.00  0.00    +0.000 C 
ATOM     20  C   UNL     1       3.669   2.694  20.257  0.00  0.00    +0.000 C 
ATOM     21  O   UNL     1       3.613   5.019  19.776  0.00  0.00    +0.000 OA
ENDROOT
BRANCH   1  22
ATOM     22  N   UNL     1       7.718   6.826  18.030  0.00  0.00    +0.000 N 
ATOM     23  H   UNL     1       8.437   6.481  18.665  0.00  0.00    +0.000 HD
BRANCH  22  24
ATOM     24  C   UNL     1       7.812   8.247  17.741  0.00  0.00    +0.000 C 
BRANCH  24  25
ATOM     25  C   UNL     1       8.612   9.013  18.794  0.00  0.00    +0.000 C 
BRANCH  25  27
ATOM     26  C   UNL     1       8.129  11.147  17.761  0.00  0.00    +0.000 C 
ATOM     27  N   UNL     1       9.199  10.256  18.227  0.00  0.00    +0.000 NA
ATOM     28  C   UNL     1      10.042  10.984  19.200  0.00  0.00    +0.000 C 
ENDBRANCH  25  27
ENDBRANCH  24  25
ENDBRANCH  22  24
ENDBRANCH   1  22
TORSDOF 4
ENDMDL
MODEL 3
REMARK VINA RESULT:      -7.5      1.235      5.456
REMARK  Name = 
REMARK  8 active torsions:
REMARK  status: ('A' for Active; 'I' for Inactive)
REMARK    1  A    between atoms: C_1  and  N_2
REMARK    2  A    between atoms: N_2  and  C_3
REMARK    3  A    between atoms: N_2  and  C_4
REMARK    4  A    between atoms: C_4  and  C_5
REMARK    5  A    between atoms: C_5  and  N_6
REMARK    6  A    between atoms: N_6  and  C_7
REMARK    7  A    between atoms: C_24  and  C_25
REMARK    8  A    between atoms: C_24  and  C_26
REMARK                            x       y       z     vdW  Elec       q    Type
REMARK                         _______ _______ _______ _____ _____    ______ ____
ROOT
ATOM      1  C   UNL     1       2.378   6.110  20.229  0.00  0.00    +0.000 A 
ATOM      2  C   UNL     1       1.580   7.246  20.512  0.00  0.00    +0.000 A 
ATOM      3  C   UNL     1       1.579   8.359  19.714  0.00  0.00    +0.000 A 
ATOM      4  C   UNL     1       2.378   8.423  18.571  0.00  0.00    +0.000 A 
ATOM      5  C   UNL     1       3.172   7.321  18.214  0.00  0.00    +0.000 A 
ATOM      6  O   UNL     1       3.871   7.376  17.082  0.00  0.00    +0.000 OA
ATOM      7  C   UNL     1       4.620   6.377  16.640  0.00  0.00    +0.000 A 
ATOM      8  C   UNL     1       5.269   6.491  15.403  0.00  0.00    +0.000 A 
ATOM      9  C   UNL     1       6.057   5.441  14.921  0.00  0.00    +0.000 A 
ATOM     10  C   UNL     1       6.215   4.279  15.678  0.00  0.00    +0.000 A 
ATOM     11  C   UNL     1       5.571   4.154  16.912  0.00  0.00    +0.000 A 
ATOM     12  C   UNL     1       4.755   5.198  17.397  0.00  0.00    +0.000 A 
ATOM     13  C   UNL     1       4.052   5.087  18.610  0.00  0.00    +0.000 A 
ATOM     14  O   UNL     1       4.181   4.068  19.259  0.00  0.00    +0.000 OA
ATOM     15  C   UNL     1       3.197   6.147  19.042  0.00  0.00    +0.000 A 
ATOM     16  C   UNL     1       2.363   9.710  17.822  0.00  0.00    +0.000 C 
ATOM     17  C   UNL     1       1.427  10.638  18.115  0.00  0.00    +0.000 C 
ATOM     18  C   UNL     1       0.299  10.267  19.066  0.00  0.00    +0.000 C 
ATOM     19  C   UNL     1      -0.332  11.493  19.737  0.00  0.00    +0.000 C 
ATOM     20  C   UNL     1      -0.784   9.524  18.257  0.00  0.00    +0.000 C 
ATOM     21  O   UNL     1       0.783   9.406  20.038  0.00  0.00    +0.000 OA
ENDROOT
BRANCH   1  22
ATOM     22  N   UNL     1       2.301   4.967  21.112  0.00  0.00    +0.000 N 
ATOM     23  H   UNL     1       3.099   4.691  21.683  0.00  0.00    +0.000 HD
BRANCH  22  24
ATOM     24  C   UNL     1       1.296   3.930  20.954  0.00  0.00    +0.000 C 
BRANCH  24  25
ATOM     25  C   UNL     1       1.903   2.533  20.821  0.00  0.00    +0.000 C 
BRANCH  25  27
ATOM     26  C   UNL     1       0.744   2.847  18.722  0.00  0.00    +0.000 C 
ATOM     27  N   UNL     1       1.568   1.921  19.509  0.00  0.00    +0.000 NA
ATOM     28  C   UNL     1       2.769   1.560  18.725  0.00  0.00    +0.000 C 
ENDBRANCH  25  27
ENDBRANCH  24  25
ENDBRANCH  22  24
ENDBRANCH   1  22
TORSDOF 4
ENDMDL
MODEL 4
REMARK VINA RESULT:      -6.9      2.113      5.314
REMARK  Name = 
REMARK  8 active torsions:
REMARK  status: ('A' for Active; 'I' for Inactive)
REMARK    1  A    between atoms: C_1  and  N_2
REMARK    2  A    between atoms: N_2  and  C_3
REMARK    3  A    between atoms: N_2  and  C_4
REMARK    4  A    between atoms: C_4  and  C_5
REMARK    5  A    between atoms: C_5  and  N_6
REMARK    6  A    between atoms: N_6  and  C_7
REMARK    7  A    between atoms: C_24  and  C_25
REMARK    8  A    between atoms: C_24  and  C_26
REMARK                            x       y       z     vdW  Elec       q    Type
REMARK                         _______ _______ _______ _____ _____    ______ ____
ROOT
ATOM      1  C   UNL     1       3.870   7.209  17.538  0.00  0.00    +0.000 A 
ATOM      2  C   UNL     1       4.710   7.150  16.399  0.00  0.00    +0.000 A 
ATOM      3  C   UNL     1       5.404   6.020  16.057  0.00  0.00    +0.000 A 
ATOM      4  C   UNL     1       5.312   4.861  16.830  0.00  0.00    +0.000 A 
ATOM      5  C   UNL     1       4.475   4.839  17.957  0.00  0.00    +0.000 A 
ATOM      6  O   UNL     1       4.347   3.702  18.638  0.00  0.00    +0.000 OA
ATOM      7  C   UNL     1       3.554   3.570  19.691  0.00  0.00    +0.000 A 
ATOM      8  C   UNL     1       3.424   2.319  20.309  0.00  0.00    +0.000 A 
ATOM      9  C   UNL     1       2.586   2.164  21.418  0.00  0.00    +0.000 A 
ATOM     10  C   UNL     1       1.885   3.259  21.924  0.00  0.00    +0.000 A 
ATOM     11  C   UNL     1       2.006   4.511  21.315  0.00  0.00    +0.000 A 
ATOM     12  C   UNL     1       2.831   4.674  20.183  0.00  0.00    +0.000 A 
ATOM     13  C   UNL     1       2.937   5.906  19.513  0.00  0.00    +0.000 A 
ATOM     14  O   UNL     1       2.314   6.853  19.950  0.00  0.00    +0.000 OA
ATOM     15  C   UNL     1       3.746   6.016  18.340  0.00  0.00    +0.000 A 
ATOM     16  C   UNL     1       6.172   3.718  16.416  0.00  0.00    +0.000 C 
ATOM     17  C   UNL     1       6.789   3.751  15.216  0.00  0.00    +0.000 C 
ATOM     18  C   UNL     1       6.437   4.865  14.242  0.00  0.00    +0.000 C 
ATOM     19  C   UNL     1       7.548   5.122  13.216  0.00  0.00    +0.000 C 
ATOM     20  C   UNL     1       5.149   4.460  13.495  0.00  0.00    +0.000 C 
ATOM     21  O   UNL     1       6.182   6.029  14.948  0.00  0.00    +0.000 OA
ENDROOT
BRANCH   1  22
ATOM     22  N   UNL     1       3.155   8.436  17.813  0.00  0.00    +0.000 N 
ATOM     23  H   UNL     1       3.538   9.135  18.449  0.00  0.00    +0.000 HD
BRANCH  22  24
ATOM     24  C   UNL     1       1.732   8.580  17.560  0.00  0.00    +0.000 C 
BRANCH  24  25
ATOM     25  C   UNL     1       1.174   9.914  18.056  0.00  0.00    +0.000 C 
BRANCH  25  27
ATOM     26  C   UNL     1       0.750  10.030  20.435  0.00  0.00    +0.000 C 
ATOM     27  N   UNL     1       0.163   9.712  19.127  0.00  0.00    +0.000 NA
ATOM     28  C   UNL     1      -1.049  10.537  18.930  0.00  0.00    +0.000 C 
ENDBRANCH  25  27
ENDBRANCH  24  25
ENDBRANCH  22  24
ENDBRANCH   1  22
TORSDOF 4
ENDMDL
MODEL 5
REMARK VINA RESULT:      -6.9      1.987      4.743
REMARK  Name = 
REMARK  8 active torsions:
REMARK  status: ('A' for Active; 'I' for Inactive)
REMARK    1  A    between atoms: C_1  and  N_2
REMARK    2  A    between atoms: N_2  and  C_3
REMARK    3  A    between atoms: N_2  and  C_4
REMARK    4  A    between atoms: C_4  and  C_5
REMARK    5  A    between atoms: C_5  and  N_6
REMARK    6  A    between atoms: N_6  and  C_7
REMARK    7  A    between atoms: C_24  and  C_25
REMARK    8  A    between atoms: C_24  and  C_26
REMARK                            x       y       z     vdW  Elec       q    Type
REMARK                         _______ _______ _______ _____ _____    ______ ____
ROOT
ATOM      1  C   UNL     1       3.573   6.636  17.728  0.00  0.00    +0.000 A 
ATOM      2  C   UNL     1       3.915   5.326  18.143  0.00  0.00    +0.000 A 
ATOM      3  C   UNL     1       3.440   4.777  19.304  0.00  0.00    +0.000 A 
ATOM      4  C   UNL     1       2.586   5.497  20.141  0.00  0.00    +0.000 A 
ATOM      5  C   UNL     1       2.182   6.792  19.777  0.00  0.00    +0.000 A 
ATOM      6  O   UNL     1       1.312   7.433  20.554  0.00  0.00    +0.000 OA
ATOM      7  C   UNL     1       0.841   8.640  20.278  0.00  0.00    +0.000 A 
ATOM      8  C   UNL     1      -0.126   9.216  21.112  0.00  0.00    +0.000 A 
ATOM      9  C   UNL     1      -0.636  10.487  20.828  0.00  0.00    +0.000 A 
ATOM     10  C   UNL     1      -0.172  11.196  19.719  0.00  0.00    +0.000 A 
ATOM     11  C   UNL     1       0.792  10.631  18.880  0.00  0.00    +0.000 A 
ATOM     12  C   UNL     1       1.296   9.340  19.143  0.00  0.00    +0.000 A 
ATOM     13  C   UNL     1       2.227   8.719  18.292  0.00  0.00    +0.000 A 
ATOM     14  O   UNL     1       2.618   9.335  17.320  0.00  0.00    +0.000 OA
ATOM     15  C   UNL     1       2.676   7.391  18.569  0.00  0.00    +0.000 A 
ATOM     16  C   UNL     1       2.196   4.837  21.418  0.00  0.00    +0.000 C 
ATOM     17  C   UNL     1       2.462   3.526  21.596  0.00  0.00    +0.000 C 
ATOM     18  C   UNL     1       2.978   2.716  20.416  0.00  0.00    +0.000 C 
ATOM     19  C   UNL     1       3.748   1.463  20.854  0.00  0.00    +0.000 C 
ATOM     20  C   UNL     1       1.767   2.287  19.563  0.00  0.00    +0.000 C 
ATOM     21  O   UNL     1       3.799   3.513  19.636  0.00  0.00    +0.000 OA
ENDROOT
BRANCH   1  22
ATOM     22  N   UNL     1       4.101   7.130  16.475  0.00  0.00    +0.000 N 
ATOM     23  H   UNL     1       3.530   7.705  15.856  0.00  0.00    +0.000 HD
BRANCH  22  24
ATOM     24  C   UNL     1       5.262   6.538  15.833  0.00  0.00    +0.000 C 
BRANCH  24  25
ATOM     25  C   UNL     1       6.522   6.623  16.694  0.00  0.00    +0.000 C 
BRANCH  25  27
ATOM     26  C   UNL     1       7.552   4.679  17.699  0.00  0.00    +0.000 C 
ATOM     27  N   UNL     1       7.415   5.458  16.461  0.00  0.00    +0.000 NA
ATOM     28  C   UNL     1       6.927   4.571  15.384  0.00  0.00    +0.000 C 
ENDBRANCH  25  27
ENDBRANCH  24  25
ENDBRANCH  22  24
ENDBRANCH   1  22
TORSDOF 4
ENDMDL
MODEL 6
REMARK VINA RESULT:      -6.8      4.342      8.790
REMARK  Name = 
REMARK  8 active torsions:
REMARK  status: ('A' for Active; 'I' for Inactive)
REMARK    1  A    between atoms: C_1  and  N_2
REMARK    2  A    between atoms: N_2  and  C_3
REMARK    3  A    between atoms: N_2  and  C_4
REMARK    4  A    between atoms: C_4  and  C_5
REMARK    5  A    between atoms: C_5  and  N_6
REMARK    6  A    between atoms: N_6  and  C_7
REMARK    7  A    between atoms: C_24  and  C_25
REMARK    8  A    between atoms: C_24  and  C_26
REMARK                            x       y       z     vdW  Elec       q    Type
REMARK                         _______ _______ _______ _____ _____    ______ ____
ROOT
ATOM      1  C   UNL     1      -0.261  11.279  21.075  0.00  0.00    +0.000 A 
ATOM      2  C   UNL     1      -0.563  12.021  22.243  0.00  0.00    +0.000 A 
ATOM      3  C   UNL     1      -1.694  12.786  22.353  0.00  0.00    +0.000 A 
ATOM      4  C   UNL     1      -2.609  12.869  21.303  0.00  0.00    +0.000 A 
ATOM      5  C   UNL     1      -2.387  12.135  20.126  0.00  0.00    +0.000 A 
ATOM      6  O   UNL     1      -3.309  12.173  19.165  0.00  0.00    +0.000 OA
ATOM      7  C   UNL     1      -3.210  11.489  18.035  0.00  0.00    +0.000 A 
ATOM      8  C   UNL     1      -4.257  11.529  17.106  0.00  0.00    +0.000 A 
ATOM      9  C   UNL     1      -4.169  10.806  15.912  0.00  0.00    +0.000 A 
ATOM     10  C   UNL     1      -3.029  10.051  15.633  0.00  0.00    +0.000 A 
ATOM     11  C   UNL     1      -1.979  10.003  16.553  0.00  0.00    +0.000 A 
ATOM     12  C   UNL     1      -2.067  10.710  17.771  0.00  0.00    +0.000 A 
ATOM     13  C   UNL     1      -1.053  10.643  18.743  0.00  0.00    +0.000 A 
ATOM     14  O   UNL     1      -0.068   9.973  18.501  0.00  0.00    +0.000 OA
ATOM     15  C   UNL     1      -1.203  11.335  19.984  0.00  0.00    +0.000 A 
ATOM     16  C   UNL     1      -3.760  13.793  21.497  0.00  0.00    +0.000 C 
ATOM     17  C   UNL     1      -4.005  14.300  22.724  0.00  0.00    +0.000 C 
ATOM     18  C   UNL     1      -3.216  13.764  23.909  0.00  0.00    +0.000 C 
ATOM     19  C   UNL     1      -3.166  14.755  25.079  0.00  0.00    +0.000 C 
ATOM     20  C   UNL     1      -3.892  12.462  24.385  0.00  0.00    +0.000 C 
ATOM     21  O   UNL     1      -1.927  13.462  23.504  0.00  0.00    +0.000 OA
ENDROOT
BRANCH   1  22
ATOM     22  N   UNL     1       0.943  10.478  21.051  0.00  0.00    +0.000 N 
ATOM     23  H   UNL     1       1.606  10.550  20.279  0.00  0.00    +0.000 HD
BRANCH  22  24
ATOM     24  C   UNL     1       1.093   9.275  21.852  0.00  0.00    +0.000 C 
BRANCH  24  25
ATOM     25  C   UNL     1       0.714   8.006  21.089  0.00  0.00    +0.000 C 
BRANCH  25  27
ATOM     26  C   UNL     1       1.725   5.844  20.691  0.00  0.00    +0.000 C 
ATOM     27  N   UNL     1       1.920   7.296  20.587  0.00  0.00    +0.000 NA
ATOM     28  C   UNL     1       2.242   7.640  19.186  0.00  0.00    +0.000 C 
ENDBRANCH  25  27
ENDBRANCH  24  25
ENDBRANCH  22  24
ENDBRANCH   1  22
TORSDOF 4
ENDMDL
MODEL 7
REMARK VINA RESULT:      -6.6      3.976      7.368
REMARK  Name = 
REMARK  8 active torsions:
REMARK  status: ('A' for Active; 'I' for Inactive)
REMARK    1  A    between atoms: C_1  and  N_2
REMARK    2  A    between atoms: N_2  and  C_3
REMARK    3  A    between atoms: N_2  and  C_4
REMARK    4  A    between atoms: C_4  and  C_5
REMARK    5  A    between atoms: C_5  and  N_6
REMARK    6  A    between atoms: N_6  and  C_7
REMARK    7  A    between atoms: C_24  and  C_25
REMARK    8  A    between atoms: C_24  and  C_26
REMARK                            x       y       z     vdW  Elec       q    Type
REMARK                         _______ _______ _______ _____ _____    ______ ____
ROOT
ATOM      1  C   UNL     1       6.249   4.581  18.244  0.00  0.00    +0.000 A 
ATOM      2  C   UNL     1       5.182   4.453  19.166  0.00  0.00    +0.000 A 
ATOM      3  C   UNL     1       3.898   4.188  18.770  0.00  0.00    +0.000 A 
ATOM      4  C   UNL     1       3.582   4.030  17.420  0.00  0.00    +0.000 A 
ATOM      5  C   UNL     1       4.597   4.115  16.452  0.00  0.00    +0.000 A 
ATOM      6  O   UNL     1       4.285   3.892  15.177  0.00  0.00    +0.000 OA
ATOM      7  C   UNL     1       5.175   3.912  14.196  0.00  0.00    +0.000 A 
ATOM      8  C   UNL     1       4.777   3.596  12.891  0.00  0.00    +0.000 A 
ATOM      9  C   UNL     1       5.708   3.607  11.847  0.00  0.00    +0.000 A 
ATOM     10  C   UNL     1       7.038   3.948  12.099  0.00  0.00    +0.000 A 
ATOM     11  C   UNL     1       7.447   4.263  13.397  0.00  0.00    +0.000 A 
ATOM     12  C   UNL     1       6.521   4.232  14.462  0.00  0.00    +0.000 A 
ATOM     13  C   UNL     1       6.907   4.493  15.789  0.00  0.00    +0.000 A 
ATOM     14  O   UNL     1       8.069   4.775  16.004  0.00  0.00    +0.000 OA
ATOM     15  C   UNL     1       5.948   4.404  16.844  0.00  0.00    +0.000 A 
ATOM     16  C   UNL     1       2.143   3.827  17.094  0.00  0.00    +0.000 C 
ATOM     17  C   UNL     1       1.269   3.558  18.087  0.00  0.00    +0.000 C 
ATOM     18  C   UNL     1       1.808   3.282  19.483  0.00  0.00    +0.000 C 
ATOM     19  C   UNL     1       0.768   3.548  20.578  0.00  0.00    +0.000 C 
ATOM     20  C   UNL     1       2.235   1.801  19.546  0.00  0.00    +0.000 C 
ATOM     21  O   UNL     1       2.926   4.067  19.707  0.00  0.00    +0.000 OA
ENDROOT
BRANCH   1  22
ATOM     22  N   UNL     1       7.579   4.840  18.749  0.00  0.00    +0.000 N 
ATOM     23  H   UNL     1       8.234   4.076  18.916  0.00  0.00    +0.000 HD
BRANCH  22  24
ATOM     24  C   UNL     1       7.929   6.080  19.421  0.00  0.00    +0.000 C 
BRANCH  24  25
ATOM     25  C   UNL     1       8.495   7.130  18.467  0.00  0.00    +0.000 C 
BRANCH  25  27
ATOM     26  C   UNL     1       8.211   9.480  17.967  0.00  0.00    +0.000 C 
ATOM     27  N   UNL     1       7.510   8.213  18.208  0.00  0.00    +0.000 NA
ATOM     28  C   UNL     1       6.632   7.922  17.054  0.00  0.00    +0.000 C 
ENDBRANCH  25  27
ENDBRANCH  24  25
ENDBRANCH  22  24
ENDBRANCH   1  22
TORSDOF 4
ENDMDL
MODEL 8
REMARK VINA RESULT:      -6.3      1.952      4.809
REMARK  Name = 
REMARK  8 active torsions:
REMARK  status: ('A' for Active; 'I' for Inactive)
REMARK    1  A    between atoms: C_1  and  N_2
REMARK    2  A    between atoms: N_2  and  C_3
REMARK    3  A    between atoms: N_2  and  C_4
REMARK    4  A    between atoms: C_4  and  C_5
REMARK    5  A    between atoms: C_5  and  N_6
REMARK    6  A    between atoms: N_6  and  C_7
REMARK    7  A    between atoms: C_24  and  C_25
REMARK    8  A    between atoms: C_24  and  C_26
REMARK                            x       y       z     vdW  Elec       q    Type
REMARK                         _______ _______ _______ _____ _____    ______ ____
ROOT
ATOM      1  C   UNL     1       3.206   6.672  17.951  0.00  0.00    +0.000 A 
ATOM      2  C   UNL     1       3.369   5.268  18.048  0.00  0.00    +0.000 A 
ATOM      3  C   UNL     1       2.811   4.533  19.060  0.00  0.00    +0.000 A 
ATOM      4  C   UNL     1       2.047   5.146  20.054  0.00  0.00    +0.000 A 
ATOM      5  C   UNL     1       1.819   6.532  20.004  0.00  0.00    +0.000 A 
ATOM      6  O   UNL     1       1.029   7.084  20.922  0.00  0.00    +0.000 OA
ATOM      7  C   UNL     1       0.724   8.373  20.938  0.00  0.00    +0.000 A 
ATOM      8  C   UNL     1      -0.172   8.862  21.898  0.00  0.00    +0.000 A 
ATOM      9  C   UNL     1      -0.508  10.219  21.923  0.00  0.00    +0.000 A 
ATOM     10  C   UNL     1       0.059  11.098  20.999  0.00  0.00    +0.000 A 
ATOM     11  C   UNL     1       0.952  10.621  20.036  0.00  0.00    +0.000 A 
ATOM     12  C   UNL     1       1.281   9.250  19.987  0.00  0.00    +0.000 A 
ATOM     13  C   UNL     1       2.135   8.726  19.001  0.00  0.00    +0.000 A 
ATOM     14  O   UNL     1       2.616   9.493  18.190  0.00  0.00    +0.000 OA
ATOM     15  C   UNL     1       2.404   7.323  18.957  0.00  0.00    +0.000 A 
ATOM     16  C   UNL     1       1.557   4.267  21.152  0.00  0.00    +0.000 C 
ATOM     17  C   UNL     1       1.648   2.927  21.019  0.00  0.00    +0.000 C 
ATOM     18  C   UNL     1       2.070   2.350  19.676  0.00  0.00    +0.000 C 
ATOM     19  C   UNL     1       2.664   0.941  19.802  0.00  0.00    +0.000 C 
ATOM     20  C   UNL     1       0.825   2.290  18.768  0.00  0.00    +0.000 C 
ATOM     21  O   UNL     1       2.998   3.191  19.087  0.00  0.00    +0.000 OA
ENDROOT
BRANCH   1  22
ATOM     22  N   UNL     1       3.810   7.368  16.836  0.00  0.00    +0.000 N 
ATOM     23  H   UNL     1       3.268   8.019  16.268  0.00  0.00    +0.000 HD
BRANCH  22  24
ATOM     24  C   UNL     1       5.038   6.911  16.208  0.00  0.00    +0.000 C 
BRANCH  24  25
ATOM     25  C   UNL     1       6.271   7.143  17.081  0.00  0.00    +0.000 C 
BRANCH  25  27
ATOM     26  C   UNL     1       7.092   4.883  16.820  0.00  0.00    +0.000 C 
ATOM     27  N   UNL     1       6.671   5.900  17.792  0.00  0.00    +0.000 NA
ATOM     28  C   UNL     1       7.766   6.123  18.760  0.00  0.00    +0.000 C 
ENDBRANCH  25  27
ENDBRANCH  24  25
ENDBRANCH  22  24
ENDBRANCH   1  22
TORSDOF 4
ENDMDL
MODEL 9
REMARK VINA RESULT:      -6.1      0.900      1.329
REMARK  Name = 
REMARK  8 active torsions:
REMARK  status: ('A' for Active; 'I' for Inactive)
REMARK    1  A    between atoms: C_1  and  N_2
REMARK    2  A    between atoms: N_2  and  C_3
REMARK    3  A    between atoms: N_2  and  C_4
REMARK    4  A    between atoms: C_4  and  C_5
REMARK    5  A    between atoms: C_5  and  N_6
REMARK    6  A    between atoms: N_6  and  C_7
REMARK    7  A    between atoms: C_24  and  C_25
REMARK    8  A    between atoms: C_24  and  C_26
REMARK                            x       y       z     vdW  Elec       q    Type
REMARK                         _______ _______ _______ _____ _____    ______ ____
ROOT
ATOM      1  C   UNL     1       3.742   4.521  19.636  0.00  0.00    +0.000 A 
ATOM      2  C   UNL     1       4.650   4.141  18.617  0.00  0.00    +0.000 A 
ATOM      3  C   UNL     1       4.887   4.923  17.517  0.00  0.00    +0.000 A 
ATOM      4  C   UNL     1       4.233   6.145  17.352  0.00  0.00    +0.000 A 
ATOM      5  C   UNL     1       3.341   6.597  18.338  0.00  0.00    +0.000 A 
ATOM      6  O   UNL     1       2.783   7.798  18.194  0.00  0.00    +0.000 OA
ATOM      7  C   UNL     1       1.959   8.329  19.085  0.00  0.00    +0.000 A 
ATOM      8  C   UNL     1       1.470   9.627  18.890  0.00  0.00    +0.000 A 
ATOM      9  C   UNL     1       0.604  10.202  19.827  0.00  0.00    +0.000 A 
ATOM     10  C   UNL     1       0.211   9.479  20.954  0.00  0.00    +0.000 A 
ATOM     11  C   UNL     1       0.694   8.184  21.159  0.00  0.00    +0.000 A 
ATOM     12  C   UNL     1       1.585   7.602  20.232  0.00  0.00    +0.000 A 
ATOM     13  C   UNL     1       2.132   6.322  20.432  0.00  0.00    +0.000 A 
ATOM     14  O   UNL     1       1.797   5.702  21.422  0.00  0.00    +0.000 OA
ATOM     15  C   UNL     1       3.069   5.790  19.494  0.00  0.00    +0.000 A 
ATOM     16  C   UNL     1       4.501   6.874  16.081  0.00  0.00    +0.000 C 
ATOM     17  C   UNL     1       5.516   6.472  15.287  0.00  0.00    +0.000 C 
ATOM     18  C   UNL     1       6.474   5.409  15.802  0.00  0.00    +0.000 C 
ATOM     19  C   UNL     1       7.187   4.661  14.669  0.00  0.00    +0.000 C 
ATOM     20  C   UNL     1       7.529   6.104  16.687  0.00  0.00    +0.000 C 
ATOM     21  O   UNL     1       5.777   4.504  16.585  0.00  0.00    +0.000 OA
ENDROOT
BRANCH   1  22
ATOM     22  N   UNL     1       3.569   3.647  20.776  0.00  0.00    +0.000 N 
ATOM     23  H   UNL     1       4.295   3.564  21.487  0.00  0.00    +0.000 HD
BRANCH  22  24
ATOM     24  C   UNL     1       2.599   2.565  20.785  0.00  0.00    +0.000 C 
BRANCH  24  25
ATOM     25  C   UNL     1       2.363   1.970  19.397  0.00  0.00    +0.000 C 
BRANCH  25  27
ATOM     26  C   UNL     1       0.255   3.057  19.874  0.00  0.00    +0.000 C 
ATOM     27  N   UNL     1       1.070   2.430  18.825  0.00  0.00    +0.000 NA
ATOM     28  C   UNL     1       1.246   3.389  17.714  0.00  0.00    +0.000 C 
ENDBRANCH  25  27
ENDBRANCH  24  25
ENDBRANCH  22  24
ENDBRANCH   1  22
TORSDOF 4
ENDMDL
