MODEL 1
REMARK VINA RESULT:      -7.7      0.000      0.000
REMARK  Name = 
REMARK  2 active torsions:
REMARK  status: ('A' for Active; 'I' for Inactive)
REMARK    1  A    between atoms: N_8  and  C_9
REMARK    2  A    between atoms: C_12  and  O_13
REMARK                            x       y       z     vdW  Elec       q    Type
REMARK                         _______ _______ _______ _____ _____    ______ ____
ROOT
ATOM      1  O   UNL     1      -0.339  13.905  21.885  0.00  0.00    +0.000 OA
ATOM      2  C   UNL     1      -0.688  12.912  21.247  0.00  0.00    +0.000 C 
ATOM      3  C   UNL     1      -1.253  11.691  21.940  0.00  0.00    +0.000 C 
ATOM      4  C   UNL     1      -0.386  10.508  21.692  0.00  0.00    +0.000 A 
ATOM      5  C   UNL     1       0.369   9.916  22.679  0.00  0.00    +0.000 A 
ATOM      6  N   UNL     1       1.204   8.886  22.461  0.00  0.00    +0.000 NA
ATOM      7  C   UNL     1       1.272   8.416  21.209  0.00  0.00    +0.000 A 
ATOM      8  N   UNL     1       2.131   7.336  21.006  0.00  0.00    +0.000 N 
ATOM      9  N   UNL     1       0.579   8.941  20.189  0.00  0.00    +0.000 NA
ATOM     10  C   UNL     1      -0.251   9.978  20.428  0.00  0.00    +0.000 A 
ATOM     11  C   UNL     1      -0.982  10.529  19.262  0.00  0.00    +0.000 A 
ATOM     12  N   UNL     1      -1.546   9.606  18.432  0.00  0.00    +0.000 NA
ATOM     13  C   UNL     1      -2.195  10.053  17.335  0.00  0.00    +0.000 A 
ATOM     14  C   UNL     1      -2.284  11.387  16.984  0.00  0.00    +0.000 A 
ATOM     15  C   UNL     1      -1.692  12.326  17.819  0.00  0.00    +0.000 A 
ATOM     16  C   UNL     1      -1.083  11.910  19.006  0.00  0.00    +0.000 A 
ATOM     17  N   UNL     1      -0.653  12.931  19.877  0.00  0.00    +0.000 N 
ATOM     18  H   UNL     1       2.611   7.112  21.865  0.00  0.00    +0.000 HD
ATOM     19  H   UNL     1      -0.472  13.852  19.495  0.00  0.00    +0.000 HD
ENDROOT
BRANCH   8  20
ATOM     20  C   UNL     1       2.116   6.349  20.011  0.00  0.00    +0.000 A 
ATOM     21  C   UNL     1       2.823   6.480  18.807  0.00  0.00    +0.000 A 
ATOM     22  C   UNL     1       2.847   5.463  17.853  0.00  0.00    +0.000 A 
ATOM     23  C   UNL     1       2.164   4.280  18.100  0.00  0.00    +0.000 A 
ATOM     24  C   UNL     1       1.462   4.114  19.293  0.00  0.00    +0.000 A 
ATOM     25 CL   UNL     1       0.608   2.653  19.633  0.00  0.00    +0.000 Cl
ATOM     26  C   UNL     1       1.443   5.141  20.245  0.00  0.00    +0.000 A 
BRANCH  23  27
ATOM     27  O   UNL     1       2.196   3.282  17.163  0.00  0.00    +0.000 OA
ATOM     28  H   UNL     1       3.017   3.359  16.650  0.00  0.00    +0.000 HD
ENDBRANCH  23  27
ENDBRANCH   8  20
TORSDOF 2
ENDMDL
MODEL 2
REMARK VINA RESULT:      -7.5      0.977      1.065
REMARK  Name = 
REMARK  2 active torsions:
REMARK  status: ('A' for Active; 'I' for Inactive)
REMARK    1  A    between atoms: N_8  and  C_9
REMARK    2  A    between atoms: C_12  and  O_13
REMARK                            x       y       z     vdW  Elec       q    Type
REMARK                         _______ _______ _______ _____ _____    ______ ____
ROOT
ATOM      1  O   UNL     1      -1.010  14.520  20.265  0.00  0.00    +0.000 OA
ATOM      2  C   UNL     1      -1.292  13.380  19.896  0.00  0.00    +0.000 C 
ATOM      3  C   UNL     1      -1.745  12.324  20.881  0.00  0.00    +0.000 C 
ATOM      4  C   UNL     1      -0.792  11.182  20.889  0.00  0.00    +0.000 A 
ATOM      5  C   UNL     1       0.027  10.900  21.958  0.00  0.00    +0.000 A 
ATOM      6  N   UNL     1       0.937   9.911  21.959  0.00  0.00    +0.000 NA
ATOM      7  C   UNL     1       1.016   9.159  20.854  0.00  0.00    +0.000 A 
ATOM      8  N   UNL     1       1.953   8.127  20.880  0.00  0.00    +0.000 N 
ATOM      9  N   UNL     1       0.263   9.373  19.766  0.00  0.00    +0.000 NA
ATOM     10  C   UNL     1      -0.642  10.374  19.782  0.00  0.00    +0.000 A 
ATOM     11  C   UNL     1      -1.437  10.576  18.549  0.00  0.00    +0.000 A 
ATOM     12  N   UNL     1      -1.943   9.442  17.984  0.00  0.00    +0.000 NA
ATOM     13  C   UNL     1      -2.648   9.564  16.838  0.00  0.00    +0.000 A 
ATOM     14  C   UNL     1      -2.849  10.765  16.184  0.00  0.00    +0.000 A 
ATOM     15  C   UNL     1      -2.316  11.917  16.748  0.00  0.00    +0.000 A 
ATOM     16  C   UNL     1      -1.653  11.843  17.976  0.00  0.00    +0.000 A 
ATOM     17  N   UNL     1      -1.287  13.072  18.561  0.00  0.00    +0.000 N 
ATOM     18  H   UNL     1       2.467   8.151  21.749  0.00  0.00    +0.000 HD
ATOM     19  H   UNL     1      -1.187  13.885  17.964  0.00  0.00    +0.000 HD
ENDROOT
BRANCH   8  20
ATOM     20  C   UNL     1       1.996   6.931  20.150  0.00  0.00    +0.000 A 
ATOM     21  C   UNL     1       2.532   6.856  18.856  0.00  0.00    +0.000 A 
ATOM     22  C   UNL     1       2.623   5.647  18.166  0.00  0.00    +0.000 A 
ATOM     23  C   UNL     1       2.183   4.480  18.775  0.00  0.00    +0.000 A 
ATOM     24  C   UNL     1       1.657   4.520  20.065  0.00  0.00    +0.000 A 
ATOM     25 CL   UNL     1       1.109   3.085  20.854  0.00  0.00    +0.000 Cl
ATOM     26  C   UNL     1       1.569   5.738  20.751  0.00  0.00    +0.000 A 
BRANCH  23  27
ATOM     27  O   UNL     1       2.281   3.294  18.096  0.00  0.00    +0.000 OA
ATOM     28  H   UNL     1       3.176   2.936  18.216  0.00  0.00    +0.000 HD
ENDBRANCH  23  27
ENDBRANCH   8  20
TORSDOF 2
ENDMDL
MODEL 3
REMARK VINA RESULT:      -7.5      4.869      7.549
REMARK  Name = 
REMARK  2 active torsions:
REMARK  status: ('A' for Active; 'I' for Inactive)
REMARK    1  A    between atoms: N_8  and  C_9
REMARK    2  A    between atoms: C_12  and  O_13
REMARK                            x       y       z     vdW  Elec       q    Type
REMARK                         _______ _______ _______ _____ _____    ______ ____
ROOT
ATOM      1  O   UNL     1       1.319   3.213  22.203  0.00  0.00    +0.000 OA
ATOM      2  C   UNL     1       1.483   3.866  21.173  0.00  0.00    +0.000 C 
ATOM      3  C   UNL     1       1.027   3.342  19.829  0.00  0.00    +0.000 C 
ATOM      4  C   UNL     1       2.188   3.184  18.913  0.00  0.00    +0.000 A 
ATOM      5  C   UNL     1       2.655   1.956  18.504  0.00  0.00    +0.000 A 
ATOM      6  N   UNL     1       3.739   1.792  17.728  0.00  0.00    +0.000 NA
ATOM      7  C   UNL     1       4.371   2.902  17.327  0.00  0.00    +0.000 A 
ATOM      8  N   UNL     1       5.484   2.713  16.508  0.00  0.00    +0.000 N 
ATOM      9  N   UNL     1       3.988   4.135  17.688  0.00  0.00    +0.000 NA
ATOM     10  C   UNL     1       2.899   4.279  18.472  0.00  0.00    +0.000 A 
ATOM     11  C   UNL     1       2.529   5.662  18.853  0.00  0.00    +0.000 A 
ATOM     12  N   UNL     1       2.552   6.577  17.841  0.00  0.00    +0.000 NA
ATOM     13  C   UNL     1       2.256   7.860  18.139  0.00  0.00    +0.000 A 
ATOM     14  C   UNL     1       1.973   8.307  19.416  0.00  0.00    +0.000 A 
ATOM     15  C   UNL     1       1.970   7.379  20.451  0.00  0.00    +0.000 A 
ATOM     16  C   UNL     1       2.189   6.028  20.169  0.00  0.00    +0.000 A 
ATOM     17  N   UNL     1       2.007   5.131  21.240  0.00  0.00    +0.000 N 
ATOM     18  H   UNL     1       5.659   1.726  16.389  0.00  0.00    +0.000 HD
ATOM     19  H   UNL     1       2.080   5.483  22.188  0.00  0.00    +0.000 HD
ENDROOT
BRANCH   8  20
ATOM     20  C   UNL     1       6.075   3.580  15.579  0.00  0.00    +0.000 A 
ATOM     21  C   UNL     1       6.843   4.689  15.964  0.00  0.00    +0.000 A 
ATOM     22  C   UNL     1       7.476   5.507  15.028  0.00  0.00    +0.000 A 
ATOM     23  C   UNL     1       7.356   5.215  13.677  0.00  0.00    +0.000 A 
ATOM     24  C   UNL     1       6.611   4.112  13.262  0.00  0.00    +0.000 A 
ATOM     25 CL   UNL     1       6.449   3.718  11.589  0.00  0.00    +0.000 Cl
ATOM     26  C   UNL     1       5.978   3.296  14.209  0.00  0.00    +0.000 A 
BRANCH  23  27
ATOM     27  O   UNL     1       7.985   6.017  12.761  0.00  0.00    +0.000 OA
ATOM     28  H   UNL     1       8.438   5.456  12.111  0.00  0.00    +0.000 HD
ENDBRANCH  23  27
ENDBRANCH   8  20
TORSDOF 2
ENDMDL
MODEL 4
REMARK VINA RESULT:      -7.4      2.019      3.398
REMARK  Name = 
REMARK  2 active torsions:
REMARK  status: ('A' for Active; 'I' for Inactive)
REMARK    1  A    between atoms: N_8  and  C_9
REMARK    2  A    between atoms: C_12  and  O_13
REMARK                            x       y       z     vdW  Elec       q    Type
REMARK                         _______ _______ _______ _____ _____    ______ ____
ROOT
ATOM      1  O   UNL     1      -0.572  13.833  18.329  0.00  0.00    +0.000 OA
ATOM      2  C   UNL     1      -0.184  12.986  19.133  0.00  0.00    +0.000 C 
ATOM      3  C   UNL     1       1.288  12.679  19.304  0.00  0.00    +0.000 C 
ATOM      4  C   UNL     1       1.563  11.259  18.955  0.00  0.00    +0.000 A 
ATOM      5  C   UNL     1       2.281  10.889  17.841  0.00  0.00    +0.000 A 
ATOM      6  N   UNL     1       2.487   9.612  17.478  0.00  0.00    +0.000 NA
ATOM      7  C   UNL     1       1.972   8.665  18.273  0.00  0.00    +0.000 A 
ATOM      8  N   UNL     1       2.212   7.346  17.890  0.00  0.00    +0.000 N 
ATOM      9  N   UNL     1       1.253   8.940  19.370  0.00  0.00    +0.000 NA
ATOM     10  C   UNL     1       1.053  10.229  19.716  0.00  0.00    +0.000 A 
ATOM     11  C   UNL     1       0.239  10.476  20.929  0.00  0.00    +0.000 A 
ATOM     12  N   UNL     1       0.544   9.701  22.009  0.00  0.00    +0.000 NA
ATOM     13  C   UNL     1      -0.190   9.861  23.132  0.00  0.00    +0.000 A 
ATOM     14  C   UNL     1      -1.257  10.733  23.235  0.00  0.00    +0.000 A 
ATOM     15  C   UNL     1      -1.581  11.508  22.128  0.00  0.00    +0.000 A 
ATOM     16  C   UNL     1      -0.793  11.432  20.976  0.00  0.00    +0.000 A 
ATOM     17  N   UNL     1      -1.083  12.364  19.960  0.00  0.00    +0.000 N 
ATOM     18  H   UNL     1       2.715   7.328  17.015  0.00  0.00    +0.000 HD
ATOM     19  H   UNL     1      -2.006  12.783  19.933  0.00  0.00    +0.000 HD
ENDROOT
BRANCH   8  20
ATOM     20  C   UNL     1       2.234   6.175  18.660  0.00  0.00    +0.000 A 
ATOM     21  C   UNL     1       2.202   6.193  20.062  0.00  0.00    +0.000 A 
ATOM     22  C   UNL     1       2.164   5.018  20.812  0.00  0.00    +0.000 A 
ATOM     23  C   UNL     1       2.144   3.793  20.160  0.00  0.00    +0.000 A 
ATOM     24  C   UNL     1       2.163   3.742  18.767  0.00  0.00    +0.000 A 
ATOM     25 CL   UNL     1       2.132   2.235  17.925  0.00  0.00    +0.000 Cl
ATOM     26  C   UNL     1       2.202   4.927  18.021  0.00  0.00    +0.000 A 
BRANCH  23  27
ATOM     27  O   UNL     1       2.099   2.641  20.901  0.00  0.00    +0.000 OA
ATOM     28  H   UNL     1       2.739   2.008  20.536  0.00  0.00    +0.000 HD
ENDBRANCH  23  27
ENDBRANCH   8  20
TORSDOF 2
ENDMDL
MODEL 5
REMARK VINA RESULT:      -7.3      3.416      8.030
REMARK  Name = 
REMARK  2 active torsions:
REMARK  status: ('A' for Active; 'I' for Inactive)
REMARK    1  A    between atoms: N_8  and  C_9
REMARK    2  A    between atoms: C_12  and  O_13
REMARK                            x       y       z     vdW  Elec       q    Type
REMARK                         _______ _______ _______ _____ _____    ______ ____
ROOT
ATOM      1  O   UNL     1       3.392   1.129  18.571  0.00  0.00    +0.000 OA
ATOM      2  C   UNL     1       3.817   2.279  18.465  0.00  0.00    +0.000 C 
ATOM      3  C   UNL     1       4.303   3.052  19.672  0.00  0.00    +0.000 C 
ATOM      4  C   UNL     1       3.476   4.272  19.873  0.00  0.00    +0.000 A 
ATOM      5  C   UNL     1       2.615   4.423  20.935  0.00  0.00    +0.000 A 
ATOM      6  N   UNL     1       1.815   5.491  21.099  0.00  0.00    +0.000 NA
ATOM      7  C   UNL     1       1.895   6.456  20.174  0.00  0.00    +0.000 A 
ATOM      8  N   UNL     1       1.071   7.564  20.371  0.00  0.00    +0.000 N 
ATOM      9  N   UNL     1       2.700   6.382  19.105  0.00  0.00    +0.000 NA
ATOM     10  C   UNL     1       3.492   5.300  18.955  0.00  0.00    +0.000 A 
ATOM     11  C   UNL     1       4.350   5.263  17.748  0.00  0.00    +0.000 A 
ATOM     12  N   UNL     1       5.011   6.421  17.461  0.00  0.00    +0.000 NA
ATOM     13  C   UNL     1       5.781   6.454  16.352  0.00  0.00    +0.000 A 
ATOM     14  C   UNL     1       5.904   5.397  15.470  0.00  0.00    +0.000 A 
ATOM     15  C   UNL     1       5.215   4.224  15.751  0.00  0.00    +0.000 A 
ATOM     16  C   UNL     1       4.475   4.123  16.932  0.00  0.00    +0.000 A 
ATOM     17  N   UNL     1       3.941   2.852  17.226  0.00  0.00    +0.000 N 
ATOM     18  H   UNL     1       0.495   7.423  21.188  0.00  0.00    +0.000 HD
ATOM     19  H   UNL     1       3.802   2.195  16.467  0.00  0.00    +0.000 HD
ENDROOT
BRANCH   8  20
ATOM     20  C   UNL     1       1.206   8.880  19.908  0.00  0.00    +0.000 A 
ATOM     21  C   UNL     1       1.636   9.182  18.608  0.00  0.00    +0.000 A 
ATOM     22  C   UNL     1       1.707  10.494  18.142  0.00  0.00    +0.000 A 
ATOM     23  C   UNL     1       1.332  11.536  18.980  0.00  0.00    +0.000 A 
ATOM     24  C   UNL     1       0.889  11.268  20.274  0.00  0.00    +0.000 A 
ATOM     25 CL   UNL     1       0.408  12.539  21.338  0.00  0.00    +0.000 Cl
ATOM     26  C   UNL     1       0.821   9.946  20.733  0.00  0.00    +0.000 A 
BRANCH  23  27
ATOM     27  O   UNL     1       1.397  12.823  18.517  0.00  0.00    +0.000 OA
ATOM     28  H   UNL     1       2.057  13.311  19.035  0.00  0.00    +0.000 HD
ENDBRANCH  23  27
ENDBRANCH   8  20
TORSDOF 2
ENDMDL
MODEL 6
REMARK VINA RESULT:      -7.2      3.042      7.825
REMARK  Name = 
REMARK  2 active torsions:
REMARK  status: ('A' for Active; 'I' for Inactive)
REMARK    1  A    between atoms: N_8  and  C_9
REMARK    2  A    between atoms: C_12  and  O_13
REMARK                            x       y       z     vdW  Elec       q    Type
REMARK                         _______ _______ _______ _____ _____    ______ ____
ROOT
ATOM      1  O   UNL     1       6.687   4.008  18.485  0.00  0.00    +0.000 OA
ATOM      2  C   UNL     1       5.471   4.183  18.566  0.00  0.00    +0.000 C 
ATOM      3  C   UNL     1       4.637   4.487  17.341  0.00  0.00    +0.000 C 
ATOM      4  C   UNL     1       3.990   5.820  17.474  0.00  0.00    +0.000 A 
ATOM      5  C   UNL     1       4.345   6.902  16.701  0.00  0.00    +0.000 A 
ATOM      6  N   UNL     1       3.816   8.128  16.849  0.00  0.00    +0.000 NA
ATOM      7  C   UNL     1       2.878   8.274  17.793  0.00  0.00    +0.000 A 
ATOM      8  N   UNL     1       2.328   9.549  17.920  0.00  0.00    +0.000 N 
ATOM      9  N   UNL     1       2.483   7.275  18.595  0.00  0.00    +0.000 NA
ATOM     10  C   UNL     1       3.030   6.051  18.434  0.00  0.00    +0.000 A 
ATOM     11  C   UNL     1       2.568   4.988  19.356  0.00  0.00    +0.000 A 
ATOM     12  N   UNL     1       1.219   4.920  19.548  0.00  0.00    +0.000 NA
ATOM     13  C   UNL     1       0.746   3.991  20.405  0.00  0.00    +0.000 A 
ATOM     14  C   UNL     1       1.551   3.133  21.131  0.00  0.00    +0.000 A 
ATOM     15  C   UNL     1       2.926   3.214  20.951  0.00  0.00    +0.000 A 
ATOM     16  C   UNL     1       3.449   4.106  20.011  0.00  0.00    +0.000 A 
ATOM     17  N   UNL     1       4.834   4.014  19.768  0.00  0.00    +0.000 N 
ATOM     18  H   UNL     1       2.782  10.184  17.281  0.00  0.00    +0.000 HD
ATOM     19  H   UNL     1       5.427   3.602  20.480  0.00  0.00    +0.000 HD
ENDROOT
BRANCH   8  20
ATOM     20  C   UNL     1       1.086   9.946  18.436  0.00  0.00    +0.000 A 
ATOM     21  C   UNL     1       0.960  10.636  19.650  0.00  0.00    +0.000 A 
ATOM     22  C   UNL     1      -0.276  11.078  20.121  0.00  0.00    +0.000 A 
ATOM     23  C   UNL     1      -1.416  10.843  19.365  0.00  0.00    +0.000 A 
ATOM     24  C   UNL     1      -1.323  10.170  18.148  0.00  0.00    +0.000 A 
ATOM     25 CL   UNL     1      -2.721   9.868  17.181  0.00  0.00    +0.000 Cl
ATOM     26  C   UNL     1      -0.076   9.730  17.683  0.00  0.00    +0.000 A 
BRANCH  23  27
ATOM     27  O   UNL     1      -2.628  11.285  19.828  0.00  0.00    +0.000 OA
ATOM     28  H   UNL     1      -3.044  10.576  20.345  0.00  0.00    +0.000 HD
ENDBRANCH  23  27
ENDBRANCH   8  20
TORSDOF 2
ENDMDL
MODEL 7
REMARK VINA RESULT:      -7.1      1.101      1.455
REMARK  Name = 
REMARK  2 active torsions:
REMARK  status: ('A' for Active; 'I' for Inactive)
REMARK    1  A    between atoms: N_8  and  C_9
REMARK    2  A    between atoms: C_12  and  O_13
REMARK                            x       y       z     vdW  Elec       q    Type
REMARK                         _______ _______ _______ _____ _____    ______ ____
ROOT
ATOM      1  O   UNL     1      -0.460  13.888  21.907  0.00  0.00    +0.000 OA
ATOM      2  C   UNL     1      -0.772  12.883  21.268  0.00  0.00    +0.000 C 
ATOM      3  C   UNL     1      -1.365  11.670  21.951  0.00  0.00    +0.000 C 
ATOM      4  C   UNL     1      -0.480  10.488  21.765  0.00  0.00    +0.000 A 
ATOM      5  C   UNL     1       0.227   9.916  22.797  0.00  0.00    +0.000 A 
ATOM      6  N   UNL     1       1.078   8.888  22.637  0.00  0.00    +0.000 NA
ATOM      7  C   UNL     1       1.210   8.399  21.398  0.00  0.00    +0.000 A 
ATOM      8  N   UNL     1       2.083   7.321  21.254  0.00  0.00    +0.000 N 
ATOM      9  N   UNL     1       0.566   8.905  20.336  0.00  0.00    +0.000 NA
ATOM     10  C   UNL     1      -0.281   9.940  20.517  0.00  0.00    +0.000 A 
ATOM     11  C   UNL     1      -0.955  10.469  19.309  0.00  0.00    +0.000 A 
ATOM     12  N   UNL     1      -1.472   9.530  18.465  0.00  0.00    +0.000 NA
ATOM     13  C   UNL     1      -2.068   9.956  17.331  0.00  0.00    +0.000 A 
ATOM     14  C   UNL     1      -2.146  11.284  16.955  0.00  0.00    +0.000 A 
ATOM     15  C   UNL     1      -1.601  12.240  17.804  0.00  0.00    +0.000 A 
ATOM     16  C   UNL     1      -1.050  11.845  19.026  0.00  0.00    +0.000 A 
ATOM     17  N   UNL     1      -0.669  12.882  19.901  0.00  0.00    +0.000 N 
ATOM     18  H   UNL     1       2.521   7.113  22.139  0.00  0.00    +0.000 HD
ATOM     19  H   UNL     1      -0.474  13.798  19.515  0.00  0.00    +0.000 HD
ENDROOT
BRANCH   8  20
ATOM     20  C   UNL     1       2.123   6.319  20.275  0.00  0.00    +0.000 A 
ATOM     21  C   UNL     1       1.255   5.217  20.287  0.00  0.00    +0.000 A 
ATOM     22  C   UNL     1       1.266   4.260  19.272  0.00  0.00    +0.000 A 
ATOM     23  C   UNL     1       2.150   4.403  18.211  0.00  0.00    +0.000 A 
ATOM     24  C   UNL     1       3.016   5.493  18.163  0.00  0.00    +0.000 A 
ATOM     25 CL   UNL     1       4.122   5.703  16.854  0.00  0.00    +0.000 Cl
ATOM     26  C   UNL     1       2.998   6.449  19.188  0.00  0.00    +0.000 A 
BRANCH  23  27
ATOM     27  O   UNL     1       2.152   3.464  17.213  0.00  0.00    +0.000 OA
ATOM     28  H   UNL     1       2.239   2.583  17.611  0.00  0.00    +0.000 HD
ENDBRANCH  23  27
ENDBRANCH   8  20
TORSDOF 2
ENDMDL
MODEL 8
REMARK VINA RESULT:      -7.0      3.154      8.033
REMARK  Name = 
REMARK  2 active torsions:
REMARK  status: ('A' for Active; 'I' for Inactive)
REMARK    1  A    between atoms: N_8  and  C_9
REMARK    2  A    between atoms: C_12  and  O_13
REMARK                            x       y       z     vdW  Elec       q    Type
REMARK                         _______ _______ _______ _____ _____    ______ ____
ROOT
ATOM      1  O   UNL     1       6.149   4.006  17.271  0.00  0.00    +0.000 OA
ATOM      2  C   UNL     1       5.064   4.100  17.844  0.00  0.00    +0.000 C 
ATOM      3  C   UNL     1       3.824   4.562  17.108  0.00  0.00    +0.000 C 
ATOM      4  C   UNL     1       3.302   5.817  17.712  0.00  0.00    +0.000 A 
ATOM      5  C   UNL     1       3.346   7.031  17.065  0.00  0.00    +0.000 A 
ATOM      6  N   UNL     1       2.936   8.185  17.619  0.00  0.00    +0.000 NA
ATOM      7  C   UNL     1       2.442   8.119  18.861  0.00  0.00    +0.000 A 
ATOM      8  N   UNL     1       2.005   9.323  19.412  0.00  0.00    +0.000 N 
ATOM      9  N   UNL     1       2.373   6.979  19.564  0.00  0.00    +0.000 NA
ATOM     10  C   UNL     1       2.794   5.831  18.992  0.00  0.00    +0.000 A 
ATOM     11  C   UNL     1       2.708   4.605  19.818  0.00  0.00    +0.000 A 
ATOM     12  N   UNL     1       1.539   4.434  20.499  0.00  0.00    +0.000 NA
ATOM     13  C   UNL     1       1.420   3.349  21.295  0.00  0.00    +0.000 A 
ATOM     14  C   UNL     1       2.429   2.426  21.491  0.00  0.00    +0.000 A 
ATOM     15  C   UNL     1       3.628   2.610  20.813  0.00  0.00    +0.000 A 
ATOM     16  C   UNL     1       3.760   3.674  19.917  0.00  0.00    +0.000 A 
ATOM     17  N   UNL     1       4.940   3.698  19.148  0.00  0.00    +0.000 N 
ATOM     18  H   UNL     1       2.186  10.080  18.770  0.00  0.00    +0.000 HD
ATOM     19  H   UNL     1       5.755   3.204  19.492  0.00  0.00    +0.000 HD
ENDROOT
BRANCH   8  20
ATOM     20  C   UNL     1       1.068   9.561  20.428  0.00  0.00    +0.000 A 
ATOM     21  C   UNL     1       1.083   8.866  21.645  0.00  0.00    +0.000 A 
ATOM     22  C   UNL     1       0.181   9.157  22.669  0.00  0.00    +0.000 A 
ATOM     23  C   UNL     1      -0.751  10.170  22.490  0.00  0.00    +0.000 A 
ATOM     24  C   UNL     1      -0.783  10.887  21.295  0.00  0.00    +0.000 A 
ATOM     25 CL   UNL     1      -1.925  12.157  21.043  0.00  0.00    +0.000 Cl
ATOM     26  C   UNL     1       0.126  10.588  20.272  0.00  0.00    +0.000 A 
BRANCH  23  27
ATOM     27  O   UNL     1      -1.630  10.457  23.501  0.00  0.00    +0.000 OA
ATOM     28  H   UNL     1      -2.249  11.139  23.195  0.00  0.00    +0.000 HD
ENDBRANCH  23  27
ENDBRANCH   8  20
TORSDOF 2
ENDMDL
MODEL 9
REMARK VINA RESULT:      -6.9      1.399      1.748
REMARK  Name = 
REMARK  2 active torsions:
REMARK  status: ('A' for Active; 'I' for Inactive)
REMARK    1  A    between atoms: N_8  and  C_9
REMARK    2  A    between atoms: C_12  and  O_13
REMARK                            x       y       z     vdW  Elec       q    Type
REMARK                         _______ _______ _______ _____ _____    ______ ____
ROOT
ATOM      1  O   UNL     1      -0.986  14.562  20.232  0.00  0.00    +0.000 OA
ATOM      2  C   UNL     1      -1.251  13.415  19.870  0.00  0.00    +0.000 C 
ATOM      3  C   UNL     1      -1.767  12.382  20.848  0.00  0.00    +0.000 C 
ATOM      4  C   UNL     1      -0.822  11.236  20.936  0.00  0.00    +0.000 A 
ATOM      5  C   UNL     1      -0.069  10.974  22.058  0.00  0.00    +0.000 A 
ATOM      6  N   UNL     1       0.834   9.982  22.134  0.00  0.00    +0.000 NA
ATOM      7  C   UNL     1       0.975   9.207  21.051  0.00  0.00    +0.000 A 
ATOM      8  N   UNL     1       1.904   8.172  21.154  0.00  0.00    +0.000 N 
ATOM      9  N   UNL     1       0.289   9.401  19.915  0.00  0.00    +0.000 NA
ATOM     10  C   UNL     1      -0.610  10.406  19.857  0.00  0.00    +0.000 A 
ATOM     11  C   UNL     1      -1.329  10.584  18.575  0.00  0.00    +0.000 A 
ATOM     12  N   UNL     1      -1.807   9.441  18.004  0.00  0.00    +0.000 NA
ATOM     13  C   UNL     1      -2.441   9.542  16.816  0.00  0.00    +0.000 A 
ATOM     14  C   UNL     1      -2.597  10.729  16.126  0.00  0.00    +0.000 A 
ATOM     15  C   UNL     1      -2.093  11.891  16.698  0.00  0.00    +0.000 A 
ATOM     16  C   UNL     1      -1.504  11.840  17.964  0.00  0.00    +0.000 A 
ATOM     17  N   UNL     1      -1.168  13.079  18.544  0.00  0.00    +0.000 N 
ATOM     18  H   UNL     1       2.365   8.212  22.051  0.00  0.00    +0.000 HD
ATOM     19  H   UNL     1      -1.029  13.879  17.938  0.00  0.00    +0.000 HD
ENDROOT
BRANCH   8  20
ATOM     20  C   UNL     1       1.984   6.961  20.452  0.00  0.00    +0.000 A 
ATOM     21  C   UNL     1       1.213   5.840  20.791  0.00  0.00    +0.000 A 
ATOM     22  C   UNL     1       1.260   4.662  20.046  0.00  0.00    +0.000 A 
ATOM     23  C   UNL     1       2.080   4.594  18.929  0.00  0.00    +0.000 A 
ATOM     24  C   UNL     1       2.849   5.696  18.558  0.00  0.00    +0.000 A 
ATOM     25 CL   UNL     1       3.874   5.647  17.170  0.00  0.00    +0.000 Cl
ATOM     26  C   UNL     1       2.797   6.875  19.313  0.00  0.00    +0.000 A 
BRANCH  23  27
ATOM     27  O   UNL     1       2.118   3.438  18.195  0.00  0.00    +0.000 OA
ATOM     28  H   UNL     1       1.223   3.062  18.155  0.00  0.00    +0.000 HD
ENDBRANCH  23  27
ENDBRANCH   8  20
TORSDOF 2
ENDMDL
