MODEL 1
REMARK VINA RESULT:      -6.0      0.000      0.000
REMARK  Name = 
REMARK  13 active torsions:
REMARK  status: ('A' for Active; 'I' for Inactive)
REMARK    1  A    between atoms: C_1  and  C_2
REMARK    2  A    between atoms: C_2  and  C_3
REMARK    3  A    between atoms: C_3  and  C_4
REMARK    4  A    between atoms: C_4  and  C_5
REMARK    5  A    between atoms: C_5  and  C_6
REMARK    6  A    between atoms: C_6  and  C_7
REMARK    7  A    between atoms: C_7  and  C_8
REMARK    8  A    between atoms: C_8  and  O_9
REMARK    9  A    between atoms: C_8  and  C_10
REMARK   10  A    between atoms: C_10  and  C_11
REMARK   11  A    between atoms: C_12  and  C_13
REMARK   12  A    between atoms: C_13  and  C_14
REMARK   13  A    between atoms: C_14  and  C_15
REMARK                            x       y       z     vdW  Elec       q    Type
REMARK                         _______ _______ _______ _____ _____    ______ ____
ROOT
ATOM      1  C   UNL     1       4.448   5.809  18.388  0.00  0.00    +0.000 C 
ENDROOT
BRANCH   1   2
ATOM      2  C   UNL     1       3.267   6.726  18.524  0.00  0.00    +0.000 C 
ATOM      3  C   UNL     1       3.050   7.795  17.745  0.00  0.00    +0.000 C 
BRANCH   3   4
ATOM      4  C   UNL     1       1.867   8.704  17.925  0.00  0.00    +0.000 C 
BRANCH   4   5
ATOM      5  C   UNL     1       1.434   8.743  19.387  0.00  0.00    +0.000 C 
BRANCH   5   6
ATOM      6  C   UNL     1       0.634   9.995  19.703  0.00  0.00    +0.000 C 
ATOM      7  O   UNL     1       0.221  10.749  18.820  0.00  0.00    +0.000 OA
ATOM      8  N   UNL     1       0.366  10.216  21.032  0.00  0.00    +0.000 N 
ATOM      9  C   UNL     1       0.834   9.463  22.183  0.00  0.00    +0.000 C 
ATOM     10  C   UNL     1      -0.346   9.540  23.132  0.00  0.00    +0.000 C 
ATOM     11  C   UNL     1      -0.902  10.943  22.893  0.00  0.00    +0.000 C 
ATOM     12  C   UNL     1      -0.553  11.260  21.441  0.00  0.00    +0.000 C 
ENDBRANCH   5   6
ENDBRANCH   4   5
ENDBRANCH   3   4
ENDBRANCH   1   2
BRANCH   1  13
ATOM     13  C   UNL     1       4.273   4.787  17.250  0.00  0.00    +0.000 C 
BRANCH  13  14
ATOM     14  O   UNL     1       5.504   4.609  16.543  0.00  0.00    +0.000 OA
ATOM     15  H   UNL     1       6.223   4.952  17.101  0.00  0.00    +0.000 HD
ENDBRANCH  13  14
BRANCH  13  16
ATOM     16  C   UNL     1       3.832   3.409  17.758  0.00  0.00    +0.000 C 
BRANCH  16  17
ATOM     17  C   UNL     1       2.436   3.018  17.281  0.00  0.00    +0.000 C 
BRANCH  17  18
ATOM     18  C   UNL     1       1.348   3.855  17.948  0.00  0.00    +0.000 C 
BRANCH  18  19
ATOM     19  C   UNL     1       0.994   3.262  19.312  0.00  0.00    +0.000 C 
BRANCH  19  20
ATOM     20  C   UNL     1       1.215   4.270  20.436  0.00  0.00    +0.000 C 
BRANCH  20  22
ATOM     21  C   UNL     1       2.967   2.583  21.073  0.00  0.00    +0.000 C 
ATOM     22  C   UNL     1       2.004   3.640  21.584  0.00  0.00    +0.000 C 
ENDBRANCH  20  22
ENDBRANCH  19  20
ENDBRANCH  18  19
ENDBRANCH  17  18
ENDBRANCH  16  17
ENDBRANCH  13  16
ENDBRANCH   1  13
TORSDOF 12
ENDMDL
MODEL 2
REMARK VINA RESULT:      -6.0      3.912      7.118
REMARK  Name = 
REMARK  13 active torsions:
REMARK  status: ('A' for Active; 'I' for Inactive)
REMARK    1  A    between atoms: C_1  and  C_2
REMARK    2  A    between atoms: C_2  and  C_3
REMARK    3  A    between atoms: C_3  and  C_4
REMARK    4  A    between atoms: C_4  and  C_5
REMARK    5  A    between atoms: C_5  and  C_6
REMARK    6  A    between atoms: C_6  and  C_7
REMARK    7  A    between atoms: C_7  and  C_8
REMARK    8  A    between atoms: C_8  and  O_9
REMARK    9  A    between atoms: C_8  and  C_10
REMARK   10  A    between atoms: C_10  and  C_11
REMARK   11  A    between atoms: C_12  and  C_13
REMARK   12  A    between atoms: C_13  and  C_14
REMARK   13  A    between atoms: C_14  and  C_15
REMARK                            x       y       z     vdW  Elec       q    Type
REMARK                         _______ _______ _______ _____ _____    ______ ____
ROOT
ATOM      1  C   UNL     1       5.867   5.464  17.401  0.00  0.00    +0.000 C 
ENDROOT
BRANCH   1   2
ATOM      2  C   UNL     1       4.800   5.837  18.391  0.00  0.00    +0.000 C 
ATOM      3  C   UNL     1       3.579   6.274  18.053  0.00  0.00    +0.000 C 
BRANCH   3   4
ATOM      4  C   UNL     1       2.545   6.660  19.073  0.00  0.00    +0.000 C 
BRANCH   4   5
ATOM      5  C   UNL     1       1.799   5.429  19.577  0.00  0.00    +0.000 C 
BRANCH   5   6
ATOM      6  C   UNL     1       1.777   4.320  18.539  0.00  0.00    +0.000 C 
ATOM      7  O   UNL     1       1.198   4.445  17.458  0.00  0.00    +0.000 OA
ATOM      8  N   UNL     1       2.475   3.182  18.863  0.00  0.00    +0.000 N 
ATOM      9  C   UNL     1       3.147   2.861  20.109  0.00  0.00    +0.000 C 
ATOM     10  C   UNL     1       4.350   2.064  19.643  0.00  0.00    +0.000 C 
ATOM     11  C   UNL     1       3.811   1.272  18.454  0.00  0.00    +0.000 C 
ATOM     12  C   UNL     1       2.696   2.141  17.878  0.00  0.00    +0.000 C 
ENDBRANCH   5   6
ENDBRANCH   4   5
ENDBRANCH   3   4
ENDBRANCH   1   2
BRANCH   1  13
ATOM     13  C   UNL     1       5.329   5.381  15.961  0.00  0.00    +0.000 C 
BRANCH  13  14
ATOM     14  O   UNL     1       5.623   6.586  15.247  0.00  0.00    +0.000 OA
ATOM     15  H   UNL     1       6.255   7.102  15.776  0.00  0.00    +0.000 HD
ENDBRANCH  13  14
BRANCH  13  16
ATOM     16  C   UNL     1       5.942   4.218  15.169  0.00  0.00    +0.000 C 
BRANCH  16  17
ATOM     17  C   UNL     1       6.818   4.685  14.010  0.00  0.00    +0.000 C 
BRANCH  17  18
ATOM     18  C   UNL     1       6.652   3.800  12.777  0.00  0.00    +0.000 C 
BRANCH  18  19
ATOM     19  C   UNL     1       5.205   3.323  12.664  0.00  0.00    +0.000 C 
BRANCH  19  20
ATOM     20  C   UNL     1       4.792   3.120  11.210  0.00  0.00    +0.000 C 
BRANCH  20  22
ATOM     21  C   UNL     1       3.047   3.904   9.579  0.00  0.00    +0.000 C 
ATOM     22  C   UNL     1       3.318   3.469  11.009  0.00  0.00    +0.000 C 
ENDBRANCH  20  22
ENDBRANCH  19  20
ENDBRANCH  18  19
ENDBRANCH  17  18
ENDBRANCH  16  17
ENDBRANCH  13  16
ENDBRANCH   1  13
TORSDOF 12
ENDMDL
MODEL 3
REMARK VINA RESULT:      -5.9      6.328      7.607
REMARK  Name = 
REMARK  13 active torsions:
REMARK  status: ('A' for Active; 'I' for Inactive)
REMARK    1  A    between atoms: C_1  and  C_2
REMARK    2  A    between atoms: C_2  and  C_3
REMARK    3  A    between atoms: C_3  and  C_4
REMARK    4  A    between atoms: C_4  and  C_5
REMARK    5  A    between atoms: C_5  and  C_6
REMARK    6  A    between atoms: C_6  and  C_7
REMARK    7  A    between atoms: C_7  and  C_8
REMARK    8  A    between atoms: C_8  and  O_9
REMARK    9  A    between atoms: C_8  and  C_10
REMARK   10  A    between atoms: C_10  and  C_11
REMARK   11  A    between atoms: C_12  and  C_13
REMARK   12  A    between atoms: C_13  and  C_14
REMARK   13  A    between atoms: C_14  and  C_15
REMARK                            x       y       z     vdW  Elec       q    Type
REMARK                         _______ _______ _______ _____ _____    ______ ____
ROOT
ATOM      1  C   UNL     1       6.625   6.724  16.850  0.00  0.00    +0.000 C 
ENDROOT
BRANCH   1   2
ATOM      2  C   UNL     1       7.624   7.396  17.748  0.00  0.00    +0.000 C 
ATOM      3  C   UNL     1       7.810   8.723  17.809  0.00  0.00    +0.000 C 
BRANCH   3   4
ATOM      4  C   UNL     1       8.835   9.358  18.704  0.00  0.00    +0.000 C 
BRANCH   4   5
ATOM      5  C   UNL     1       9.220  10.740  18.187  0.00  0.00    +0.000 C 
BRANCH   5   6
ATOM      6  C   UNL     1       9.866  11.586  19.270  0.00  0.00    +0.000 C 
ATOM      7  O   UNL     1       9.781  11.297  20.465  0.00  0.00    +0.000 OA
ATOM      8  N   UNL     1      10.583  12.674  18.835  0.00  0.00    +0.000 N 
ATOM      9  C   UNL     1      10.720  13.178  17.480  0.00  0.00    +0.000 C 
ATOM     10  C   UNL     1      12.144  13.700  17.462  0.00  0.00    +0.000 C 
ATOM     11  C   UNL     1      12.331  14.269  18.867  0.00  0.00    +0.000 C 
ATOM     12  C   UNL     1      11.406  13.437  19.752  0.00  0.00    +0.000 C 
ENDBRANCH   5   6
ENDBRANCH   4   5
ENDBRANCH   3   4
ENDBRANCH   1   2
BRANCH   1  13
ATOM     13  C   UNL     1       6.523   5.211  17.112  0.00  0.00    +0.000 C 
BRANCH  13  14
ATOM     14  O   UNL     1       7.645   4.528  16.545  0.00  0.00    +0.000 OA
ATOM     15  H   UNL     1       7.473   3.573  16.599  0.00  0.00    +0.000 HD
ENDBRANCH  13  14
BRANCH  13  16
ATOM     16  C   UNL     1       6.488   4.874  18.609  0.00  0.00    +0.000 C 
BRANCH  16  17
ATOM     17  C   UNL     1       5.070   4.769  19.162  0.00  0.00    +0.000 C 
BRANCH  17  18
ATOM     18  C   UNL     1       4.152   3.976  18.236  0.00  0.00    +0.000 C 
BRANCH  18  19
ATOM     19  C   UNL     1       2.859   4.753  17.987  0.00  0.00    +0.000 C 
BRANCH  19  20
ATOM     20  C   UNL     1       2.059   4.939  19.272  0.00  0.00    +0.000 C 
BRANCH  20  22
ATOM     21  C   UNL     1       1.470   3.335  21.115  0.00  0.00    +0.000 C 
ATOM     22  C   UNL     1       1.315   3.656  19.639  0.00  0.00    +0.000 C 
ENDBRANCH  20  22
ENDBRANCH  19  20
ENDBRANCH  18  19
ENDBRANCH  17  18
ENDBRANCH  16  17
ENDBRANCH  13  16
ENDBRANCH   1  13
TORSDOF 12
ENDMDL
MODEL 4
REMARK VINA RESULT:      -5.9      6.376      7.933
REMARK  Name = 
REMARK  13 active torsions:
REMARK  status: ('A' for Active; 'I' for Inactive)
REMARK    1  A    between atoms: C_1  and  C_2
REMARK    2  A    between atoms: C_2  and  C_3
REMARK    3  A    between atoms: C_3  and  C_4
REMARK    4  A    between atoms: C_4  and  C_5
REMARK    5  A    between atoms: C_5  and  C_6
REMARK    6  A    between atoms: C_6  and  C_7
REMARK    7  A    between atoms: C_7  and  C_8
REMARK    8  A    between atoms: C_8  and  O_9
REMARK    9  A    between atoms: C_8  and  C_10
REMARK   10  A    between atoms: C_10  and  C_11
REMARK   11  A    between atoms: C_12  and  C_13
REMARK   12  A    between atoms: C_13  and  C_14
REMARK   13  A    between atoms: C_14  and  C_15
REMARK                            x       y       z     vdW  Elec       q    Type
REMARK                         _______ _______ _______ _____ _____    ______ ____
ROOT
ATOM      1  C   UNL     1       7.418   6.666  17.722  0.00  0.00    +0.000 C 
ENDROOT
BRANCH   1   2
ATOM      2  C   UNL     1       8.148   7.784  18.409  0.00  0.00    +0.000 C 
ATOM      3  C   UNL     1       8.245   9.031  17.924  0.00  0.00    +0.000 C 
BRANCH   3   4
ATOM      4  C   UNL     1       9.003  10.119  18.629  0.00  0.00    +0.000 C 
BRANCH   4   5
ATOM      5  C   UNL     1       8.693  11.479  18.013  0.00  0.00    +0.000 C 
BRANCH   5   6
ATOM      6  C   UNL     1       9.947  12.318  17.841  0.00  0.00    +0.000 C 
ATOM      7  O   UNL     1      11.016  11.830  17.470  0.00  0.00    +0.000 OA
ATOM      8  N   UNL     1       9.809  13.662  18.090  0.00  0.00    +0.000 N 
ATOM      9  C   UNL     1       8.644  14.370  18.592  0.00  0.00    +0.000 C 
ATOM     10  C   UNL     1       8.726  15.699  17.866  0.00  0.00    +0.000 C 
ATOM     11  C   UNL     1      10.226  15.972  17.793  0.00  0.00    +0.000 C 
ATOM     12  C   UNL     1      10.875  14.590  17.767  0.00  0.00    +0.000 C 
ENDBRANCH   5   6
ENDBRANCH   4   5
ENDBRANCH   3   4
ENDBRANCH   1   2
BRANCH   1  13
ATOM     13  C   UNL     1       7.291   5.414  18.609  0.00  0.00    +0.000 C 
BRANCH  13  14
ATOM     14  O   UNL     1       8.244   5.458  19.676  0.00  0.00    +0.000 OA
ATOM     15  H   UNL     1       9.073   5.068  19.354  0.00  0.00    +0.000 HD
ENDBRANCH  13  14
BRANCH  13  16
ATOM     16  C   UNL     1       5.900   5.279  19.241  0.00  0.00    +0.000 C 
BRANCH  16  17
ATOM     17  C   UNL     1       4.788   5.829  18.352  0.00  0.00    +0.000 C 
BRANCH  17  18
ATOM     18  C   UNL     1       3.813   4.739  17.915  0.00  0.00    +0.000 C 
BRANCH  18  19
ATOM     19  C   UNL     1       4.517   3.747  16.989  0.00  0.00    +0.000 C 
BRANCH  19  20
ATOM     20  C   UNL     1       4.921   4.399  15.671  0.00  0.00    +0.000 C 
BRANCH  20  22
ATOM     21  C   UNL     1       6.992   4.863  14.323  0.00  0.00    +0.000 C 
ATOM     22  C   UNL     1       6.257   3.845  15.177  0.00  0.00    +0.000 C 
ENDBRANCH  20  22
ENDBRANCH  19  20
ENDBRANCH  18  19
ENDBRANCH  17  18
ENDBRANCH  16  17
ENDBRANCH  13  16
ENDBRANCH   1  13
TORSDOF 12
ENDMDL
MODEL 5
REMARK VINA RESULT:      -5.8      6.137      7.410
REMARK  Name = 
REMARK  13 active torsions:
REMARK  status: ('A' for Active; 'I' for Inactive)
REMARK    1  A    between atoms: C_1  and  C_2
REMARK    2  A    between atoms: C_2  and  C_3
REMARK    3  A    between atoms: C_3  and  C_4
REMARK    4  A    between atoms: C_4  and  C_5
REMARK    5  A    between atoms: C_5  and  C_6
REMARK    6  A    between atoms: C_6  and  C_7
REMARK    7  A    between atoms: C_7  and  C_8
REMARK    8  A    between atoms: C_8  and  O_9
REMARK    9  A    between atoms: C_8  and  C_10
REMARK   10  A    between atoms: C_10  and  C_11
REMARK   11  A    between atoms: C_12  and  C_13
REMARK   12  A    between atoms: C_13  and  C_14
REMARK   13  A    between atoms: C_14  and  C_15
REMARK                            x       y       z     vdW  Elec       q    Type
REMARK                         _______ _______ _______ _____ _____    ______ ____
ROOT
ATOM      1  C   UNL     1       7.332   6.317  17.628  0.00  0.00    +0.000 C 
ENDROOT
BRANCH   1   2
ATOM      2  C   UNL     1       7.947   7.607  18.089  0.00  0.00    +0.000 C 
ATOM      3  C   UNL     1       7.679   8.805  17.550  0.00  0.00    +0.000 C 
BRANCH   3   4
ATOM      4  C   UNL     1       8.331  10.073  18.024  0.00  0.00    +0.000 C 
BRANCH   4   5
ATOM      5  C   UNL     1       9.325   9.782  19.143  0.00  0.00    +0.000 C 
BRANCH   5   6
ATOM      6  C   UNL     1       9.543  10.995  20.031  0.00  0.00    +0.000 C 
ATOM      7  O   UNL     1       9.033  11.090  21.148  0.00  0.00    +0.000 OA
ATOM      8  N   UNL     1      10.375  11.965  19.527  0.00  0.00    +0.000 N 
ATOM      9  C   UNL     1      10.994  12.028  18.215  0.00  0.00    +0.000 C 
ATOM     10  C   UNL     1      12.332  12.678  18.509  0.00  0.00    +0.000 C 
ATOM     11  C   UNL     1      12.005  13.679  19.616  0.00  0.00    +0.000 C 
ATOM     12  C   UNL     1      10.819  13.068  20.357  0.00  0.00    +0.000 C 
ENDBRANCH   5   6
ENDBRANCH   4   5
ENDBRANCH   3   4
ENDBRANCH   1   2
BRANCH   1  13
ATOM     13  C   UNL     1       7.208   5.285  18.763  0.00  0.00    +0.000 C 
BRANCH  13  14
ATOM     14  O   UNL     1       8.125   5.589  19.818  0.00  0.00    +0.000 OA
ATOM     15  H   UNL     1       8.396   6.517  19.722  0.00  0.00    +0.000 HD
ENDBRANCH  13  14
BRANCH  13  16
ATOM     16  C   UNL     1       5.801   5.248  19.374  0.00  0.00    +0.000 C 
BRANCH  16  17
ATOM     17  C   UNL     1       4.697   5.191  18.322  0.00  0.00    +0.000 C 
BRANCH  17  18
ATOM     18  C   UNL     1       4.372   3.757  17.911  0.00  0.00    +0.000 C 
BRANCH  18  19
ATOM     19  C   UNL     1       3.004   3.704  17.232  0.00  0.00    +0.000 C 
BRANCH  19  20
ATOM     20  C   UNL     1       1.918   4.319  18.109  0.00  0.00    +0.000 C 
BRANCH  20  22
ATOM     21  C   UNL     1       1.105   4.072  20.474  0.00  0.00    +0.000 C 
ATOM     22  C   UNL     1       1.478   3.340  19.197  0.00  0.00    +0.000 C 
ENDBRANCH  20  22
ENDBRANCH  19  20
ENDBRANCH  18  19
ENDBRANCH  17  18
ENDBRANCH  16  17
ENDBRANCH  13  16
ENDBRANCH   1  13
TORSDOF 12
ENDMDL
MODEL 6
REMARK VINA RESULT:      -5.8      4.272      7.008
REMARK  Name = 
REMARK  13 active torsions:
REMARK  status: ('A' for Active; 'I' for Inactive)
REMARK    1  A    between atoms: C_1  and  C_2
REMARK    2  A    between atoms: C_2  and  C_3
REMARK    3  A    between atoms: C_3  and  C_4
REMARK    4  A    between atoms: C_4  and  C_5
REMARK    5  A    between atoms: C_5  and  C_6
REMARK    6  A    between atoms: C_6  and  C_7
REMARK    7  A    between atoms: C_7  and  C_8
REMARK    8  A    between atoms: C_8  and  O_9
REMARK    9  A    between atoms: C_8  and  C_10
REMARK   10  A    between atoms: C_10  and  C_11
REMARK   11  A    between atoms: C_12  and  C_13
REMARK   12  A    between atoms: C_13  and  C_14
REMARK   13  A    between atoms: C_14  and  C_15
REMARK                            x       y       z     vdW  Elec       q    Type
REMARK                         _______ _______ _______ _____ _____    ______ ____
ROOT
ATOM      1  C   UNL     1       7.355   4.709  16.418  0.00  0.00    +0.000 C 
ENDROOT
BRANCH   1   2
ATOM      2  C   UNL     1       6.165   4.683  17.334  0.00  0.00    +0.000 C 
ATOM      3  C   UNL     1       5.457   5.767  17.680  0.00  0.00    +0.000 C 
BRANCH   3   4
ATOM      4  C   UNL     1       4.285   5.706  18.617  0.00  0.00    +0.000 C 
BRANCH   4   5
ATOM      5  C   UNL     1       2.974   5.653  17.840  0.00  0.00    +0.000 C 
BRANCH   5   6
ATOM      6  C   UNL     1       2.280   4.311  17.998  0.00  0.00    +0.000 C 
ATOM      7  O   UNL     1       2.163   3.520  17.061  0.00  0.00    +0.000 OA
ATOM      8  N   UNL     1       1.824   4.017  19.260  0.00  0.00    +0.000 N 
ATOM      9  C   UNL     1       1.829   4.863  20.440  0.00  0.00    +0.000 C 
ATOM     10  C   UNL     1       2.071   3.870  21.560  0.00  0.00    +0.000 C 
ATOM     11  C   UNL     1       1.306   2.629  21.105  0.00  0.00    +0.000 C 
ATOM     12  C   UNL     1       1.329   2.692  19.580  0.00  0.00    +0.000 C 
ENDBRANCH   5   6
ENDBRANCH   4   5
ENDBRANCH   3   4
ENDBRANCH   1   2
BRANCH   1  13
ATOM     13  C   UNL     1       6.973   5.047  14.966  0.00  0.00    +0.000 C 
BRANCH  13  14
ATOM     14  O   UNL     1       8.097   5.590  14.266  0.00  0.00    +0.000 OA
ATOM     15  H   UNL     1       7.882   6.505  14.019  0.00  0.00    +0.000 HD
ENDBRANCH  13  14
BRANCH  13  16
ATOM     16  C   UNL     1       6.494   3.819  14.182  0.00  0.00    +0.000 C 
BRANCH  16  17
ATOM     17  C   UNL     1       5.133   4.028  13.524  0.00  0.00    +0.000 C 
BRANCH  17  18
ATOM     18  C   UNL     1       5.072   3.415  12.127  0.00  0.00    +0.000 C 
BRANCH  18  19
ATOM     19  C   UNL     1       3.872   3.972  11.361  0.00  0.00    +0.000 C 
BRANCH  19  20
ATOM     20  C   UNL     1       3.307   2.948  10.382  0.00  0.00    +0.000 C 
BRANCH  20  22
ATOM     21  C   UNL     1       2.349   4.954   9.208  0.00  0.00    +0.000 C 
ATOM     22  C   UNL     1       3.007   3.596   9.031  0.00  0.00    +0.000 C 
ENDBRANCH  20  22
ENDBRANCH  19  20
ENDBRANCH  18  19
ENDBRANCH  17  18
ENDBRANCH  16  17
ENDBRANCH  13  16
ENDBRANCH   1  13
TORSDOF 12
ENDMDL
MODEL 7
REMARK VINA RESULT:      -5.8      5.691      6.645
REMARK  Name = 
REMARK  13 active torsions:
REMARK  status: ('A' for Active; 'I' for Inactive)
REMARK    1  A    between atoms: C_1  and  C_2
REMARK    2  A    between atoms: C_2  and  C_3
REMARK    3  A    between atoms: C_3  and  C_4
REMARK    4  A    between atoms: C_4  and  C_5
REMARK    5  A    between atoms: C_5  and  C_6
REMARK    6  A    between atoms: C_6  and  C_7
REMARK    7  A    between atoms: C_7  and  C_8
REMARK    8  A    between atoms: C_8  and  O_9
REMARK    9  A    between atoms: C_8  and  C_10
REMARK   10  A    between atoms: C_10  and  C_11
REMARK   11  A    between atoms: C_12  and  C_13
REMARK   12  A    between atoms: C_13  and  C_14
REMARK   13  A    between atoms: C_14  and  C_15
REMARK                            x       y       z     vdW  Elec       q    Type
REMARK                         _______ _______ _______ _____ _____    ______ ____
ROOT
ATOM      1  C   UNL     1       7.547   5.837  18.136  0.00  0.00    +0.000 C 
ENDROOT
BRANCH   1   2
ATOM      2  C   UNL     1       8.052   7.238  18.334  0.00  0.00    +0.000 C 
ATOM      3  C   UNL     1       7.616   8.301  17.644  0.00  0.00    +0.000 C 
BRANCH   3   4
ATOM      4  C   UNL     1       8.162   9.685  17.854  0.00  0.00    +0.000 C 
BRANCH   4   5
ATOM      5  C   UNL     1       9.136   9.708  19.027  0.00  0.00    +0.000 C 
BRANCH   5   6
ATOM      6  C   UNL     1       9.972  10.976  19.039  0.00  0.00    +0.000 C 
ATOM      7  O   UNL     1      10.641  11.329  18.066  0.00  0.00    +0.000 OA
ATOM      8  N   UNL     1       9.908  11.726  20.188  0.00  0.00    +0.000 N 
ATOM      9  C   UNL     1       9.224  11.414  21.431  0.00  0.00    +0.000 C 
ATOM     10  C   UNL     1       8.757  12.777  21.904  0.00  0.00    +0.000 C 
ATOM     11  C   UNL     1       9.891  13.708  21.481  0.00  0.00    +0.000 C 
ATOM     12  C   UNL     1      10.498  13.050  20.245  0.00  0.00    +0.000 C 
ENDBRANCH   5   6
ENDBRANCH   4   5
ENDBRANCH   3   4
ENDBRANCH   1   2
BRANCH   1  13
ATOM     13  C   UNL     1       6.716   5.688  16.849  0.00  0.00    +0.000 C 
BRANCH  13  14
ATOM     14  O   UNL     1       7.565   5.727  15.698  0.00  0.00    +0.000 OA
ATOM     15  H   UNL     1       7.738   6.659  15.484  0.00  0.00    +0.000 HD
ENDBRANCH  13  14
BRANCH  13  16
ATOM     16  C   UNL     1       5.936   4.368  16.800  0.00  0.00    +0.000 C 
BRANCH  16  17
ATOM     17  C   UNL     1       4.426   4.572  16.719  0.00  0.00    +0.000 C 
BRANCH  17  18
ATOM     18  C   UNL     1       3.948   5.681  17.653  0.00  0.00    +0.000 C 
BRANCH  18  19
ATOM     19  C   UNL     1       2.668   5.248  18.368  0.00  0.00    +0.000 C 
BRANCH  19  20
ATOM     20  C   UNL     1       2.539   5.907  19.737  0.00  0.00    +0.000 C 
BRANCH  20  22
ATOM     21  C   UNL     1       0.962   4.016  20.242  0.00  0.00    +0.000 C 
ATOM     22  C   UNL     1       2.074   4.897  20.785  0.00  0.00    +0.000 C 
ENDBRANCH  20  22
ENDBRANCH  19  20
ENDBRANCH  18  19
ENDBRANCH  17  18
ENDBRANCH  16  17
ENDBRANCH  13  16
ENDBRANCH   1  13
TORSDOF 12
ENDMDL
MODEL 8
REMARK VINA RESULT:      -5.8      4.232      7.515
REMARK  Name = 
REMARK  13 active torsions:
REMARK  status: ('A' for Active; 'I' for Inactive)
REMARK    1  A    between atoms: C_1  and  C_2
REMARK    2  A    between atoms: C_2  and  C_3
REMARK    3  A    between atoms: C_3  and  C_4
REMARK    4  A    between atoms: C_4  and  C_5
REMARK    5  A    between atoms: C_5  and  C_6
REMARK    6  A    between atoms: C_6  and  C_7
REMARK    7  A    between atoms: C_7  and  C_8
REMARK    8  A    between atoms: C_8  and  O_9
REMARK    9  A    between atoms: C_8  and  C_10
REMARK   10  A    between atoms: C_10  and  C_11
REMARK   11  A    between atoms: C_12  and  C_13
REMARK   12  A    between atoms: C_13  and  C_14
REMARK   13  A    between atoms: C_14  and  C_15
REMARK                            x       y       z     vdW  Elec       q    Type
REMARK                         _______ _______ _______ _____ _____    ______ ____
ROOT
ATOM      1  C   UNL     1       6.131   6.036  17.193  0.00  0.00    +0.000 C 
ENDROOT
BRANCH   1   2
ATOM      2  C   UNL     1       4.713   6.335  17.589  0.00  0.00    +0.000 C 
ATOM      3  C   UNL     1       3.714   5.443  17.542  0.00  0.00    +0.000 C 
BRANCH   3   4
ATOM      4  C   UNL     1       2.302   5.785  17.925  0.00  0.00    +0.000 C 
BRANCH   4   5
ATOM      5  C   UNL     1       1.347   4.668  17.520  0.00  0.00    +0.000 C 
BRANCH   5   6
ATOM      6  C   UNL     1       1.777   3.327  18.089  0.00  0.00    +0.000 C 
ATOM      7  O   UNL     1       2.201   2.417  17.374  0.00  0.00    +0.000 OA
ATOM      8  N   UNL     1       1.700   3.202  19.455  0.00  0.00    +0.000 N 
ATOM      9  C   UNL     1       1.167   4.149  20.418  0.00  0.00    +0.000 C 
ATOM     10  C   UNL     1       2.071   3.948  21.618  0.00  0.00    +0.000 C 
ATOM     11  C   UNL     1       2.356   2.447  21.600  0.00  0.00    +0.000 C 
ATOM     12  C   UNL     1       2.269   2.050  20.129  0.00  0.00    +0.000 C 
ENDBRANCH   5   6
ENDBRANCH   4   5
ENDBRANCH   3   4
ENDBRANCH   1   2
BRANCH   1  13
ATOM     13  C   UNL     1       7.045   5.804  18.409  0.00  0.00    +0.000 C 
BRANCH  13  14
ATOM     14  O   UNL     1       7.796   4.597  18.248  0.00  0.00    +0.000 OA
ATOM     15  H   UNL     1       7.189   3.848  18.370  0.00  0.00    +0.000 HD
ENDBRANCH  13  14
BRANCH  13  16
ATOM     16  C   UNL     1       8.049   6.945  18.618  0.00  0.00    +0.000 C 
BRANCH  16  17
ATOM     17  C   UNL     1       8.056   7.948  17.467  0.00  0.00    +0.000 C 
BRANCH  17  18
ATOM     18  C   UNL     1       7.853   9.380  17.956  0.00  0.00    +0.000 C 
BRANCH  18  19
ATOM     19  C   UNL     1       9.022   9.801  18.846  0.00  0.00    +0.000 C 
BRANCH  19  20
ATOM     20  C   UNL     1       9.837  10.922  18.209  0.00  0.00    +0.000 C 
BRANCH  20  22
ATOM     21  C   UNL     1       9.753  13.395  17.765  0.00  0.00    +0.000 C 
ATOM     22  C   UNL     1       8.945  12.113  17.859  0.00  0.00    +0.000 C 
ENDBRANCH  20  22
ENDBRANCH  19  20
ENDBRANCH  18  19
ENDBRANCH  17  18
ENDBRANCH  16  17
ENDBRANCH  13  16
ENDBRANCH   1  13
TORSDOF 12
ENDMDL
MODEL 9
REMARK VINA RESULT:      -5.7      1.276      1.549
REMARK  Name = 
REMARK  13 active torsions:
REMARK  status: ('A' for Active; 'I' for Inactive)
REMARK    1  A    between atoms: C_1  and  C_2
REMARK    2  A    between atoms: C_2  and  C_3
REMARK    3  A    between atoms: C_3  and  C_4
REMARK    4  A    between atoms: C_4  and  C_5
REMARK    5  A    between atoms: C_5  and  C_6
REMARK    6  A    between atoms: C_6  and  C_7
REMARK    7  A    between atoms: C_7  and  C_8
REMARK    8  A    between atoms: C_8  and  O_9
REMARK    9  A    between atoms: C_8  and  C_10
REMARK   10  A    between atoms: C_10  and  C_11
REMARK   11  A    between atoms: C_12  and  C_13
REMARK   12  A    between atoms: C_13  and  C_14
REMARK   13  A    between atoms: C_14  and  C_15
REMARK                            x       y       z     vdW  Elec       q    Type
REMARK                         _______ _______ _______ _____ _____    ______ ____
ROOT
ATOM      1  C   UNL     1       3.734   6.426  17.522  0.00  0.00    +0.000 C 
ENDROOT
BRANCH   1   2
ATOM      2  C   UNL     1       3.282   7.812  17.886  0.00  0.00    +0.000 C 
ATOM      3  C   UNL     1       2.017   8.244  17.780  0.00  0.00    +0.000 C 
BRANCH   3   4
ATOM      4  C   UNL     1       1.606   9.645  18.133  0.00  0.00    +0.000 C 
BRANCH   4   5
ATOM      5  C   UNL     1       0.769   9.657  19.408  0.00  0.00    +0.000 C 
BRANCH   5   6
ATOM      6  C   UNL     1       0.347  11.064  19.790  0.00  0.00    +0.000 C 
ATOM      7  O   UNL     1       0.276  11.975  18.963  0.00  0.00    +0.000 OA
ATOM      8  N   UNL     1       0.012  11.253  21.109  0.00  0.00    +0.000 N 
ATOM      9  C   UNL     1       0.106  10.306  22.206  0.00  0.00    +0.000 C 
ATOM     10  C   UNL     1      -1.095  10.667  23.060  0.00  0.00    +0.000 C 
ATOM     11  C   UNL     1      -1.180  12.186  22.928  0.00  0.00    +0.000 C 
ATOM     12  C   UNL     1      -0.596  12.493  21.552  0.00  0.00    +0.000 C 
ENDBRANCH   5   6
ENDBRANCH   4   5
ENDBRANCH   3   4
ENDBRANCH   1   2
BRANCH   1  13
ATOM     13  C   UNL     1       4.339   5.671  18.719  0.00  0.00    +0.000 C 
BRANCH  13  14
ATOM     14  O   UNL     1       3.565   5.902  19.900  0.00  0.00    +0.000 OA
ATOM     15  H   UNL     1       4.121   5.693  20.669  0.00  0.00    +0.000 HD
ENDBRANCH  13  14
BRANCH  13  16
ATOM     16  C   UNL     1       4.392   4.155  18.493  0.00  0.00    +0.000 C 
BRANCH  16  17
ATOM     17  C   UNL     1       3.594   3.708  17.272  0.00  0.00    +0.000 C 
BRANCH  17  18
ATOM     18  C   UNL     1       2.097   3.638  17.561  0.00  0.00    +0.000 C 
BRANCH  18  19
ATOM     19  C   UNL     1       1.780   2.392  18.388  0.00  0.00    +0.000 C 
BRANCH  19  20
ATOM     20  C   UNL     1       0.638   2.642  19.366  0.00  0.00    +0.000 C 
BRANCH  20  22
ATOM     21  C   UNL     1       1.932   2.882  21.508  0.00  0.00    +0.000 C 
ATOM     22  C   UNL     1       1.073   3.595  20.479  0.00  0.00    +0.000 C 
ENDBRANCH  20  22
ENDBRANCH  19  20
ENDBRANCH  18  19
ENDBRANCH  17  18
ENDBRANCH  16  17
ENDBRANCH  13  16
ENDBRANCH   1  13
TORSDOF 12
ENDMDL
