MODEL 1
REMARK VINA RESULT:      -8.1      0.000      0.000
REMARK  Name = 
REMARK  6 active torsions:
REMARK  status: ('A' for Active; 'I' for Inactive)
REMARK    1  A    between atoms: C_2  and  C_3
REMARK    2  A    between atoms: C_3  and  N_4
REMARK    3  A    between atoms: C_3  and  C_11
REMARK    4  A    between atoms: N_4  and  C_5
REMARK    5  A    between atoms: C_14  and  C_15
REMARK    6  A    between atoms: C_25  and  C_26
REMARK                            x       y       z     vdW  Elec       q    Type
REMARK                         _______ _______ _______ _____ _____    ______ ____
ROOT
ATOM      1  C   UNL     1       6.185   6.479  17.193  0.00  0.00    +0.000 C 
ENDROOT
BRANCH   1   3
ATOM      2  O   UNL     1       5.657   5.044  19.116  0.00  0.00    +0.000 OA
ATOM      3  C   UNL     1       5.267   5.932  18.353  0.00  0.00    +0.000 C 
ATOM      4  N   UNL     1       3.973   6.425  18.503  0.00  0.00    +0.000 N 
ATOM      5  C   UNL     1       3.367   7.537  17.798  0.00  0.00    +0.000 C 
ATOM      6  C   UNL     1       2.269   8.053  18.717  0.00  0.00    +0.000 C 
ATOM      7  C   UNL     1       1.920   6.903  19.652  0.00  0.00    +0.000 C 
ATOM      8  C   UNL     1       3.087   5.899  19.556  0.00  0.00    +0.000 C 
BRANCH   8   9
ATOM      9  C   UNL     1       2.575   4.493  19.255  0.00  0.00    +0.000 A 
ATOM     10  C   UNL     1       2.377   4.097  17.914  0.00  0.00    +0.000 A 
ATOM     11  C   UNL     1       1.909   2.822  17.588  0.00  0.00    +0.000 A 
ATOM     12  C   UNL     1       1.660   1.896  18.593  0.00  0.00    +0.000 A 
ATOM     13  C   UNL     1       1.835   2.264  19.926  0.00  0.00    +0.000 A 
ATOM     14  C   UNL     1       2.265   3.557  20.259  0.00  0.00    +0.000 A 
ATOM     15 CL   UNL     1       2.318   3.942  21.944  0.00  0.00    +0.000 Cl
ENDBRANCH   8   9
ENDBRANCH   1   3
BRANCH   1  16
ATOM     16  C   UNL     1       6.232   5.565  15.952  0.00  0.00    +0.000 A 
ATOM     17  C   UNL     1       7.367   5.523  15.125  0.00  0.00    +0.000 A 
ATOM     18  C   UNL     1       7.363   4.789  13.933  0.00  0.00    +0.000 A 
ATOM     19  C   UNL     1       6.232   4.066  13.538  0.00  0.00    +0.000 A 
ATOM     20  C   UNL     1       5.129   4.031  14.397  0.00  0.00    +0.000 A 
ATOM     21  C   UNL     1       5.145   4.739  15.602  0.00  0.00    +0.000 A 
BRANCH  19  22
ATOM     22  C   UNL     1       6.176   3.363  12.205  0.00  0.00    +0.000 C 
ATOM     23  F   UNL     1       7.266   3.595  11.420  0.00  0.00    +0.000 F 
ATOM     24  F   UNL     1       6.093   2.009  12.331  0.00  0.00    +0.000 F 
ATOM     25  F   UNL     1       5.097   3.734  11.460  0.00  0.00    +0.000 F 
ENDBRANCH  19  22
ENDBRANCH   1  16
BRANCH   1  26
ATOM     26  N   UNL     1       7.534   6.844  17.725  0.00  0.00    +0.000 N 
ATOM     27  H   UNL     1       7.963   6.112  18.280  0.00  0.00    +0.000 HD
BRANCH  26  28
ATOM     28  C   UNL     1       7.964   8.130  18.050  0.00  0.00    +0.000 A 
ATOM     29  C   UNL     1       8.877   8.416  19.073  0.00  0.00    +0.000 A 
ATOM     30  C   UNL     1       9.359   9.712  19.288  0.00  0.00    +0.000 A 
ATOM     31  C   UNL     1       8.920  10.764  18.496  0.00  0.00    +0.000 A 
ATOM     32  C   UNL     1       7.974  10.522  17.507  0.00  0.00    +0.000 A 
ATOM     33  C   UNL     1       7.491   9.222  17.298  0.00  0.00    +0.000 A 
ENDBRANCH  26  28
ENDBRANCH   1  26
TORSDOF 6
ENDMDL
MODEL 2
REMARK VINA RESULT:      -8.0      0.203      1.040
REMARK  Name = 
REMARK  6 active torsions:
REMARK  status: ('A' for Active; 'I' for Inactive)
REMARK    1  A    between atoms: C_2  and  C_3
REMARK    2  A    between atoms: C_3  and  N_4
REMARK    3  A    between atoms: C_3  and  C_11
REMARK    4  A    between atoms: N_4  and  C_5
REMARK    5  A    between atoms: C_14  and  C_15
REMARK    6  A    between atoms: C_25  and  C_26
REMARK                            x       y       z     vdW  Elec       q    Type
REMARK                         _______ _______ _______ _____ _____    ______ ____
ROOT
ATOM      1  C   UNL     1       6.212   6.535  17.274  0.00  0.00    +0.000 C 
ENDROOT
BRANCH   1   3
ATOM      2  O   UNL     1       5.690   5.054  19.164  0.00  0.00    +0.000 OA
ATOM      3  C   UNL     1       5.291   5.947  18.411  0.00  0.00    +0.000 C 
ATOM      4  N   UNL     1       3.984   6.407  18.551  0.00  0.00    +0.000 N 
ATOM      5  C   UNL     1       3.361   7.517  17.856  0.00  0.00    +0.000 C 
ATOM      6  C   UNL     1       2.239   7.992  18.768  0.00  0.00    +0.000 C 
ATOM      7  C   UNL     1       1.904   6.817  19.677  0.00  0.00    +0.000 C 
ATOM      8  C   UNL     1       3.095   5.842  19.580  0.00  0.00    +0.000 C 
BRANCH   8   9
ATOM      9  C   UNL     1       2.620   4.431  19.248  0.00  0.00    +0.000 A 
ATOM     10  C   UNL     1       2.480   4.044  17.897  0.00  0.00    +0.000 A 
ATOM     11  C   UNL     1       2.047   2.765  17.542  0.00  0.00    +0.000 A 
ATOM     12  C   UNL     1       1.778   1.824  18.528  0.00  0.00    +0.000 A 
ATOM     13  C   UNL     1       1.897   2.182  19.869  0.00  0.00    +0.000 A 
ATOM     14  C   UNL     1       2.290   3.479  20.231  0.00  0.00    +0.000 A 
ATOM     15 CL   UNL     1       2.273   3.848  21.920  0.00  0.00    +0.000 Cl
ENDBRANCH   8   9
ENDBRANCH   1   3
BRANCH   1  16
ATOM     16  C   UNL     1       6.287   5.651  16.012  0.00  0.00    +0.000 A 
ATOM     17  C   UNL     1       7.458   5.590  15.240  0.00  0.00    +0.000 A 
ATOM     18  C   UNL     1       7.487   4.886  14.030  0.00  0.00    +0.000 A 
ATOM     19  C   UNL     1       6.352   4.214  13.562  0.00  0.00    +0.000 A 
ATOM     20  C   UNL     1       5.209   4.196  14.367  0.00  0.00    +0.000 A 
ATOM     21  C   UNL     1       5.191   4.873  15.590  0.00  0.00    +0.000 A 
BRANCH  19  22
ATOM     22  C   UNL     1       6.337   3.546  12.211  0.00  0.00    +0.000 C 
ATOM     23  F   UNL     1       6.714   2.236  12.244  0.00  0.00    +0.000 F 
ATOM     24  F   UNL     1       5.103   3.561  11.634  0.00  0.00    +0.000 F 
ATOM     25  F   UNL     1       7.172   4.149  11.317  0.00  0.00    +0.000 F 
ENDBRANCH  19  22
ENDBRANCH   1  16
BRANCH   1  26
ATOM     26  N   UNL     1       7.549   6.910  17.829  0.00  0.00    +0.000 N 
ATOM     27  H   UNL     1       7.920   6.232  18.485  0.00  0.00    +0.000 HD
BRANCH  26  28
ATOM     28  C   UNL     1       8.017   8.209  18.027  0.00  0.00    +0.000 A 
ATOM     29  C   UNL     1       7.614   9.311  17.264  0.00  0.00    +0.000 A 
ATOM     30  C   UNL     1       8.029  10.611  17.572  0.00  0.00    +0.000 A 
ATOM     31  C   UNL     1       8.881  10.839  18.644  0.00  0.00    +0.000 A 
ATOM     32  C   UNL     1       9.341   9.761  19.389  0.00  0.00    +0.000 A 
ATOM     33  C   UNL     1       8.924   8.459  19.073  0.00  0.00    +0.000 A 
ENDBRANCH  26  28
ENDBRANCH   1  26
TORSDOF 6
ENDMDL
MODEL 3
REMARK VINA RESULT:      -7.9      4.470      8.239
REMARK  Name = 
REMARK  6 active torsions:
REMARK  status: ('A' for Active; 'I' for Inactive)
REMARK    1  A    between atoms: C_2  and  C_3
REMARK    2  A    between atoms: C_3  and  N_4
REMARK    3  A    between atoms: C_3  and  C_11
REMARK    4  A    between atoms: N_4  and  C_5
REMARK    5  A    between atoms: C_14  and  C_15
REMARK    6  A    between atoms: C_25  and  C_26
REMARK                            x       y       z     vdW  Elec       q    Type
REMARK                         _______ _______ _______ _____ _____    ______ ____
ROOT
ATOM      1  C   UNL     1       2.755   6.037  17.906  0.00  0.00    +0.000 C 
ENDROOT
BRANCH   1   3
ATOM      2  O   UNL     1       4.698   5.821  19.395  0.00  0.00    +0.000 OA
ATOM      3  C   UNL     1       4.273   5.764  18.237  0.00  0.00    +0.000 C 
ATOM      4  N   UNL     1       5.169   5.494  17.206  0.00  0.00    +0.000 N 
ATOM      5  C   UNL     1       4.862   5.269  15.807  0.00  0.00    +0.000 C 
ATOM      6  C   UNL     1       6.009   4.427  15.267  0.00  0.00    +0.000 C 
ATOM      7  C   UNL     1       7.186   4.659  16.206  0.00  0.00    +0.000 C 
ATOM      8  C   UNL     1       6.598   5.276  17.491  0.00  0.00    +0.000 C 
BRANCH   8   9
ATOM      9  C   UNL     1       7.333   6.560  17.867  0.00  0.00    +0.000 A 
ATOM     10  C   UNL     1       7.210   7.698  17.040  0.00  0.00    +0.000 A 
ATOM     11  C   UNL     1       7.864   8.895  17.340  0.00  0.00    +0.000 A 
ATOM     12  C   UNL     1       8.629   8.998  18.495  0.00  0.00    +0.000 A 
ATOM     13  C   UNL     1       8.777   7.887  19.323  0.00  0.00    +0.000 A 
ATOM     14  C   UNL     1       8.157   6.670  19.002  0.00  0.00    +0.000 A 
ATOM     15 CL   UNL     1       8.519   5.326  20.028  0.00  0.00    +0.000 Cl
ENDBRANCH   8   9
ENDBRANCH   1   3
BRANCH   1  16
ATOM     16  C   UNL     1       2.188   7.304  18.577  0.00  0.00    +0.000 A 
ATOM     17  C   UNL     1       1.979   7.358  19.965  0.00  0.00    +0.000 A 
ATOM     18  C   UNL     1       1.351   8.459  20.557  0.00  0.00    +0.000 A 
ATOM     19  C   UNL     1       0.923   9.544  19.783  0.00  0.00    +0.000 A 
ATOM     20  C   UNL     1       1.205   9.539  18.413  0.00  0.00    +0.000 A 
ATOM     21  C   UNL     1       1.861   8.452  17.828  0.00  0.00    +0.000 A 
BRANCH  19  22
ATOM     22  C   UNL     1       0.148  10.685  20.392  0.00  0.00    +0.000 C 
ATOM     23  F   UNL     1       0.935  11.711  20.824  0.00  0.00    +0.000 F 
ATOM     24  F   UNL     1      -0.738  11.241  19.519  0.00  0.00    +0.000 F 
ATOM     25  F   UNL     1      -0.588  10.302  21.474  0.00  0.00    +0.000 F 
ENDBRANCH  19  22
ENDBRANCH   1  16
BRANCH   1  26
ATOM     26  N   UNL     1       1.940   4.807  18.151  0.00  0.00    +0.000 N 
ATOM     27  H   UNL     1       0.994   4.871  17.792  0.00  0.00    +0.000 HD
BRANCH  26  28
ATOM     28  C   UNL     1       2.084   3.932  19.227  0.00  0.00    +0.000 A 
ATOM     29  C   UNL     1       3.114   2.990  19.337  0.00  0.00    +0.000 A 
ATOM     30  C   UNL     1       3.278   2.210  20.487  0.00  0.00    +0.000 A 
ATOM     31  C   UNL     1       2.397   2.337  21.552  0.00  0.00    +0.000 A 
ATOM     32  C   UNL     1       1.333   3.226  21.452  0.00  0.00    +0.000 A 
ATOM     33  C   UNL     1       1.172   4.002  20.295  0.00  0.00    +0.000 A 
ENDBRANCH  26  28
ENDBRANCH   1  26
TORSDOF 6
ENDMDL
MODEL 4
REMARK VINA RESULT:      -7.8      3.480      5.616
REMARK  Name = 
REMARK  6 active torsions:
REMARK  status: ('A' for Active; 'I' for Inactive)
REMARK    1  A    between atoms: C_2  and  C_3
REMARK    2  A    between atoms: C_3  and  N_4
REMARK    3  A    between atoms: C_3  and  C_11
REMARK    4  A    between atoms: N_4  and  C_5
REMARK    5  A    between atoms: C_14  and  C_15
REMARK    6  A    between atoms: C_25  and  C_26
REMARK                            x       y       z     vdW  Elec       q    Type
REMARK                         _______ _______ _______ _____ _____    ______ ____
ROOT
ATOM      1  C   UNL     1       6.262   5.640  17.421  0.00  0.00    +0.000 C 
ENDROOT
BRANCH   1   3
ATOM      2  O   UNL     1       5.396   4.398  19.356  0.00  0.00    +0.000 OA
ATOM      3  C   UNL     1       5.206   5.309  18.545  0.00  0.00    +0.000 C 
ATOM      4  N   UNL     1       4.012   6.024  18.606  0.00  0.00    +0.000 N 
ATOM      5  C   UNL     1       3.646   7.194  17.833  0.00  0.00    +0.000 C 
ATOM      6  C   UNL     1       2.611   7.930  18.671  0.00  0.00    +0.000 C 
ATOM      7  C   UNL     1       2.020   6.897  19.621  0.00  0.00    +0.000 C 
ATOM      8  C   UNL     1       2.996   5.703  19.622  0.00  0.00    +0.000 C 
BRANCH   8   9
ATOM      9  C   UNL     1       2.261   4.396  19.338  0.00  0.00    +0.000 A 
ATOM     10  C   UNL     1       1.810   4.123  18.028  0.00  0.00    +0.000 A 
ATOM     11  C   UNL     1       1.131   2.943  17.719  0.00  0.00    +0.000 A 
ATOM     12  C   UNL     1       0.918   1.986  18.703  0.00  0.00    +0.000 A 
ATOM     13  C   UNL     1       1.343   2.233  20.006  0.00  0.00    +0.000 A 
ATOM     14  C   UNL     1       1.987   3.437  20.331  0.00  0.00    +0.000 A 
ATOM     15 CL   UNL     1       2.348   3.693  22.003  0.00  0.00    +0.000 Cl
ENDBRANCH   8   9
ENDBRANCH   1   3
BRANCH   1  16
ATOM     16  C   UNL     1       7.144   6.865  17.736  0.00  0.00    +0.000 A 
ATOM     17  C   UNL     1       8.113   6.819  18.751  0.00  0.00    +0.000 A 
ATOM     18  C   UNL     1       8.827   7.966  19.119  0.00  0.00    +0.000 A 
ATOM     19  C   UNL     1       8.602   9.189  18.477  0.00  0.00    +0.000 A 
ATOM     20  C   UNL     1       7.703   9.225  17.406  0.00  0.00    +0.000 A 
ATOM     21  C   UNL     1       7.014   8.071  17.019  0.00  0.00    +0.000 A 
BRANCH  19  22
ATOM     22  C   UNL     1       9.283  10.453  18.937  0.00  0.00    +0.000 C 
ATOM     23  F   UNL     1      10.569  10.570  18.500  0.00  0.00    +0.000 F 
ATOM     24  F   UNL     1       8.643  11.577  18.508  0.00  0.00    +0.000 F 
ATOM     25  F   UNL     1       9.341  10.554  20.295  0.00  0.00    +0.000 F 
ENDBRANCH  19  22
ENDBRANCH   1  16
BRANCH   1  26
ATOM     26  N   UNL     1       5.597   5.703  16.083  0.00  0.00    +0.000 N 
ATOM     27  H   UNL     1       4.591   5.819  16.136  0.00  0.00    +0.000 HD
BRANCH  26  28
ATOM     28  C   UNL     1       6.037   5.070  14.921  0.00  0.00    +0.000 A 
ATOM     29  C   UNL     1       5.301   4.098  14.233  0.00  0.00    +0.000 A 
ATOM     30  C   UNL     1       5.738   3.572  13.011  0.00  0.00    +0.000 A 
ATOM     31  C   UNL     1       6.939   3.992  12.457  0.00  0.00    +0.000 A 
ATOM     32  C   UNL     1       7.718   4.917  13.142  0.00  0.00    +0.000 A 
ATOM     33  C   UNL     1       7.277   5.437  14.368  0.00  0.00    +0.000 A 
ENDBRANCH  26  28
ENDBRANCH   1  26
TORSDOF 6
ENDMDL
MODEL 5
REMARK VINA RESULT:      -7.7      3.504      5.796
REMARK  Name = 
REMARK  6 active torsions:
REMARK  status: ('A' for Active; 'I' for Inactive)
REMARK    1  A    between atoms: C_2  and  C_3
REMARK    2  A    between atoms: C_3  and  N_4
REMARK    3  A    between atoms: C_3  and  C_11
REMARK    4  A    between atoms: N_4  and  C_5
REMARK    5  A    between atoms: C_14  and  C_15
REMARK    6  A    between atoms: C_25  and  C_26
REMARK                            x       y       z     vdW  Elec       q    Type
REMARK                         _______ _______ _______ _____ _____    ______ ____
ROOT
ATOM      1  C   UNL     1       6.671   6.194  17.337  0.00  0.00    +0.000 C 
ENDROOT
BRANCH   1   3
ATOM      2  O   UNL     1       5.978   4.738  19.190  0.00  0.00    +0.000 OA
ATOM      3  C   UNL     1       5.656   5.636  18.407  0.00  0.00    +0.000 C 
ATOM      4  N   UNL     1       4.355   6.130  18.451  0.00  0.00    +0.000 N 
ATOM      5  C   UNL     1       3.813   7.252  17.709  0.00  0.00    +0.000 C 
ATOM      6  C   UNL     1       2.641   7.761  18.536  0.00  0.00    +0.000 C 
ATOM      7  C   UNL     1       2.211   6.600  19.424  0.00  0.00    +0.000 C 
ATOM      8  C   UNL     1       3.380   5.594  19.416  0.00  0.00    +0.000 C 
BRANCH   8   9
ATOM      9  C   UNL     1       2.894   4.194  19.056  0.00  0.00    +0.000 A 
ATOM     10  C   UNL     1       2.932   3.769  17.710  0.00  0.00    +0.000 A 
ATOM     11  C   UNL     1       2.496   2.498  17.330  0.00  0.00    +0.000 A 
ATOM     12  C   UNL     1       2.045   1.602  18.291  0.00  0.00    +0.000 A 
ATOM     13  C   UNL     1       1.986   1.998  19.626  0.00  0.00    +0.000 A 
ATOM     14  C   UNL     1       2.382   3.290  20.006  0.00  0.00    +0.000 A 
ATOM     15 CL   UNL     1       2.140   3.715  21.664  0.00  0.00    +0.000 Cl
ENDBRANCH   8   9
ENDBRANCH   1   3
BRANCH   1  16
ATOM     16  C   UNL     1       7.376   7.498  17.765  0.00  0.00    +0.000 A 
ATOM     17  C   UNL     1       7.081   8.720  17.140  0.00  0.00    +0.000 A 
ATOM     18  C   UNL     1       7.806   9.878  17.443  0.00  0.00    +0.000 A 
ATOM     19  C   UNL     1       8.840   9.852  18.387  0.00  0.00    +0.000 A 
ATOM     20  C   UNL     1       9.083   8.660  19.077  0.00  0.00    +0.000 A 
ATOM     21  C   UNL     1       8.336   7.513  18.797  0.00  0.00    +0.000 A 
BRANCH  19  22
ATOM     22  C   UNL     1       9.701  11.063  18.641  0.00  0.00    +0.000 C 
ATOM     23  F   UNL     1      10.392  11.482  17.543  0.00  0.00    +0.000 F 
ATOM     24  F   UNL     1       8.978  12.141  19.056  0.00  0.00    +0.000 F 
ATOM     25  F   UNL     1      10.637  10.849  19.608  0.00  0.00    +0.000 F 
ENDBRANCH  19  22
ENDBRANCH   1  16
BRANCH   1  26
ATOM     26  N   UNL     1       6.020   6.273  15.993  0.00  0.00    +0.000 N 
ATOM     27  H   UNL     1       5.120   6.739  16.006  0.00  0.00    +0.000 HD
BRANCH  26  28
ATOM     28  C   UNL     1       6.171   5.353  14.956  0.00  0.00    +0.000 A 
ATOM     29  C   UNL     1       5.249   4.338  14.670  0.00  0.00    +0.000 A 
ATOM     30  C   UNL     1       5.392   3.509  13.552  0.00  0.00    +0.000 A 
ATOM     31  C   UNL     1       6.477   3.661  12.700  0.00  0.00    +0.000 A 
ATOM     32  C   UNL     1       7.437   4.625  12.986  0.00  0.00    +0.000 A 
ATOM     33  C   UNL     1       7.291   5.450  14.110  0.00  0.00    +0.000 A 
ENDBRANCH  26  28
ENDBRANCH   1  26
TORSDOF 6
ENDMDL
MODEL 6
REMARK VINA RESULT:      -7.7      4.544      6.992
REMARK  Name = 
REMARK  6 active torsions:
REMARK  status: ('A' for Active; 'I' for Inactive)
REMARK    1  A    between atoms: C_2  and  C_3
REMARK    2  A    between atoms: C_3  and  N_4
REMARK    3  A    between atoms: C_3  and  C_11
REMARK    4  A    between atoms: N_4  and  C_5
REMARK    5  A    between atoms: C_14  and  C_15
REMARK    6  A    between atoms: C_25  and  C_26
REMARK                            x       y       z     vdW  Elec       q    Type
REMARK                         _______ _______ _______ _____ _____    ______ ____
ROOT
ATOM      1  C   UNL     1       2.367   7.802  17.733  0.00  0.00    +0.000 C 
ENDROOT
BRANCH   1   3
ATOM      2  O   UNL     1       2.533   9.797  19.157  0.00  0.00    +0.000 OA
ATOM      3  C   UNL     1       1.819   9.112  18.419  0.00  0.00    +0.000 C 
ATOM      4  N   UNL     1       0.492   9.490  18.230  0.00  0.00    +0.000 N 
ATOM      5  C   UNL     1      -0.471   8.900  17.322  0.00  0.00    +0.000 C 
ATOM      6  C   UNL     1      -1.482   9.999  17.028  0.00  0.00    +0.000 C 
ATOM      7  C   UNL     1      -1.383  10.988  18.181  0.00  0.00    +0.000 C 
ATOM      8  C   UNL     1      -0.049  10.688  18.895  0.00  0.00    +0.000 C 
BRANCH   8   9
ATOM      9  C   UNL     1      -0.262  10.493  20.393  0.00  0.00    +0.000 A 
ATOM     10  C   UNL     1      -0.254   9.188  20.932  0.00  0.00    +0.000 A 
ATOM     11  C   UNL     1      -0.446   8.958  22.296  0.00  0.00    +0.000 A 
ATOM     12  C   UNL     1      -0.614  10.029  23.164  0.00  0.00    +0.000 A 
ATOM     13  C   UNL     1      -0.637  11.327  22.658  0.00  0.00    +0.000 A 
ATOM     14  C   UNL     1      -0.488  11.560  21.283  0.00  0.00    +0.000 A 
ATOM     15 CL   UNL     1      -0.668  13.196  20.753  0.00  0.00    +0.000 Cl
ENDBRANCH   8   9
ENDBRANCH   1   3
BRANCH   1  16
ATOM     16  C   UNL     1       2.084   6.514  18.532  0.00  0.00    +0.000 A 
ATOM     17  C   UNL     1       2.103   6.513  19.937  0.00  0.00    +0.000 A 
ATOM     18  C   UNL     1       1.969   5.322  20.659  0.00  0.00    +0.000 A 
ATOM     19  C   UNL     1       1.802   4.098  20.001  0.00  0.00    +0.000 A 
ATOM     20  C   UNL     1       1.694   4.099  18.606  0.00  0.00    +0.000 A 
ATOM     21  C   UNL     1       1.796   5.294  17.888  0.00  0.00    +0.000 A 
BRANCH  19  22
ATOM     22  C   UNL     1       1.767   2.797  20.762  0.00  0.00    +0.000 C 
ATOM     23  F   UNL     1       0.795   2.748  21.717  0.00  0.00    +0.000 F 
ATOM     24  F   UNL     1       1.544   1.723  19.953  0.00  0.00    +0.000 F 
ATOM     25  F   UNL     1       2.938   2.536  21.410  0.00  0.00    +0.000 F 
ENDBRANCH  19  22
ENDBRANCH   1  16
BRANCH   1  26
ATOM     26  N   UNL     1       3.803   7.974  17.354  0.00  0.00    +0.000 N 
ATOM     27  H   UNL     1       3.989   8.836  16.853  0.00  0.00    +0.000 HD
BRANCH  26  28
ATOM     28  C   UNL     1       4.704   6.947  17.074  0.00  0.00    +0.000 A 
ATOM     29  C   UNL     1       5.389   6.219  18.054  0.00  0.00    +0.000 A 
ATOM     30  C   UNL     1       6.199   5.125  17.727  0.00  0.00    +0.000 A 
ATOM     31  C   UNL     1       6.362   4.746  16.402  0.00  0.00    +0.000 A 
ATOM     32  C   UNL     1       5.737   5.481  15.401  0.00  0.00    +0.000 A 
ATOM     33  C   UNL     1       4.930   6.578  15.736  0.00  0.00    +0.000 A 
ENDBRANCH  26  28
ENDBRANCH   1  26
TORSDOF 6
ENDMDL
MODEL 7
REMARK VINA RESULT:      -7.6      3.594      5.751
REMARK  Name = 
REMARK  6 active torsions:
REMARK  status: ('A' for Active; 'I' for Inactive)
REMARK    1  A    between atoms: C_2  and  C_3
REMARK    2  A    between atoms: C_3  and  N_4
REMARK    3  A    between atoms: C_3  and  C_11
REMARK    4  A    between atoms: N_4  and  C_5
REMARK    5  A    between atoms: C_14  and  C_15
REMARK    6  A    between atoms: C_25  and  C_26
REMARK                            x       y       z     vdW  Elec       q    Type
REMARK                         _______ _______ _______ _____ _____    ______ ____
ROOT
ATOM      1  C   UNL     1       6.549   5.970  17.295  0.00  0.00    +0.000 C 
ENDROOT
BRANCH   1   3
ATOM      2  O   UNL     1       5.853   4.593  19.206  0.00  0.00    +0.000 OA
ATOM      3  C   UNL     1       5.544   5.483  18.408  0.00  0.00    +0.000 C 
ATOM      4  N   UNL     1       4.266   6.031  18.475  0.00  0.00    +0.000 N 
ATOM      5  C   UNL     1       3.747   7.154  17.719  0.00  0.00    +0.000 C 
ATOM      6  C   UNL     1       2.622   7.731  18.564  0.00  0.00    +0.000 C 
ATOM      7  C   UNL     1       2.172   6.613  19.496  0.00  0.00    +0.000 C 
ATOM      8  C   UNL     1       3.300   5.560  19.483  0.00  0.00    +0.000 C 
BRANCH   8   9
ATOM      9  C   UNL     1       2.747   4.172  19.175  0.00  0.00    +0.000 A 
ATOM     10  C   UNL     1       2.675   3.733  17.835  0.00  0.00    +0.000 A 
ATOM     11  C   UNL     1       2.175   2.472  17.502  0.00  0.00    +0.000 A 
ATOM     12  C   UNL     1       1.768   1.600  18.504  0.00  0.00    +0.000 A 
ATOM     13  C   UNL     1       1.818   2.011  19.835  0.00  0.00    +0.000 A 
ATOM     14  C   UNL     1       2.279   3.293  20.170  0.00  0.00    +0.000 A 
ATOM     15 CL   UNL     1       2.170   3.741  21.837  0.00  0.00    +0.000 Cl
ENDBRANCH   8   9
ENDBRANCH   1   3
BRANCH   1  16
ATOM     16  C   UNL     1       7.366   7.216  17.694  0.00  0.00    +0.000 A 
ATOM     17  C   UNL     1       8.328   7.154  18.715  0.00  0.00    +0.000 A 
ATOM     18  C   UNL     1       8.981   8.310  19.160  0.00  0.00    +0.000 A 
ATOM     19  C   UNL     1       8.701   9.558  18.592  0.00  0.00    +0.000 A 
ATOM     20  C   UNL     1       7.810   9.615  17.515  0.00  0.00    +0.000 A 
ATOM     21  C   UNL     1       7.183   8.456  17.051  0.00  0.00    +0.000 A 
BRANCH  19  22
ATOM     22  C   UNL     1       9.314  10.823  19.136  0.00  0.00    +0.000 C 
ATOM     23  F   UNL     1       8.887  11.141  20.391  0.00  0.00    +0.000 F 
ATOM     24  F   UNL     1      10.673  10.755  19.214  0.00  0.00    +0.000 F 
ATOM     25  F   UNL     1       9.040  11.913  18.364  0.00  0.00    +0.000 F 
ENDBRANCH  19  22
ENDBRANCH   1  16
BRANCH   1  26
ATOM     26  N   UNL     1       5.845   6.105  15.981  0.00  0.00    +0.000 N 
ATOM     27  H   UNL     1       4.879   6.398  16.069  0.00  0.00    +0.000 HD
BRANCH  26  28
ATOM     28  C   UNL     1       6.116   5.368  14.829  0.00  0.00    +0.000 A 
ATOM     29  C   UNL     1       7.334   5.414  14.139  0.00  0.00    +0.000 A 
ATOM     30  C   UNL     1       7.595   4.573  13.051  0.00  0.00    +0.000 A 
ATOM     31  C   UNL     1       6.631   3.677  12.610  0.00  0.00    +0.000 A 
ATOM     32  C   UNL     1       5.393   3.644  13.241  0.00  0.00    +0.000 A 
ATOM     33  C   UNL     1       5.136   4.493  14.329  0.00  0.00    +0.000 A 
ENDBRANCH  26  28
ENDBRANCH   1  26
TORSDOF 6
ENDMDL
MODEL 8
REMARK VINA RESULT:      -7.6      4.412      8.215
REMARK  Name = 
REMARK  6 active torsions:
REMARK  status: ('A' for Active; 'I' for Inactive)
REMARK    1  A    between atoms: C_2  and  C_3
REMARK    2  A    between atoms: C_3  and  N_4
REMARK    3  A    between atoms: C_3  and  C_11
REMARK    4  A    between atoms: N_4  and  C_5
REMARK    5  A    between atoms: C_14  and  C_15
REMARK    6  A    between atoms: C_25  and  C_26
REMARK                            x       y       z     vdW  Elec       q    Type
REMARK                         _______ _______ _______ _____ _____    ______ ____
ROOT
ATOM      1  C   UNL     1       2.765   6.048  17.922  0.00  0.00    +0.000 C 
ENDROOT
BRANCH   1   3
ATOM      2  O   UNL     1       4.717   5.826  19.397  0.00  0.00    +0.000 OA
ATOM      3  C   UNL     1       4.285   5.776  18.242  0.00  0.00    +0.000 C 
ATOM      4  N   UNL     1       5.175   5.513  17.203  0.00  0.00    +0.000 N 
ATOM      5  C   UNL     1       4.859   5.296  15.805  0.00  0.00    +0.000 C 
ATOM      6  C   UNL     1       6.003   4.460  15.252  0.00  0.00    +0.000 C 
ATOM      7  C   UNL     1       7.186   4.687  16.185  0.00  0.00    +0.000 C 
ATOM      8  C   UNL     1       6.605   5.296  17.478  0.00  0.00    +0.000 C 
BRANCH   8   9
ATOM      9  C   UNL     1       7.341   6.578  17.857  0.00  0.00    +0.000 A 
ATOM     10  C   UNL     1       7.232   7.714  17.025  0.00  0.00    +0.000 A 
ATOM     11  C   UNL     1       7.887   8.909  17.328  0.00  0.00    +0.000 A 
ATOM     12  C   UNL     1       8.640   9.013  18.491  0.00  0.00    +0.000 A 
ATOM     13  C   UNL     1       8.774   7.905  19.324  0.00  0.00    +0.000 A 
ATOM     14  C   UNL     1       8.153   6.689  19.001  0.00  0.00    +0.000 A 
ATOM     15 CL   UNL     1       8.498   5.347  20.035  0.00  0.00    +0.000 Cl
ENDBRANCH   8   9
ENDBRANCH   1   3
BRANCH   1  16
ATOM     16  C   UNL     1       2.230   7.369  18.512  0.00  0.00    +0.000 A 
ATOM     17  C   UNL     1       1.935   7.484  19.880  0.00  0.00    +0.000 A 
ATOM     18  C   UNL     1       1.335   8.640  20.393  0.00  0.00    +0.000 A 
ATOM     19  C   UNL     1       1.022   9.718  19.558  0.00  0.00    +0.000 A 
ATOM     20  C   UNL     1       1.391   9.648  18.211  0.00  0.00    +0.000 A 
ATOM     21  C   UNL     1       2.020   8.506  17.707  0.00  0.00    +0.000 A 
BRANCH  19  22
ATOM     22  C   UNL     1       0.277  10.922  20.077  0.00  0.00    +0.000 C 
ATOM     23  F   UNL     1      -0.059  11.817  19.105  0.00  0.00    +0.000 F 
ATOM     24  F   UNL     1      -0.893  10.589  20.692  0.00  0.00    +0.000 F 
ATOM     25  F   UNL     1       0.993  11.626  20.998  0.00  0.00    +0.000 F 
ENDBRANCH  19  22
ENDBRANCH   1  16
BRANCH   1  26
ATOM     26  N   UNL     1       1.937   4.852  18.269  0.00  0.00    +0.000 N 
ATOM     27  H   UNL     1       0.982   4.910  17.934  0.00  0.00    +0.000 HD
BRANCH  26  28
ATOM     28  C   UNL     1       2.098   4.046  19.395  0.00  0.00    +0.000 A 
ATOM     29  C   UNL     1       1.294   4.128  20.539  0.00  0.00    +0.000 A 
ATOM     30  C   UNL     1       1.427   3.223  21.598  0.00  0.00    +0.000 A 
ATOM     31  C   UNL     1       2.388   2.223  21.550  0.00  0.00    +0.000 A 
ATOM     32  C   UNL     1       3.237   2.148  20.452  0.00  0.00    +0.000 A 
ATOM     33  C   UNL     1       3.102   3.060  19.395  0.00  0.00    +0.000 A 
ENDBRANCH  26  28
ENDBRANCH   1  26
TORSDOF 6
ENDMDL
MODEL 9
REMARK VINA RESULT:      -7.5      4.554      7.015
REMARK  Name = 
REMARK  6 active torsions:
REMARK  status: ('A' for Active; 'I' for Inactive)
REMARK    1  A    between atoms: C_2  and  C_3
REMARK    2  A    between atoms: C_3  and  N_4
REMARK    3  A    between atoms: C_3  and  C_11
REMARK    4  A    between atoms: N_4  and  C_5
REMARK    5  A    between atoms: C_14  and  C_15
REMARK    6  A    between atoms: C_25  and  C_26
REMARK                            x       y       z     vdW  Elec       q    Type
REMARK                         _______ _______ _______ _____ _____    ______ ____
ROOT
ATOM      1  C   UNL     1       2.363   7.781  17.748  0.00  0.00    +0.000 C 
ENDROOT
BRANCH   1   3
ATOM      2  O   UNL     1       2.531   9.784  19.161  0.00  0.00    +0.000 OA
ATOM      3  C   UNL     1       1.817   9.097  18.425  0.00  0.00    +0.000 C 
ATOM      4  N   UNL     1       0.492   9.478  18.230  0.00  0.00    +0.000 N 
ATOM      5  C   UNL     1      -0.471   8.884  17.323  0.00  0.00    +0.000 C 
ATOM      6  C   UNL     1      -1.478   9.984  17.019  0.00  0.00    +0.000 C 
ATOM      7  C   UNL     1      -1.380  10.980  18.167  0.00  0.00    +0.000 C 
ATOM      8  C   UNL     1      -0.048  10.681  18.885  0.00  0.00    +0.000 C 
BRANCH   8   9
ATOM      9  C   UNL     1      -0.266  10.496  20.384  0.00  0.00    +0.000 A 
ATOM     10  C   UNL     1      -0.239   9.196  20.935  0.00  0.00    +0.000 A 
ATOM     11  C   UNL     1      -0.435   8.975  22.301  0.00  0.00    +0.000 A 
ATOM     12  C   UNL     1      -0.625  10.051  23.158  0.00  0.00    +0.000 A 
ATOM     13  C   UNL     1      -0.667  11.344  22.640  0.00  0.00    +0.000 A 
ATOM     14  C   UNL     1      -0.514  11.567  21.263  0.00  0.00    +0.000 A 
ATOM     15 CL   UNL     1      -0.719  13.195  20.717  0.00  0.00    +0.000 Cl
ENDBRANCH   8   9
ENDBRANCH   1   3
BRANCH   1  16
ATOM     16  C   UNL     1       2.089   6.500  18.563  0.00  0.00    +0.000 A 
ATOM     17  C   UNL     1       2.126   6.513  19.967  0.00  0.00    +0.000 A 
ATOM     18  C   UNL     1       2.000   5.328  20.701  0.00  0.00    +0.000 A 
ATOM     19  C   UNL     1       1.822   4.098  20.057  0.00  0.00    +0.000 A 
ATOM     20  C   UNL     1       1.696   4.087  18.664  0.00  0.00    +0.000 A 
ATOM     21  C   UNL     1       1.790   5.276  17.934  0.00  0.00    +0.000 A 
BRANCH  19  22
ATOM     22  C   UNL     1       1.796   2.804  20.829  0.00  0.00    +0.000 C 
ATOM     23  F   UNL     1       2.933   2.572  21.545  0.00  0.00    +0.000 F 
ATOM     24  F   UNL     1       0.775   2.753  21.731  0.00  0.00    +0.000 F 
ATOM     25  F   UNL     1       1.636   1.715  20.025  0.00  0.00    +0.000 F 
ENDBRANCH  19  22
ENDBRANCH   1  16
BRANCH   1  26
ATOM     26  N   UNL     1       3.796   7.953  17.357  0.00  0.00    +0.000 N 
ATOM     27  H   UNL     1       3.982   8.824  16.873  0.00  0.00    +0.000 HD
BRANCH  26  28
ATOM     28  C   UNL     1       4.687   6.927  17.045  0.00  0.00    +0.000 A 
ATOM     29  C   UNL     1       4.949   6.487  15.742  0.00  0.00    +0.000 A 
ATOM     30  C   UNL     1       5.933   5.528  15.473  0.00  0.00    +0.000 A 
ATOM     31  C   UNL     1       6.665   4.966  16.508  0.00  0.00    +0.000 A 
ATOM     32  C   UNL     1       6.392   5.342  17.818  0.00  0.00    +0.000 A 
ATOM     33  C   UNL     1       5.403   6.301  18.082  0.00  0.00    +0.000 A 
ENDBRANCH  26  28
ENDBRANCH   1  26
TORSDOF 6
ENDMDL
