MODEL 1
REMARK VINA RESULT:      -8.0      0.000      0.000
REMARK  Name = 
REMARK  4 active torsions:
REMARK  status: ('A' for Active; 'I' for Inactive)
REMARK    1  A    between atoms: C_1  and  C_2
REMARK    2  A    between atoms: C_5  and  C_6
REMARK    3  A    between atoms: C_13  and  C_14
REMARK    4  A    between atoms: C_14  and  C_16
REMARK                            x       y       z     vdW  Elec       q    Type
REMARK                         _______ _______ _______ _____ _____    ______ ____
ROOT
ATOM      1  C   UNL     1       0.883   3.071  18.514  0.00  0.00    +0.000 C 
ATOM      2  C   UNL     1       2.261   3.569  18.307  0.00  0.00    +0.000 A 
ATOM      3  O   UNL     1       2.967   2.889  17.369  0.00  0.00    +0.000 OA
ATOM      4  N   UNL     1       4.213   3.437  17.237  0.00  0.00    +0.000 NA
ATOM      5  C   UNL     1       4.270   4.494  18.063  0.00  0.00    +0.000 A 
ATOM      6  C   UNL     1       3.044   4.587  18.819  0.00  0.00    +0.000 A 
ENDROOT
BRANCH   5   7
ATOM      7  C   UNL     1       5.504   5.295  18.156  0.00  0.00    +0.000 A 
ATOM      8  C   UNL     1       6.346   5.119  19.270  0.00  0.00    +0.000 A 
ATOM      9  C   UNL     1       7.543   5.831  19.402  0.00  0.00    +0.000 A 
ATOM     10  C   UNL     1       7.941   6.713  18.407  0.00  0.00    +0.000 A 
ATOM     11  C   UNL     1       7.132   6.897  17.286  0.00  0.00    +0.000 A 
ATOM     12  C   UNL     1       5.915   6.207  17.163  0.00  0.00    +0.000 A 
ATOM     13 CL   UNL     1       4.971   6.589  15.761  0.00  0.00    +0.000 Cl
ENDBRANCH   5   7
BRANCH   6  14
ATOM     14  C   UNL     1       2.689   5.580  19.820  0.00  0.00    +0.000 C 
ATOM     15  O   UNL     1       2.736   5.326  21.020  0.00  0.00    +0.000 OA
BRANCH  14  16
ATOM     16  C   UNL     1       2.242   6.954  19.433  0.00  0.00    +0.000 A 
ATOM     17  C   UNL     1       1.636   7.745  20.417  0.00  0.00    +0.000 A 
ATOM     18  C   UNL     1       1.220   9.045  20.123  0.00  0.00    +0.000 A 
ATOM     19  C   UNL     1       1.404   9.562  18.844  0.00  0.00    +0.000 A 
ATOM     20  C   UNL     1       1.967   8.767  17.846  0.00  0.00    +0.000 A 
ATOM     21  C   UNL     1       2.364   7.457  18.130  0.00  0.00    +0.000 A 
ENDBRANCH  14  16
ENDBRANCH   6  14
TORSDOF 3
ENDMDL
MODEL 2
REMARK VINA RESULT:      -7.9      0.276      1.088
REMARK  Name = 
REMARK  4 active torsions:
REMARK  status: ('A' for Active; 'I' for Inactive)
REMARK    1  A    between atoms: C_1  and  C_2
REMARK    2  A    between atoms: C_5  and  C_6
REMARK    3  A    between atoms: C_13  and  C_14
REMARK    4  A    between atoms: C_14  and  C_16
REMARK                            x       y       z     vdW  Elec       q    Type
REMARK                         _______ _______ _______ _____ _____    ______ ____
ROOT
ATOM      1  C   UNL     1       0.947   2.705  18.657  0.00  0.00    +0.000 C 
ATOM      2  C   UNL     1       2.294   3.268  18.411  0.00  0.00    +0.000 A 
ATOM      3  O   UNL     1       2.996   2.636  17.438  0.00  0.00    +0.000 OA
ATOM      4  N   UNL     1       4.211   3.242  17.274  0.00  0.00    +0.000 NA
ATOM      5  C   UNL     1       4.250   4.287  18.116  0.00  0.00    +0.000 A 
ATOM      6  C   UNL     1       3.048   4.313  18.914  0.00  0.00    +0.000 A 
ENDROOT
BRANCH   5   7
ATOM      7  C   UNL     1       5.449   5.142  18.180  0.00  0.00    +0.000 A 
ATOM      8  C   UNL     1       6.311   5.020  19.287  0.00  0.00    +0.000 A 
ATOM      9  C   UNL     1       7.477   5.784  19.393  0.00  0.00    +0.000 A 
ATOM     10  C   UNL     1       7.825   6.666  18.379  0.00  0.00    +0.000 A 
ATOM     11  C   UNL     1       6.997   6.797  17.265  0.00  0.00    +0.000 A 
ATOM     12  C   UNL     1       5.808   6.054  17.168  0.00  0.00    +0.000 A 
ATOM     13 CL   UNL     1       4.833   6.373  15.772  0.00  0.00    +0.000 Cl
ENDBRANCH   5   7
BRANCH   6  14
ATOM     14  C   UNL     1       2.684   5.272  19.943  0.00  0.00    +0.000 C 
ATOM     15  O   UNL     1       2.711   4.976  21.134  0.00  0.00    +0.000 OA
BRANCH  14  16
ATOM     16  C   UNL     1       2.251   6.662  19.598  0.00  0.00    +0.000 A 
ATOM     17  C   UNL     1       2.429   7.092  18.277  0.00  0.00    +0.000 A 
ATOM     18  C   UNL     1       2.024   8.370  17.887  0.00  0.00    +0.000 A 
ATOM     19  C   UNL     1       1.438   9.227  18.815  0.00  0.00    +0.000 A 
ATOM     20  C   UNL     1       1.295   8.823  20.143  0.00  0.00    +0.000 A 
ATOM     21  C   UNL     1       1.723   7.553  20.542  0.00  0.00    +0.000 A 
ENDBRANCH  14  16
ENDBRANCH   6  14
TORSDOF 3
ENDMDL
MODEL 3
REMARK VINA RESULT:      -7.8      1.946      2.660
REMARK  Name = 
REMARK  4 active torsions:
REMARK  status: ('A' for Active; 'I' for Inactive)
REMARK    1  A    between atoms: C_1  and  C_2
REMARK    2  A    between atoms: C_5  and  C_6
REMARK    3  A    between atoms: C_13  and  C_14
REMARK    4  A    between atoms: C_14  and  C_16
REMARK                            x       y       z     vdW  Elec       q    Type
REMARK                         _______ _______ _______ _____ _____    ______ ____
ROOT
ATOM      1  C   UNL     1       1.771   2.863  21.242  0.00  0.00    +0.000 C 
ATOM      2  C   UNL     1       2.916   3.134  20.343  0.00  0.00    +0.000 A 
ATOM      3  O   UNL     1       4.043   2.443  20.649  0.00  0.00    +0.000 OA
ATOM      4  N   UNL     1       5.031   2.745  19.752  0.00  0.00    +0.000 NA
ATOM      5  C   UNL     1       4.504   3.594  18.854  0.00  0.00    +0.000 A 
ATOM      6  C   UNL     1       3.148   3.917  19.228  0.00  0.00    +0.000 A 
ENDROOT
BRANCH   5   7
ATOM      7  C   UNL     1       5.334   4.116  17.754  0.00  0.00    +0.000 A 
ATOM      8  C   UNL     1       5.030   3.734  16.433  0.00  0.00    +0.000 A 
ATOM      9  C   UNL     1       5.765   4.216  15.345  0.00  0.00    +0.000 A 
ATOM     10  C   UNL     1       6.801   5.117  15.550  0.00  0.00    +0.000 A 
ATOM     11  C   UNL     1       7.114   5.523  16.846  0.00  0.00    +0.000 A 
ATOM     12  C   UNL     1       6.400   5.018  17.945  0.00  0.00    +0.000 A 
ATOM     13 CL   UNL     1       6.946   5.543  19.503  0.00  0.00    +0.000 Cl
ENDBRANCH   5   7
BRANCH   6  14
ATOM     14  C   UNL     1       2.220   4.795  18.535  0.00  0.00    +0.000 C 
ATOM     15  O   UNL     1       1.525   4.390  17.608  0.00  0.00    +0.000 OA
BRANCH  14  16
ATOM     16  C   UNL     1       2.075   6.234  18.915  0.00  0.00    +0.000 A 
ATOM     17  C   UNL     1       2.279   7.197  17.918  0.00  0.00    +0.000 A 
ATOM     18  C   UNL     1       2.134   8.556  18.205  0.00  0.00    +0.000 A 
ATOM     19  C   UNL     1       1.786   8.961  19.491  0.00  0.00    +0.000 A 
ATOM     20  C   UNL     1       1.623   8.013  20.501  0.00  0.00    +0.000 A 
ATOM     21  C   UNL     1       1.791   6.653  20.222  0.00  0.00    +0.000 A 
ENDBRANCH  14  16
ENDBRANCH   6  14
TORSDOF 3
ENDMDL
MODEL 4
REMARK VINA RESULT:      -7.8      3.002      6.047
REMARK  Name = 
REMARK  4 active torsions:
REMARK  status: ('A' for Active; 'I' for Inactive)
REMARK    1  A    between atoms: C_1  and  C_2
REMARK    2  A    between atoms: C_5  and  C_6
REMARK    3  A    between atoms: C_13  and  C_14
REMARK    4  A    between atoms: C_14  and  C_16
REMARK                            x       y       z     vdW  Elec       q    Type
REMARK                         _______ _______ _______ _____ _____    ______ ____
ROOT
ATOM      1  C   UNL     1       8.071   6.805  18.383  0.00  0.00    +0.000 C 
ATOM      2  C   UNL     1       6.903   5.926  18.620  0.00  0.00    +0.000 A 
ATOM      3  O   UNL     1       6.897   5.318  19.833  0.00  0.00    +0.000 OA
ATOM      4  N   UNL     1       5.773   4.550  19.962  0.00  0.00    +0.000 NA
ATOM      5  C   UNL     1       5.050   4.715  18.842  0.00  0.00    +0.000 A 
ATOM      6  C   UNL     1       5.770   5.558  17.918  0.00  0.00    +0.000 A 
ENDROOT
BRANCH   5   7
ATOM      7  C   UNL     1       3.772   4.000  18.675  0.00  0.00    +0.000 A 
ATOM      8  C   UNL     1       3.754   2.806  17.928  0.00  0.00    +0.000 A 
ATOM      9  C   UNL     1       2.579   2.069  17.755  0.00  0.00    +0.000 A 
ATOM     10  C   UNL     1       1.398   2.492  18.351  0.00  0.00    +0.000 A 
ATOM     11  C   UNL     1       1.390   3.663  19.107  0.00  0.00    +0.000 A 
ATOM     12  C   UNL     1       2.562   4.424  19.259  0.00  0.00    +0.000 A 
ATOM     13 CL   UNL     1       2.392   5.897  20.155  0.00  0.00    +0.000 Cl
ENDBRANCH   5   7
BRANCH   6  14
ATOM     14  C   UNL     1       5.351   5.988  16.595  0.00  0.00    +0.000 C 
ATOM     15  O   UNL     1       4.576   6.928  16.441  0.00  0.00    +0.000 OA
BRANCH  14  16
ATOM     16  C   UNL     1       5.838   5.300  15.359  0.00  0.00    +0.000 A 
ATOM     17  C   UNL     1       4.980   4.381  14.742  0.00  0.00    +0.000 A 
ATOM     18  C   UNL     1       5.369   3.724  13.573  0.00  0.00    +0.000 A 
ATOM     19  C   UNL     1       6.618   3.981  13.013  0.00  0.00    +0.000 A 
ATOM     20  C   UNL     1       7.496   4.862  13.645  0.00  0.00    +0.000 A 
ATOM     21  C   UNL     1       7.120   5.502  14.829  0.00  0.00    +0.000 A 
ENDBRANCH  14  16
ENDBRANCH   6  14
TORSDOF 3
ENDMDL
MODEL 5
REMARK VINA RESULT:      -7.7      1.953      2.482
REMARK  Name = 
REMARK  4 active torsions:
REMARK  status: ('A' for Active; 'I' for Inactive)
REMARK    1  A    between atoms: C_1  and  C_2
REMARK    2  A    between atoms: C_5  and  C_6
REMARK    3  A    between atoms: C_13  and  C_14
REMARK    4  A    between atoms: C_14  and  C_16
REMARK                            x       y       z     vdW  Elec       q    Type
REMARK                         _______ _______ _______ _____ _____    ______ ____
ROOT
ATOM      1  C   UNL     1       1.710   2.809  21.186  0.00  0.00    +0.000 C 
ATOM      2  C   UNL     1       2.866   3.083  20.303  0.00  0.00    +0.000 A 
ATOM      3  O   UNL     1       3.996   2.409  20.635  0.00  0.00    +0.000 OA
ATOM      4  N   UNL     1       4.995   2.712  19.751  0.00  0.00    +0.000 NA
ATOM      5  C   UNL     1       4.473   3.544  18.835  0.00  0.00    +0.000 A 
ATOM      6  C   UNL     1       3.108   3.856  19.183  0.00  0.00    +0.000 A 
ENDROOT
BRANCH   5   7
ATOM      7  C   UNL     1       5.315   4.063  17.742  0.00  0.00    +0.000 A 
ATOM      8  C   UNL     1       5.026   3.677  16.419  0.00  0.00    +0.000 A 
ATOM      9  C   UNL     1       5.772   4.156  15.338  0.00  0.00    +0.000 A 
ATOM     10  C   UNL     1       6.805   5.058  15.551  0.00  0.00    +0.000 A 
ATOM     11  C   UNL     1       7.104   5.469  16.849  0.00  0.00    +0.000 A 
ATOM     12  C   UNL     1       6.378   4.967  17.942  0.00  0.00    +0.000 A 
ATOM     13 CL   UNL     1       6.906   5.497  19.505  0.00  0.00    +0.000 Cl
ENDBRANCH   5   7
BRANCH   6  14
ATOM     14  C   UNL     1       2.181   4.714  18.464  0.00  0.00    +0.000 C 
ATOM     15  O   UNL     1       1.471   4.279  17.562  0.00  0.00    +0.000 OA
BRANCH  14  16
ATOM     16  C   UNL     1       2.054   6.170  18.787  0.00  0.00    +0.000 A 
ATOM     17  C   UNL     1       1.763   6.523  20.111  0.00  0.00    +0.000 A 
ATOM     18  C   UNL     1       1.656   7.865  20.478  0.00  0.00    +0.000 A 
ATOM     19  C   UNL     1       1.839   8.864  19.526  0.00  0.00    +0.000 A 
ATOM     20  C   UNL     1       2.087   8.522  18.196  0.00  0.00    +0.000 A 
ATOM     21  C   UNL     1       2.170   7.178  17.820  0.00  0.00    +0.000 A 
ENDBRANCH  14  16
ENDBRANCH   6  14
TORSDOF 3
ENDMDL
MODEL 6
REMARK VINA RESULT:      -7.5      1.969      4.363
REMARK  Name = 
REMARK  4 active torsions:
REMARK  status: ('A' for Active; 'I' for Inactive)
REMARK    1  A    between atoms: C_1  and  C_2
REMARK    2  A    between atoms: C_5  and  C_6
REMARK    3  A    between atoms: C_13  and  C_14
REMARK    4  A    between atoms: C_14  and  C_16
REMARK                            x       y       z     vdW  Elec       q    Type
REMARK                         _______ _______ _______ _____ _____    ______ ____
ROOT
ATOM      1  C   UNL     1       7.357   6.738  17.997  0.00  0.00    +0.000 C 
ATOM      2  C   UNL     1       6.283   5.822  18.441  0.00  0.00    +0.000 A 
ATOM      3  O   UNL     1       6.713   4.779  19.196  0.00  0.00    +0.000 OA
ATOM      4  N   UNL     1       5.649   4.008  19.571  0.00  0.00    +0.000 NA
ATOM      5  C   UNL     1       4.543   4.596  19.088  0.00  0.00    +0.000 A 
ATOM      6  C   UNL     1       4.910   5.749  18.301  0.00  0.00    +0.000 A 
ENDROOT
BRANCH   5   7
ATOM      7  C   UNL     1       3.219   3.990  19.321  0.00  0.00    +0.000 A 
ATOM      8  C   UNL     1       2.679   4.017  20.620  0.00  0.00    +0.000 A 
ATOM      9  C   UNL     1       1.417   3.481  20.899  0.00  0.00    +0.000 A 
ATOM     10  C   UNL     1       0.653   2.934  19.877  0.00  0.00    +0.000 A 
ATOM     11  C   UNL     1       1.158   2.907  18.579  0.00  0.00    +0.000 A 
ATOM     12  C   UNL     1       2.437   3.416  18.298  0.00  0.00    +0.000 A 
ATOM     13 CL   UNL     1       2.973   3.246  16.660  0.00  0.00    +0.000 Cl
ENDBRANCH   5   7
BRANCH   6  14
ATOM     14  C   UNL     1       4.026   6.667  17.602  0.00  0.00    +0.000 C 
ATOM     15  O   UNL     1       4.079   6.805  16.383  0.00  0.00    +0.000 OA
BRANCH  14  16
ATOM     16  C   UNL     1       3.017   7.492  18.337  0.00  0.00    +0.000 A 
ATOM     17  C   UNL     1       2.494   8.617  17.686  0.00  0.00    +0.000 A 
ATOM     18  C   UNL     1       1.532   9.413  18.310  0.00  0.00    +0.000 A 
ATOM     19  C   UNL     1       1.087   9.091  19.589  0.00  0.00    +0.000 A 
ATOM     20  C   UNL     1       1.633   7.998  20.263  0.00  0.00    +0.000 A 
ATOM     21  C   UNL     1       2.615   7.214  19.650  0.00  0.00    +0.000 A 
ENDBRANCH  14  16
ENDBRANCH   6  14
TORSDOF 3
ENDMDL
MODEL 7
REMARK VINA RESULT:      -7.5      1.503      2.047
REMARK  Name = 
REMARK  4 active torsions:
REMARK  status: ('A' for Active; 'I' for Inactive)
REMARK    1  A    between atoms: C_1  and  C_2
REMARK    2  A    between atoms: C_5  and  C_6
REMARK    3  A    between atoms: C_13  and  C_14
REMARK    4  A    between atoms: C_14  and  C_16
REMARK                            x       y       z     vdW  Elec       q    Type
REMARK                         _______ _______ _______ _____ _____    ______ ____
ROOT
ATOM      1  C   UNL     1       1.570   2.140  20.282  0.00  0.00    +0.000 C 
ATOM      2  C   UNL     1       2.835   2.784  19.863  0.00  0.00    +0.000 A 
ATOM      3  O   UNL     1       3.954   2.188  20.347  0.00  0.00    +0.000 OA
ATOM      4  N   UNL     1       5.064   2.841  19.888  0.00  0.00    +0.000 NA
ATOM      5  C   UNL     1       4.638   3.822  19.076  0.00  0.00    +0.000 A 
ATOM      6  C   UNL     1       3.196   3.858  19.071  0.00  0.00    +0.000 A 
ENDROOT
BRANCH   5   7
ATOM      7  C   UNL     1       5.611   4.720  18.427  0.00  0.00    +0.000 A 
ATOM      8  C   UNL     1       6.472   5.488  19.234  0.00  0.00    +0.000 A 
ATOM      9  C   UNL     1       7.432   6.338  18.678  0.00  0.00    +0.000 A 
ATOM     10  C   UNL     1       7.576   6.417  17.299  0.00  0.00    +0.000 A 
ATOM     11  C   UNL     1       6.746   5.658  16.476  0.00  0.00    +0.000 A 
ATOM     12  C   UNL     1       5.759   4.825  17.029  0.00  0.00    +0.000 A 
ATOM     13 CL   UNL     1       4.745   4.001  15.891  0.00  0.00    +0.000 Cl
ENDBRANCH   5   7
BRANCH   6  14
ATOM     14  C   UNL     1       2.331   4.761  18.331  0.00  0.00    +0.000 C 
ATOM     15  O   UNL     1       1.688   4.379  17.357  0.00  0.00    +0.000 OA
BRANCH  14  16
ATOM     16  C   UNL     1       2.191   6.200  18.716  0.00  0.00    +0.000 A 
ATOM     17  C   UNL     1       2.391   7.165  17.721  0.00  0.00    +0.000 A 
ATOM     18  C   UNL     1       2.251   8.523  18.013  0.00  0.00    +0.000 A 
ATOM     19  C   UNL     1       1.911   8.926  19.301  0.00  0.00    +0.000 A 
ATOM     20  C   UNL     1       1.752   7.975  20.309  0.00  0.00    +0.000 A 
ATOM     21  C   UNL     1       1.915   6.616  20.026  0.00  0.00    +0.000 A 
ENDBRANCH  14  16
ENDBRANCH   6  14
TORSDOF 3
ENDMDL
MODEL 8
REMARK VINA RESULT:      -7.4      1.518      1.818
REMARK  Name = 
REMARK  4 active torsions:
REMARK  status: ('A' for Active; 'I' for Inactive)
REMARK    1  A    between atoms: C_1  and  C_2
REMARK    2  A    between atoms: C_5  and  C_6
REMARK    3  A    between atoms: C_13  and  C_14
REMARK    4  A    between atoms: C_14  and  C_16
REMARK                            x       y       z     vdW  Elec       q    Type
REMARK                         _______ _______ _______ _____ _____    ______ ____
ROOT
ATOM      1  C   UNL     1       1.667   2.098  20.305  0.00  0.00    +0.000 C 
ATOM      2  C   UNL     1       2.916   2.761  19.868  0.00  0.00    +0.000 A 
ATOM      3  O   UNL     1       4.050   2.194  20.350  0.00  0.00    +0.000 OA
ATOM      4  N   UNL     1       5.143   2.862  19.873  0.00  0.00    +0.000 NA
ATOM      5  C   UNL     1       4.692   3.824  19.051  0.00  0.00    +0.000 A 
ATOM      6  C   UNL     1       3.249   3.832  19.058  0.00  0.00    +0.000 A 
ENDROOT
BRANCH   5   7
ATOM      7  C   UNL     1       5.642   4.732  18.382  0.00  0.00    +0.000 A 
ATOM      8  C   UNL     1       6.490   5.530  19.172  0.00  0.00    +0.000 A 
ATOM      9  C   UNL     1       7.429   6.391  18.597  0.00  0.00    +0.000 A 
ATOM     10  C   UNL     1       7.564   6.451  17.216  0.00  0.00    +0.000 A 
ATOM     11  C   UNL     1       6.746   5.661  16.410  0.00  0.00    +0.000 A 
ATOM     12  C   UNL     1       5.780   4.817  16.982  0.00  0.00    +0.000 A 
ATOM     13 CL   UNL     1       4.777   3.953  15.864  0.00  0.00    +0.000 Cl
ENDBRANCH   5   7
BRANCH   6  14
ATOM     14  C   UNL     1       2.361   4.707  18.313  0.00  0.00    +0.000 C 
ATOM     15  O   UNL     1       1.721   4.301  17.347  0.00  0.00    +0.000 OA
BRANCH  14  16
ATOM     16  C   UNL     1       2.191   6.147  18.683  0.00  0.00    +0.000 A 
ATOM     17  C   UNL     1       1.890   6.447  20.018  0.00  0.00    +0.000 A 
ATOM     18  C   UNL     1       1.743   7.772  20.431  0.00  0.00    +0.000 A 
ATOM     19  C   UNL     1       1.896   8.807  19.512  0.00  0.00    +0.000 A 
ATOM     20  C   UNL     1       2.153   8.517  18.172  0.00  0.00    +0.000 A 
ATOM     21  C   UNL     1       2.276   7.190  17.751  0.00  0.00    +0.000 A 
ENDBRANCH  14  16
ENDBRANCH   6  14
TORSDOF 3
ENDMDL
MODEL 9
REMARK VINA RESULT:      -7.3      1.956      4.299
REMARK  Name = 
REMARK  4 active torsions:
REMARK  status: ('A' for Active; 'I' for Inactive)
REMARK    1  A    between atoms: C_1  and  C_2
REMARK    2  A    between atoms: C_5  and  C_6
REMARK    3  A    between atoms: C_13  and  C_14
REMARK    4  A    between atoms: C_14  and  C_16
REMARK                            x       y       z     vdW  Elec       q    Type
REMARK                         _______ _______ _______ _____ _____    ______ ____
ROOT
ATOM      1  C   UNL     1       7.335   6.669  18.186  0.00  0.00    +0.000 C 
ATOM      2  C   UNL     1       6.259   5.744  18.606  0.00  0.00    +0.000 A 
ATOM      3  O   UNL     1       6.675   4.723  19.397  0.00  0.00    +0.000 OA
ATOM      4  N   UNL     1       5.609   3.941  19.747  0.00  0.00    +0.000 NA
ATOM      5  C   UNL     1       4.513   4.503  19.210  0.00  0.00    +0.000 A 
ATOM      6  C   UNL     1       4.893   5.647  18.415  0.00  0.00    +0.000 A 
ENDROOT
BRANCH   5   7
ATOM      7  C   UNL     1       3.191   3.880  19.404  0.00  0.00    +0.000 A 
ATOM      8  C   UNL     1       2.660   3.805  20.705  0.00  0.00    +0.000 A 
ATOM      9  C   UNL     1       1.401   3.249  20.950  0.00  0.00    +0.000 A 
ATOM     10  C   UNL     1       0.629   2.784  19.894  0.00  0.00    +0.000 A 
ATOM     11  C   UNL     1       1.124   2.859  18.594  0.00  0.00    +0.000 A 
ATOM     12  C   UNL     1       2.402   3.388  18.345  0.00  0.00    +0.000 A 
ATOM     13 CL   UNL     1       2.926   3.347  16.694  0.00  0.00    +0.000 Cl
ENDBRANCH   5   7
BRANCH   6  14
ATOM     14  C   UNL     1       4.023   6.537  17.665  0.00  0.00    +0.000 C 
ATOM     15  O   UNL     1       4.109   6.640  16.445  0.00  0.00    +0.000 OA
BRANCH  14  16
ATOM     16  C   UNL     1       2.989   7.375  18.347  0.00  0.00    +0.000 A 
ATOM     17  C   UNL     1       2.583   6.996  19.633  0.00  0.00    +0.000 A 
ATOM     18  C   UNL     1       1.639   7.752  20.330  0.00  0.00    +0.000 A 
ATOM     19  C   UNL     1       1.093   8.892  19.747  0.00  0.00    +0.000 A 
ATOM     20  C   UNL     1       1.458   9.253  18.450  0.00  0.00    +0.000 A 
ATOM     21  C   UNL     1       2.385   8.485  17.740  0.00  0.00    +0.000 A 
ENDBRANCH  14  16
ENDBRANCH   6  14
TORSDOF 3
ENDMDL
