MODEL 1
REMARK VINA RESULT:      -7.1      0.000      0.000
REMARK  Name = 
REMARK  4 active torsions:
REMARK  status: ('A' for Active; 'I' for Inactive)
REMARK    1  A    between atoms: C_1  and  C_2
REMARK    2  A    between atoms: N_8  and  C_9
REMARK    3  A    between atoms: C_9  and  C_10
REMARK    4  A    between atoms: C_18  and  C_19
REMARK                            x       y       z     vdW  Elec       q    Type
REMARK                         _______ _______ _______ _____ _____    ______ ____
ROOT
ATOM      1  C   UNL     1       7.819   7.976  17.372  0.00  0.00    +0.000 C 
ATOM      2  C   UNL     1       6.968   6.842  17.871  0.00  0.00    +0.000 A 
ATOM      3  C   UNL     1       7.557   5.682  18.357  0.00  0.00    +0.000 A 
ATOM      4  C   UNL     1       6.761   4.603  18.738  0.00  0.00    +0.000 A 
ATOM      5  C   UNL     1       5.361   4.674  18.636  0.00  0.00    +0.000 A 
ATOM      6  C   UNL     1       4.735   5.850  18.175  0.00  0.00    +0.000 A 
ATOM      7  C   UNL     1       5.563   6.928  17.800  0.00  0.00    +0.000 A 
ATOM      8  N   UNL     1       3.309   5.920  17.996  0.00  0.00    +0.000 N 
ATOM      9  C   UNL     1       2.473   4.812  18.174  0.00  0.00    +0.000 C 
ATOM     10  O   UNL     1       1.405   4.690  17.567  0.00  0.00    +0.000 OA
ATOM     11  C   UNL     1       2.848   3.891  19.318  0.00  0.00    +0.000 C 
ATOM     12  C   UNL     1       1.828   2.774  19.500  0.00  0.00    +0.000 C 
ATOM     13  S   UNL     1       4.486   3.183  19.068  0.00  0.00    +0.000 S 
ENDROOT
BRANCH   8  14
ATOM     14  C   UNL     1       2.640   7.147  17.575  0.00  0.00    +0.000 C 
BRANCH  14  15
ATOM     15  C   UNL     1       2.012   8.003  18.648  0.00  0.00    +0.000 A 
ATOM     16  C   UNL     1       1.966   7.626  19.996  0.00  0.00    +0.000 A 
ATOM     17  C   UNL     1       1.336   8.440  20.936  0.00  0.00    +0.000 A 
ATOM     18  C   UNL     1       0.768   9.650  20.547  0.00  0.00    +0.000 A 
ATOM     19  C   UNL     1       0.849  10.062  19.220  0.00  0.00    +0.000 A 
ATOM     20  C   UNL     1       1.473   9.246  18.277  0.00  0.00    +0.000 A 
ENDBRANCH  14  15
ENDBRANCH   8  14
TORSDOF 2
ENDMDL
MODEL 2
REMARK VINA RESULT:      -7.0      0.099      1.082
REMARK  Name = 
REMARK  4 active torsions:
REMARK  status: ('A' for Active; 'I' for Inactive)
REMARK    1  A    between atoms: C_1  and  C_2
REMARK    2  A    between atoms: N_8  and  C_9
REMARK    3  A    between atoms: C_9  and  C_10
REMARK    4  A    between atoms: C_18  and  C_19
REMARK                            x       y       z     vdW  Elec       q    Type
REMARK                         _______ _______ _______ _____ _____    ______ ____
ROOT
ATOM      1  C   UNL     1       7.821   8.076  17.381  0.00  0.00    +0.000 C 
ATOM      2  C   UNL     1       6.983   6.934  17.882  0.00  0.00    +0.000 A 
ATOM      3  C   UNL     1       7.584   5.786  18.382  0.00  0.00    +0.000 A 
ATOM      4  C   UNL     1       6.800   4.699  18.765  0.00  0.00    +0.000 A 
ATOM      5  C   UNL     1       5.401   4.749  18.651  0.00  0.00    +0.000 A 
ATOM      6  C   UNL     1       4.762   5.911  18.174  0.00  0.00    +0.000 A 
ATOM      7  C   UNL     1       5.577   6.998  17.798  0.00  0.00    +0.000 A 
ATOM      8  N   UNL     1       3.336   5.959  17.983  0.00  0.00    +0.000 N 
ATOM      9  C   UNL     1       2.515   4.840  18.163  0.00  0.00    +0.000 C 
ATOM     10  O   UNL     1       1.454   4.698  17.547  0.00  0.00    +0.000 OA
ATOM     11  C   UNL     1       2.894   3.934  19.317  0.00  0.00    +0.000 C 
ATOM     12  C   UNL     1       1.888   2.804  19.499  0.00  0.00    +0.000 C 
ATOM     13  S   UNL     1       4.544   3.248  19.087  0.00  0.00    +0.000 S 
ENDROOT
BRANCH   8  14
ATOM     14  C   UNL     1       2.653   7.173  17.546  0.00  0.00    +0.000 C 
BRANCH  14  15
ATOM     15  C   UNL     1       2.014   8.035  18.608  0.00  0.00    +0.000 A 
ATOM     16  C   UNL     1       1.446   9.285  18.337  0.00  0.00    +0.000 A 
ATOM     17  C   UNL     1       0.906  10.054  19.367  0.00  0.00    +0.000 A 
ATOM     18  C   UNL     1       0.906   9.574  20.674  0.00  0.00    +0.000 A 
ATOM     19  C   UNL     1       1.424   8.313  20.952  0.00  0.00    +0.000 A 
ATOM     20  C   UNL     1       1.970   7.544  19.924  0.00  0.00    +0.000 A 
ENDBRANCH  14  15
ENDBRANCH   8  14
TORSDOF 2
ENDMDL
MODEL 3
REMARK VINA RESULT:      -6.8      1.376      1.888
REMARK  Name = 
REMARK  4 active torsions:
REMARK  status: ('A' for Active; 'I' for Inactive)
REMARK    1  A    between atoms: C_1  and  C_2
REMARK    2  A    between atoms: N_8  and  C_9
REMARK    3  A    between atoms: C_9  and  C_10
REMARK    4  A    between atoms: C_18  and  C_19
REMARK                            x       y       z     vdW  Elec       q    Type
REMARK                         _______ _______ _______ _____ _____    ______ ____
ROOT
ATOM      1  C   UNL     1       7.260   6.971  17.099  0.00  0.00    +0.000 C 
ATOM      2  C   UNL     1       6.282   5.836  17.222  0.00  0.00    +0.000 A 
ATOM      3  C   UNL     1       6.380   4.729  16.389  0.00  0.00    +0.000 A 
ATOM      4  C   UNL     1       5.420   3.721  16.453  0.00  0.00    +0.000 A 
ATOM      5  C   UNL     1       4.346   3.811  17.355  0.00  0.00    +0.000 A 
ATOM      6  C   UNL     1       4.237   4.908  18.232  0.00  0.00    +0.000 A 
ATOM      7  C   UNL     1       5.224   5.911  18.151  0.00  0.00    +0.000 A 
ATOM      8  N   UNL     1       3.109   5.055  19.114  0.00  0.00    +0.000 N 
ATOM      9  C   UNL     1       2.016   4.182  19.089  0.00  0.00    +0.000 C 
ATOM     10  O   UNL     1       0.881   4.540  19.418  0.00  0.00    +0.000 OA
ATOM     11  C   UNL     1       2.353   2.723  18.852  0.00  0.00    +0.000 C 
ATOM     12  C   UNL     1       1.117   1.837  18.943  0.00  0.00    +0.000 C 
ATOM     13  S   UNL     1       3.148   2.495  17.251  0.00  0.00    +0.000 S 
ENDROOT
BRANCH   8  14
ATOM     14  C   UNL     1       3.010   6.154  20.070  0.00  0.00    +0.000 C 
BRANCH  14  15
ATOM     15  C   UNL     1       2.271   7.395  19.632  0.00  0.00    +0.000 A 
ATOM     16  C   UNL     1       2.274   7.859  18.311  0.00  0.00    +0.000 A 
ATOM     17  C   UNL     1       1.607   9.035  17.974  0.00  0.00    +0.000 A 
ATOM     18  C   UNL     1       0.909   9.749  18.946  0.00  0.00    +0.000 A 
ATOM     19  C   UNL     1       0.856   9.275  20.253  0.00  0.00    +0.000 A 
ATOM     20  C   UNL     1       1.529   8.101  20.594  0.00  0.00    +0.000 A 
ENDBRANCH  14  15
ENDBRANCH   8  14
TORSDOF 2
ENDMDL
MODEL 4
REMARK VINA RESULT:      -6.7      1.729      5.347
REMARK  Name = 
REMARK  4 active torsions:
REMARK  status: ('A' for Active; 'I' for Inactive)
REMARK    1  A    between atoms: C_1  and  C_2
REMARK    2  A    between atoms: N_8  and  C_9
REMARK    3  A    between atoms: C_9  and  C_10
REMARK    4  A    between atoms: C_18  and  C_19
REMARK                            x       y       z     vdW  Elec       q    Type
REMARK                         _______ _______ _______ _____ _____    ______ ____
ROOT
ATOM      1  C   UNL     1       3.595   1.069  18.482  0.00  0.00    +0.000 C 
ATOM      2  C   UNL     1       3.044   2.354  19.032  0.00  0.00    +0.000 A 
ATOM      3  C   UNL     1       2.107   2.337  20.057  0.00  0.00    +0.000 A 
ATOM      4  C   UNL     1       1.538   3.529  20.503  0.00  0.00    +0.000 A 
ATOM      5  C   UNL     1       1.901   4.756  19.924  0.00  0.00    +0.000 A 
ATOM      6  C   UNL     1       2.870   4.807  18.902  0.00  0.00    +0.000 A 
ATOM      7  C   UNL     1       3.434   3.588  18.472  0.00  0.00    +0.000 A 
ATOM      8  N   UNL     1       3.206   6.044  18.247  0.00  0.00    +0.000 N 
ATOM      9  C   UNL     1       2.533   7.242  18.511  0.00  0.00    +0.000 C 
ATOM     10  O   UNL     1       2.426   8.136  17.666  0.00  0.00    +0.000 OA
ATOM     11  C   UNL     1       2.144   7.464  19.960  0.00  0.00    +0.000 C 
ATOM     12  C   UNL     1       1.510   8.834  20.169  0.00  0.00    +0.000 C 
ATOM     13  S   UNL     1       1.017   6.179  20.531  0.00  0.00    +0.000 S 
ENDROOT
BRANCH   8  14
ATOM     14  C   UNL     1       4.248   6.124  17.228  0.00  0.00    +0.000 C 
BRANCH  14  15
ATOM     15  C   UNL     1       5.648   6.455  17.686  0.00  0.00    +0.000 A 
ATOM     16  C   UNL     1       6.365   7.560  17.212  0.00  0.00    +0.000 A 
ATOM     17  C   UNL     1       7.671   7.792  17.641  0.00  0.00    +0.000 A 
ATOM     18  C   UNL     1       8.266   6.939  18.567  0.00  0.00    +0.000 A 
ATOM     19  C   UNL     1       7.549   5.864  19.085  0.00  0.00    +0.000 A 
ATOM     20  C   UNL     1       6.245   5.627  18.650  0.00  0.00    +0.000 A 
ENDBRANCH  14  15
ENDBRANCH   8  14
TORSDOF 2
ENDMDL
MODEL 5
REMARK VINA RESULT:      -6.6      1.283      1.604
REMARK  Name = 
REMARK  4 active torsions:
REMARK  status: ('A' for Active; 'I' for Inactive)
REMARK    1  A    between atoms: C_1  and  C_2
REMARK    2  A    between atoms: N_8  and  C_9
REMARK    3  A    between atoms: C_9  and  C_10
REMARK    4  A    between atoms: C_18  and  C_19
REMARK                            x       y       z     vdW  Elec       q    Type
REMARK                         _______ _______ _______ _____ _____    ______ ____
ROOT
ATOM      1  C   UNL     1       7.461   7.298  17.389  0.00  0.00    +0.000 C 
ATOM      2  C   UNL     1       6.530   6.119  17.425  0.00  0.00    +0.000 A 
ATOM      3  C   UNL     1       6.731   5.038  16.576  0.00  0.00    +0.000 A 
ATOM      4  C   UNL     1       5.816   3.987  16.557  0.00  0.00    +0.000 A 
ATOM      5  C   UNL     1       4.684   4.007  17.390  0.00  0.00    +0.000 A 
ATOM      6  C   UNL     1       4.470   5.076  18.282  0.00  0.00    +0.000 A 
ATOM      7  C   UNL     1       5.413   6.124  18.286  0.00  0.00    +0.000 A 
ATOM      8  N   UNL     1       3.284   5.152  19.093  0.00  0.00    +0.000 N 
ATOM      9  C   UNL     1       2.235   4.232  18.980  0.00  0.00    +0.000 C 
ATOM     10  O   UNL     1       1.067   4.531  19.244  0.00  0.00    +0.000 OA
ATOM     11  C   UNL     1       2.654   2.795  18.733  0.00  0.00    +0.000 C 
ATOM     12  C   UNL     1       1.456   1.854  18.726  0.00  0.00    +0.000 C 
ATOM     13  S   UNL     1       3.557   2.642  17.182  0.00  0.00    +0.000 S 
ENDROOT
BRANCH   8  14
ATOM     14  C   UNL     1       3.075   6.222  20.065  0.00  0.00    +0.000 C 
BRANCH  14  15
ATOM     15  C   UNL     1       2.308   7.439  19.608  0.00  0.00    +0.000 A 
ATOM     16  C   UNL     1       1.513   8.207  20.466  0.00  0.00    +0.000 A 
ATOM     17  C   UNL     1       0.795   9.297  19.978  0.00  0.00    +0.000 A 
ATOM     18  C   UNL     1       0.883   9.649  18.633  0.00  0.00    +0.000 A 
ATOM     19  C   UNL     1       1.708   8.926  17.777  0.00  0.00    +0.000 A 
ATOM     20  C   UNL     1       2.422   7.830  18.263  0.00  0.00    +0.000 A 
ENDBRANCH  14  15
ENDBRANCH   8  14
TORSDOF 2
ENDMDL
MODEL 6
REMARK VINA RESULT:      -6.5      4.741      8.395
REMARK  Name = 
REMARK  4 active torsions:
REMARK  status: ('A' for Active; 'I' for Inactive)
REMARK    1  A    between atoms: C_1  and  C_2
REMARK    2  A    between atoms: N_8  and  C_9
REMARK    3  A    between atoms: C_9  and  C_10
REMARK    4  A    between atoms: C_18  and  C_19
REMARK                            x       y       z     vdW  Elec       q    Type
REMARK                         _______ _______ _______ _____ _____    ______ ____
ROOT
ATOM      1  C   UNL     1      -3.036   9.732  15.330  0.00  0.00    +0.000 C 
ATOM      2  C   UNL     1      -2.956  10.391  16.678  0.00  0.00    +0.000 A 
ATOM      3  C   UNL     1      -4.098  10.905  17.279  0.00  0.00    +0.000 A 
ATOM      4  C   UNL     1      -4.002  11.588  18.490  0.00  0.00    +0.000 A 
ATOM      5  C   UNL     1      -2.756  11.766  19.115  0.00  0.00    +0.000 A 
ATOM      6  C   UNL     1      -1.585  11.230  18.543  0.00  0.00    +0.000 A 
ATOM      7  C   UNL     1      -1.710  10.539  17.321  0.00  0.00    +0.000 A 
ATOM      8  N   UNL     1      -0.290  11.460  19.129  0.00  0.00    +0.000 N 
ATOM      9  C   UNL     1      -0.103  12.298  20.234  0.00  0.00    +0.000 C 
ATOM     10  O   UNL     1       0.956  12.903  20.427  0.00  0.00    +0.000 OA
ATOM     11  C   UNL     1      -1.191  12.240  21.288  0.00  0.00    +0.000 C 
ATOM     12  C   UNL     1      -0.853  13.105  22.495  0.00  0.00    +0.000 C 
ATOM     13  S   UNL     1      -2.781  12.743  20.605  0.00  0.00    +0.000 S 
ENDROOT
BRANCH   8  14
ATOM     14  C   UNL     1       0.925  10.863  18.583  0.00  0.00    +0.000 C 
BRANCH  14  15
ATOM     15  C   UNL     1       1.320   9.497  19.088  0.00  0.00    +0.000 A 
ATOM     16  C   UNL     1       1.012   9.041  20.375  0.00  0.00    +0.000 A 
ATOM     17  C   UNL     1       1.438   7.783  20.800  0.00  0.00    +0.000 A 
ATOM     18  C   UNL     1       2.155   6.957  19.937  0.00  0.00    +0.000 A 
ATOM     19  C   UNL     1       2.426   7.377  18.638  0.00  0.00    +0.000 A 
ATOM     20  C   UNL     1       2.006   8.638  18.214  0.00  0.00    +0.000 A 
ENDBRANCH  14  15
ENDBRANCH   8  14
TORSDOF 2
ENDMDL
MODEL 7
REMARK VINA RESULT:      -6.4      1.802      5.259
REMARK  Name = 
REMARK  4 active torsions:
REMARK  status: ('A' for Active; 'I' for Inactive)
REMARK    1  A    between atoms: C_1  and  C_2
REMARK    2  A    between atoms: N_8  and  C_9
REMARK    3  A    between atoms: C_9  and  C_10
REMARK    4  A    between atoms: C_18  and  C_19
REMARK                            x       y       z     vdW  Elec       q    Type
REMARK                         _______ _______ _______ _____ _____    ______ ____
ROOT
ATOM      1  C   UNL     1       3.852   1.236  19.366  0.00  0.00    +0.000 C 
ATOM      2  C   UNL     1       3.250   2.560  19.745  0.00  0.00    +0.000 A 
ATOM      3  C   UNL     1       2.338   2.645  20.789  0.00  0.00    +0.000 A 
ATOM      4  C   UNL     1       1.721   3.861  21.078  0.00  0.00    +0.000 A 
ATOM      5  C   UNL     1       2.011   5.009  20.322  0.00  0.00    +0.000 A 
ATOM      6  C   UNL     1       2.953   4.959  19.275  0.00  0.00    +0.000 A 
ATOM      7  C   UNL     1       3.566   3.718  19.006  0.00  0.00    +0.000 A 
ATOM      8  N   UNL     1       3.213   6.104  18.443  0.00  0.00    +0.000 N 
ATOM      9  C   UNL     1       2.488   7.296  18.555  0.00  0.00    +0.000 C 
ATOM     10  O   UNL     1       2.319   8.054  17.596  0.00  0.00    +0.000 OA
ATOM     11  C   UNL     1       2.120   7.703  19.969  0.00  0.00    +0.000 C 
ATOM     12  C   UNL     1       1.425   9.059  20.001  0.00  0.00    +0.000 C 
ATOM     13  S   UNL     1       1.071   6.463  20.748  0.00  0.00    +0.000 S 
ENDROOT
BRANCH   8  14
ATOM     14  C   UNL     1       4.228   6.086  17.394  0.00  0.00    +0.000 C 
BRANCH  14  15
ATOM     15  C   UNL     1       5.654   6.371  17.797  0.00  0.00    +0.000 A 
ATOM     16  C   UNL     1       6.353   5.595  18.730  0.00  0.00    +0.000 A 
ATOM     17  C   UNL     1       7.656   5.931  19.094  0.00  0.00    +0.000 A 
ATOM     18  C   UNL     1       8.285   7.029  18.513  0.00  0.00    +0.000 A 
ATOM     19  C   UNL     1       7.621   7.781  17.548  0.00  0.00    +0.000 A 
ATOM     20  C   UNL     1       6.315   7.450  17.188  0.00  0.00    +0.000 A 
ENDBRANCH  14  15
ENDBRANCH   8  14
TORSDOF 2
ENDMDL
MODEL 8
REMARK VINA RESULT:      -6.4      2.075      5.224
REMARK  Name = 
REMARK  4 active torsions:
REMARK  status: ('A' for Active; 'I' for Inactive)
REMARK    1  A    between atoms: C_1  and  C_2
REMARK    2  A    between atoms: N_8  and  C_9
REMARK    3  A    between atoms: C_9  and  C_10
REMARK    4  A    between atoms: C_18  and  C_19
REMARK                            x       y       z     vdW  Elec       q    Type
REMARK                         _______ _______ _______ _____ _____    ______ ____
ROOT
ATOM      1  C   UNL     1       2.270   9.250  17.650  0.00  0.00    +0.000 C 
ATOM      2  C   UNL     1       2.151   8.041  18.535  0.00  0.00    +0.000 A 
ATOM      3  C   UNL     1       1.719   8.171  19.849  0.00  0.00    +0.000 A 
ATOM      4  C   UNL     1       1.692   7.058  20.688  0.00  0.00    +0.000 A 
ATOM      5  C   UNL     1       2.100   5.798  20.218  0.00  0.00    +0.000 A 
ATOM      6  C   UNL     1       2.514   5.630  18.882  0.00  0.00    +0.000 A 
ATOM      7  C   UNL     1       2.528   6.771  18.054  0.00  0.00    +0.000 A 
ATOM      8  N   UNL     1       3.002   4.365  18.400  0.00  0.00    +0.000 N 
ATOM      9  C   UNL     1       3.184   3.260  19.240  0.00  0.00    +0.000 C 
ATOM     10  O   UNL     1       4.031   2.392  19.008  0.00  0.00    +0.000 OA
ATOM     11  C   UNL     1       2.132   3.080  20.317  0.00  0.00    +0.000 C 
ATOM     12  C   UNL     1       2.354   1.801  21.113  0.00  0.00    +0.000 C 
ATOM     13  S   UNL     1       2.103   4.494  21.434  0.00  0.00    +0.000 S 
ENDROOT
BRANCH   8  14
ATOM     14  C   UNL     1       3.380   4.160  17.005  0.00  0.00    +0.000 C 
BRANCH  14  15
ATOM     15  C   UNL     1       4.814   4.434  16.623  0.00  0.00    +0.000 A 
ATOM     16  C   UNL     1       5.760   4.941  17.522  0.00  0.00    +0.000 A 
ATOM     17  C   UNL     1       7.060   5.213  17.101  0.00  0.00    +0.000 A 
ATOM     18  C   UNL     1       7.438   4.960  15.784  0.00  0.00    +0.000 A 
ATOM     19  C   UNL     1       6.523   4.411  14.891  0.00  0.00    +0.000 A 
ATOM     20  C   UNL     1       5.219   4.144  15.310  0.00  0.00    +0.000 A 
ENDBRANCH  14  15
ENDBRANCH   8  14
TORSDOF 2
ENDMDL
MODEL 9
REMARK VINA RESULT:      -6.4      1.922      2.423
REMARK  Name = 
REMARK  4 active torsions:
REMARK  status: ('A' for Active; 'I' for Inactive)
REMARK    1  A    between atoms: C_1  and  C_2
REMARK    2  A    between atoms: N_8  and  C_9
REMARK    3  A    between atoms: C_9  and  C_10
REMARK    4  A    between atoms: C_18  and  C_19
REMARK                            x       y       z     vdW  Elec       q    Type
REMARK                         _______ _______ _______ _____ _____    ______ ____
ROOT
ATOM      1  C   UNL     1       5.633   6.463  15.481  0.00  0.00    +0.000 C 
ATOM      2  C   UNL     1       4.925   5.496  16.388  0.00  0.00    +0.000 A 
ATOM      3  C   UNL     1       4.823   4.154  16.043  0.00  0.00    +0.000 A 
ATOM      4  C   UNL     1       4.093   3.281  16.848  0.00  0.00    +0.000 A 
ATOM      5  C   UNL     1       3.452   3.744  18.009  0.00  0.00    +0.000 A 
ATOM      6  C   UNL     1       3.562   5.094  18.399  0.00  0.00    +0.000 A 
ATOM      7  C   UNL     1       4.310   5.955  17.571  0.00  0.00    +0.000 A 
ATOM      8  N   UNL     1       2.857   5.604  19.546  0.00  0.00    +0.000 N 
ATOM      9  C   UNL     1       1.955   4.827  20.281  0.00  0.00    +0.000 C 
ATOM     10  O   UNL     1       1.004   5.325  20.890  0.00  0.00    +0.000 OA
ATOM     11  C   UNL     1       2.347   3.374  20.466  0.00  0.00    +0.000 C 
ATOM     12  C   UNL     1       1.360   2.635  21.362  0.00  0.00    +0.000 C 
ATOM     13  S   UNL     1       2.477   2.532  18.879  0.00  0.00    +0.000 S 
ENDROOT
BRANCH   8  14
ATOM     14  C   UNL     1       3.006   6.984  19.996  0.00  0.00    +0.000 C 
BRANCH  14  15
ATOM     15  C   UNL     1       2.043   8.007  19.444  0.00  0.00    +0.000 A 
ATOM     16  C   UNL     1       1.937   8.295  18.078  0.00  0.00    +0.000 A 
ATOM     17  C   UNL     1       1.057   9.280  17.631  0.00  0.00    +0.000 A 
ATOM     18  C   UNL     1       0.256   9.969  18.538  0.00  0.00    +0.000 A 
ATOM     19  C   UNL     1       0.315   9.659  19.894  0.00  0.00    +0.000 A 
ATOM     20  C   UNL     1       1.200   8.679  20.344  0.00  0.00    +0.000 A 
ENDBRANCH  14  15
ENDBRANCH   8  14
TORSDOF 2
ENDMDL
