MODEL 1
REMARK VINA RESULT:      -6.6      0.000      0.000
REMARK  Name = 
REMARK  8 active torsions:
REMARK  status: ('A' for Active; 'I' for Inactive)
REMARK    1  A    between atoms: C_1  and  C_2
REMARK    2  A    between atoms: C_2  and  O_4
REMARK    3  A    between atoms: O_4  and  C_5
REMARK    4  A    between atoms: C_8  and  N_9
REMARK    5  A    between atoms: N_9  and  S_10
REMARK    6  A    between atoms: S_10  and  O_13
REMARK    7  A    between atoms: O_13  and  N_14
REMARK    8  A    between atoms: C_16  and  C_17
REMARK                            x       y       z     vdW  Elec       q    Type
REMARK                         _______ _______ _______ _____ _____    ______ ____
ROOT
ATOM      1  C   UNL     1       2.603   4.943  18.657  0.00  0.00    +0.000 C 
ATOM      2  C   UNL     1       2.762   3.672  17.874  0.00  0.00    +0.000 C 
ATOM      3  C   UNL     1       3.813   3.458  17.072  0.00  0.00    +0.000 C 
ATOM      4  C   UNL     1       4.899   4.464  16.852  0.00  0.00    +0.000 C 
ATOM      5  O   UNL     1       4.452   5.776  17.124  0.00  0.00    +0.000 OA
ATOM      6  C   UNL     1       3.694   6.004  18.321  0.00  0.00    +0.000 C 
ATOM      7  C   UNL     1       3.022   7.355  18.049  0.00  0.00    +0.000 C 
ENDROOT
BRANCH   4   8
ATOM      8  N   UNL     1       6.038   4.094  17.668  0.00  0.00    +0.000 NA
ATOM      9  H   UNL     1       6.178   3.084  17.693  0.00  0.00    +0.000 HD
BRANCH   8  10
ATOM     10  S   UNL     1       7.498   4.762  17.157  0.00  0.00    +0.000 S 
ATOM     11  O   UNL     1       8.561   4.029  17.812  0.00  0.00    +0.000 OA
ATOM     12  O   UNL     1       7.460   4.924  15.718  0.00  0.00    +0.000 OA
BRANCH  10  13
ATOM     13  O   UNL     1       7.464   6.273  17.838  0.00  0.00    +0.000 OA
BRANCH  13  14
ATOM     14  N   UNL     1       7.073   7.384  16.927  0.00  0.00    +0.000 NA
ATOM     15  H   UNL     1       7.838   7.322  16.250  0.00  0.00    +0.000 HD
ATOM     16  H   UNL     1       7.334   8.193  17.509  0.00  0.00    +0.000 HD
ENDBRANCH  13  14
ENDBRANCH  10  13
ENDBRANCH   8  10
ENDBRANCH   4   8
BRANCH   1  17
ATOM     17  O   UNL     1       2.711   4.611  20.064  0.00  0.00    +0.000 OA
BRANCH  17  19
ATOM     18  C   UNL     1       2.105   2.987  21.652  0.00  0.00    +0.000 C 
ATOM     19  C   UNL     1       1.647   3.979  20.626  0.00  0.00    +0.000 C 
ATOM     20  O   UNL     1       0.470   4.180  20.341  0.00  0.00    +0.000 OA
ENDBRANCH  17  19
ENDBRANCH   1  17
TORSDOF 6
ENDMDL
MODEL 2
REMARK VINA RESULT:      -6.6      2.000      2.790
REMARK  Name = 
REMARK  8 active torsions:
REMARK  status: ('A' for Active; 'I' for Inactive)
REMARK    1  A    between atoms: C_1  and  C_2
REMARK    2  A    between atoms: C_2  and  O_4
REMARK    3  A    between atoms: O_4  and  C_5
REMARK    4  A    between atoms: C_8  and  N_9
REMARK    5  A    between atoms: N_9  and  S_10
REMARK    6  A    between atoms: S_10  and  O_13
REMARK    7  A    between atoms: O_13  and  N_14
REMARK    8  A    between atoms: C_16  and  C_17
REMARK                            x       y       z     vdW  Elec       q    Type
REMARK                         _______ _______ _______ _____ _____    ______ ____
ROOT
ATOM      1  C   UNL     1       3.116   3.960  19.634  0.00  0.00    +0.000 C 
ATOM      2  C   UNL     1       3.354   5.441  19.579  0.00  0.00    +0.000 C 
ATOM      3  C   UNL     1       4.497   5.960  19.112  0.00  0.00    +0.000 C 
ATOM      4  C   UNL     1       5.646   5.128  18.639  0.00  0.00    +0.000 C 
ATOM      5  O   UNL     1       5.619   3.836  19.210  0.00  0.00    +0.000 OA
ATOM      6  C   UNL     1       4.372   3.128  19.234  0.00  0.00    +0.000 C 
ATOM      7  C   UNL     1       4.616   2.040  20.288  0.00  0.00    +0.000 C 
ENDROOT
BRANCH   4   8
ATOM      8  N   UNL     1       5.618   5.086  17.190  0.00  0.00    +0.000 NA
ATOM      9  H   UNL     1       4.985   5.786  16.801  0.00  0.00    +0.000 HD
BRANCH   8  10
ATOM     10  S   UNL     1       7.116   5.345  16.464  0.00  0.00    +0.000 S 
ATOM     11  O   UNL     1       7.499   6.714  16.742  0.00  0.00    +0.000 OA
ATOM     12  O   UNL     1       7.987   4.233  16.777  0.00  0.00    +0.000 OA
BRANCH  10  13
ATOM     13  O   UNL     1       6.753   5.266  14.848  0.00  0.00    +0.000 OA
BRANCH  13  14
ATOM     14  N   UNL     1       7.887   5.521  13.918  0.00  0.00    +0.000 NA
ATOM     15  H   UNL     1       7.587   4.945  13.126  0.00  0.00    +0.000 HD
ATOM     16  H   UNL     1       8.618   4.949  14.366  0.00  0.00    +0.000 HD
ENDBRANCH  13  14
ENDBRANCH  10  13
ENDBRANCH   8  10
ENDBRANCH   4   8
BRANCH   1  17
ATOM     17  O   UNL     1       2.050   3.648  18.702  0.00  0.00    +0.000 OA
BRANCH  17  19
ATOM     18  C   UNL     1       0.953   2.979  20.671  0.00  0.00    +0.000 C 
ATOM     19  C   UNL     1       1.026   2.891  19.176  0.00  0.00    +0.000 C 
ATOM     20  O   UNL     1       0.261   2.221  18.489  0.00  0.00    +0.000 OA
ENDBRANCH  17  19
ENDBRANCH   1  17
TORSDOF 6
ENDMDL
MODEL 3
REMARK VINA RESULT:      -6.6      1.473      2.052
REMARK  Name = 
REMARK  8 active torsions:
REMARK  status: ('A' for Active; 'I' for Inactive)
REMARK    1  A    between atoms: C_1  and  C_2
REMARK    2  A    between atoms: C_2  and  O_4
REMARK    3  A    between atoms: O_4  and  C_5
REMARK    4  A    between atoms: C_8  and  N_9
REMARK    5  A    between atoms: N_9  and  S_10
REMARK    6  A    between atoms: S_10  and  O_13
REMARK    7  A    between atoms: O_13  and  N_14
REMARK    8  A    between atoms: C_16  and  C_17
REMARK                            x       y       z     vdW  Elec       q    Type
REMARK                         _______ _______ _______ _____ _____    ______ ____
ROOT
ATOM      1  C   UNL     1       2.677   4.451  19.189  0.00  0.00    +0.000 C 
ATOM      2  C   UNL     1       2.971   3.799  17.869  0.00  0.00    +0.000 C 
ATOM      3  C   UNL     1       3.765   4.372  16.955  0.00  0.00    +0.000 C 
ATOM      4  C   UNL     1       4.397   5.715  17.140  0.00  0.00    +0.000 C 
ATOM      5  O   UNL     1       3.682   6.500  18.070  0.00  0.00    +0.000 OA
ATOM      6  C   UNL     1       3.265   5.890  19.300  0.00  0.00    +0.000 C 
ATOM      7  C   UNL     1       2.177   6.845  19.806  0.00  0.00    +0.000 C 
ENDROOT
BRANCH   4   8
ATOM      8  N   UNL     1       5.778   5.521  17.536  0.00  0.00    +0.000 NA
ATOM      9  H   UNL     1       5.956   4.565  17.844  0.00  0.00    +0.000 HD
BRANCH   8  10
ATOM     10  S   UNL     1       6.896   5.840  16.316  0.00  0.00    +0.000 S 
ATOM     11  O   UNL     1       6.192   5.760  15.054  0.00  0.00    +0.000 OA
ATOM     12  O   UNL     1       7.668   7.008  16.684  0.00  0.00    +0.000 OA
BRANCH  10  13
ATOM     13  O   UNL     1       7.901   4.524  16.392  0.00  0.00    +0.000 OA
BRANCH  13  14
ATOM     14  N   UNL     1       8.256   4.059  17.761  0.00  0.00    +0.000 NA
ATOM     15  H   UNL     1       7.318   3.846  18.113  0.00  0.00    +0.000 HD
ATOM     16  H   UNL     1       8.479   4.961  18.204  0.00  0.00    +0.000 HD
ENDBRANCH  13  14
ENDBRANCH  10  13
ENDBRANCH   8  10
ENDBRANCH   4   8
BRANCH   1  17
ATOM     17  O   UNL     1       3.273   3.635  20.228  0.00  0.00    +0.000 OA
BRANCH  17  19
ATOM     18  C   UNL     1       0.997   3.328  20.733  0.00  0.00    +0.000 C 
ATOM     19  C   UNL     1       2.421   3.058  21.117  0.00  0.00    +0.000 C 
ATOM     20  O   UNL     1       2.757   2.407  22.102  0.00  0.00    +0.000 OA
ENDBRANCH  17  19
ENDBRANCH   1  17
TORSDOF 6
ENDMDL
MODEL 4
REMARK VINA RESULT:      -6.6      1.449      1.559
REMARK  Name = 
REMARK  8 active torsions:
REMARK  status: ('A' for Active; 'I' for Inactive)
REMARK    1  A    between atoms: C_1  and  C_2
REMARK    2  A    between atoms: C_2  and  O_4
REMARK    3  A    between atoms: O_4  and  C_5
REMARK    4  A    between atoms: C_8  and  N_9
REMARK    5  A    between atoms: N_9  and  S_10
REMARK    6  A    between atoms: S_10  and  O_13
REMARK    7  A    between atoms: O_13  and  N_14
REMARK    8  A    between atoms: C_16  and  C_17
REMARK                            x       y       z     vdW  Elec       q    Type
REMARK                         _______ _______ _______ _____ _____    ______ ____
ROOT
ATOM      1  C   UNL     1       2.668   3.847  18.923  0.00  0.00    +0.000 C 
ATOM      2  C   UNL     1       2.889   3.221  17.577  0.00  0.00    +0.000 C 
ATOM      3  C   UNL     1       3.895   3.594  16.777  0.00  0.00    +0.000 C 
ATOM      4  C   UNL     1       4.862   4.681  17.123  0.00  0.00    +0.000 C 
ATOM      5  O   UNL     1       4.315   5.581  18.063  0.00  0.00    +0.000 OA
ATOM      6  C   UNL     1       3.628   5.043  19.201  0.00  0.00    +0.000 C 
ATOM      7  C   UNL     1       2.813   6.240  19.708  0.00  0.00    +0.000 C 
ENDROOT
BRANCH   4   8
ATOM      8  N   UNL     1       6.088   4.070  17.599  0.00  0.00    +0.000 NA
ATOM      9  H   UNL     1       6.261   3.168  17.156  0.00  0.00    +0.000 HD
BRANCH   8  10
ATOM     10  S   UNL     1       7.468   4.999  17.337  0.00  0.00    +0.000 S 
ATOM     11  O   UNL     1       8.613   4.127  17.498  0.00  0.00    +0.000 OA
ATOM     12  O   UNL     1       7.279   5.793  16.141  0.00  0.00    +0.000 OA
BRANCH  10  13
ATOM     13  O   UNL     1       7.463   6.030  18.636  0.00  0.00    +0.000 OA
BRANCH  13  14
ATOM     14  N   UNL     1       7.289   5.390  19.968  0.00  0.00    +0.000 NA
ATOM     15  H   UNL     1       7.860   6.023  20.534  0.00  0.00    +0.000 HD
ATOM     16  H   UNL     1       7.892   4.564  19.851  0.00  0.00    +0.000 HD
ENDBRANCH  13  14
ENDBRANCH  10  13
ENDBRANCH   8  10
ENDBRANCH   4   8
BRANCH   1  17
ATOM     17  O   UNL     1       2.907   2.830  19.929  0.00  0.00    +0.000 OA
BRANCH  17  19
ATOM     18  C   UNL     1       0.724   3.259  20.688  0.00  0.00    +0.000 C 
ATOM     19  C   UNL     1       2.129   2.877  21.043  0.00  0.00    +0.000 C 
ATOM     20  O   UNL     1       2.511   2.645  22.186  0.00  0.00    +0.000 OA
ENDBRANCH  17  19
ENDBRANCH   1  17
TORSDOF 6
ENDMDL
MODEL 5
REMARK VINA RESULT:      -6.5      1.250      1.585
REMARK  Name = 
REMARK  8 active torsions:
REMARK  status: ('A' for Active; 'I' for Inactive)
REMARK    1  A    between atoms: C_1  and  C_2
REMARK    2  A    between atoms: C_2  and  O_4
REMARK    3  A    between atoms: O_4  and  C_5
REMARK    4  A    between atoms: C_8  and  N_9
REMARK    5  A    between atoms: N_9  and  S_10
REMARK    6  A    between atoms: S_10  and  O_13
REMARK    7  A    between atoms: O_13  and  N_14
REMARK    8  A    between atoms: C_16  and  C_17
REMARK                            x       y       z     vdW  Elec       q    Type
REMARK                         _______ _______ _______ _____ _____    ______ ____
ROOT
ATOM      1  C   UNL     1       2.656   3.852  19.009  0.00  0.00    +0.000 C 
ATOM      2  C   UNL     1       3.066   3.153  17.746  0.00  0.00    +0.000 C 
ATOM      3  C   UNL     1       4.180   3.484  17.081  0.00  0.00    +0.000 C 
ATOM      4  C   UNL     1       5.093   4.591  17.504  0.00  0.00    +0.000 C 
ATOM      5  O   UNL     1       4.420   5.540  18.303  0.00  0.00    +0.000 OA
ATOM      6  C   UNL     1       3.571   5.064  19.358  0.00  0.00    +0.000 C 
ATOM      7  C   UNL     1       2.698   6.285  19.674  0.00  0.00    +0.000 C 
ENDROOT
BRANCH   4   8
ATOM      8  N   UNL     1       6.233   4.010  18.187  0.00  0.00    +0.000 NA
ATOM      9  H   UNL     1       6.457   3.080  17.832  0.00  0.00    +0.000 HD
BRANCH   8  10
ATOM     10  S   UNL     1       7.647   4.918  18.064  0.00  0.00    +0.000 S 
ATOM     11  O   UNL     1       7.641   5.875  19.150  0.00  0.00    +0.000 OA
ATOM     12  O   UNL     1       8.762   4.020  17.846  0.00  0.00    +0.000 OA
BRANCH  10  13
ATOM     13  O   UNL     1       7.406   5.775  16.666  0.00  0.00    +0.000 OA
BRANCH  13  14
ATOM     14  N   UNL     1       7.656   7.240  16.754  0.00  0.00    +0.000 NA
ATOM     15  H   UNL     1       6.737   7.547  17.084  0.00  0.00    +0.000 HD
ATOM     16  H   UNL     1       7.645   7.484  15.753  0.00  0.00    +0.000 HD
ENDBRANCH  13  14
ENDBRANCH  10  13
ENDBRANCH   8  10
ENDBRANCH   4   8
BRANCH   1  17
ATOM     17  O   UNL     1       2.740   2.893  20.093  0.00  0.00    +0.000 OA
BRANCH  17  19
ATOM     18  C   UNL     1       0.433   3.307  20.273  0.00  0.00    +0.000 C 
ATOM     19  C   UNL     1       1.687   2.847  20.953  0.00  0.00    +0.000 C 
ATOM     20  O   UNL     1       1.742   2.485  22.124  0.00  0.00    +0.000 OA
ENDBRANCH  17  19
ENDBRANCH   1  17
TORSDOF 6
ENDMDL
MODEL 6
REMARK VINA RESULT:      -6.4      1.741      2.411
REMARK  Name = 
REMARK  8 active torsions:
REMARK  status: ('A' for Active; 'I' for Inactive)
REMARK    1  A    between atoms: C_1  and  C_2
REMARK    2  A    between atoms: C_2  and  O_4
REMARK    3  A    between atoms: O_4  and  C_5
REMARK    4  A    between atoms: C_8  and  N_9
REMARK    5  A    between atoms: N_9  and  S_10
REMARK    6  A    between atoms: S_10  and  O_13
REMARK    7  A    between atoms: O_13  and  N_14
REMARK    8  A    between atoms: C_16  and  C_17
REMARK                            x       y       z     vdW  Elec       q    Type
REMARK                         _______ _______ _______ _____ _____    ______ ____
ROOT
ATOM      1  C   UNL     1       1.916   4.300  18.892  0.00  0.00    +0.000 C 
ATOM      2  C   UNL     1       2.584   4.198  17.552  0.00  0.00    +0.000 C 
ATOM      3  C   UNL     1       3.774   4.760  17.307  0.00  0.00    +0.000 C 
ATOM      4  C   UNL     1       4.528   5.565  18.318  0.00  0.00    +0.000 C 
ATOM      5  O   UNL     1       3.667   6.096  19.304  0.00  0.00    +0.000 OA
ATOM      6  C   UNL     1       2.679   5.231  19.882  0.00  0.00    +0.000 C 
ATOM      7  C   UNL     1       1.689   6.218  20.516  0.00  0.00    +0.000 C 
ENDROOT
BRANCH   4   8
ATOM      8  N   UNL     1       5.564   4.728  18.890  0.00  0.00    +0.000 NA
ATOM      9  H   UNL     1       5.668   3.849  18.382  0.00  0.00    +0.000 HD
BRANCH   8  10
ATOM     10  S   UNL     1       7.090   5.442  18.919  0.00  0.00    +0.000 S 
ATOM     11  O   UNL     1       7.028   6.626  18.088  0.00  0.00    +0.000 OA
ATOM     12  O   UNL     1       7.554   5.499  20.289  0.00  0.00    +0.000 OA
BRANCH  10  13
ATOM     13  O   UNL     1       8.024   4.336  18.113  0.00  0.00    +0.000 OA
BRANCH  13  14
ATOM     14  N   UNL     1       7.733   4.180  16.661  0.00  0.00    +0.000 NA
ATOM     15  H   UNL     1       7.353   3.229  16.667  0.00  0.00    +0.000 HD
ATOM     16  H   UNL     1       8.689   4.053  16.300  0.00  0.00    +0.000 HD
ENDBRANCH  13  14
ENDBRANCH  10  13
ENDBRANCH   8  10
ENDBRANCH   4   8
BRANCH   1  17
ATOM     17  O   UNL     1       1.869   2.970  19.466  0.00  0.00    +0.000 OA
BRANCH  17  19
ATOM     18  C   UNL     1       2.188   2.665  21.775  0.00  0.00    +0.000 C 
ATOM     19  C   UNL     1       2.804   2.677  20.408  0.00  0.00    +0.000 C 
ATOM     20  O   UNL     1       3.990   2.456  20.186  0.00  0.00    +0.000 OA
ENDBRANCH  17  19
ENDBRANCH   1  17
TORSDOF 6
ENDMDL
MODEL 7
REMARK VINA RESULT:      -6.4      2.826      5.329
REMARK  Name = 
REMARK  8 active torsions:
REMARK  status: ('A' for Active; 'I' for Inactive)
REMARK    1  A    between atoms: C_1  and  C_2
REMARK    2  A    between atoms: C_2  and  O_4
REMARK    3  A    between atoms: O_4  and  C_5
REMARK    4  A    between atoms: C_8  and  N_9
REMARK    5  A    between atoms: N_9  and  S_10
REMARK    6  A    between atoms: S_10  and  O_13
REMARK    7  A    between atoms: O_13  and  N_14
REMARK    8  A    between atoms: C_16  and  C_17
REMARK                            x       y       z     vdW  Elec       q    Type
REMARK                         _______ _______ _______ _____ _____    ______ ____
ROOT
ATOM      1  C   UNL     1       5.871   5.950  16.172  0.00  0.00    +0.000 C 
ATOM      2  C   UNL     1       4.954   6.469  17.241  0.00  0.00    +0.000 C 
ATOM      3  C   UNL     1       4.182   5.655  17.972  0.00  0.00    +0.000 C 
ATOM      4  C   UNL     1       4.130   4.174  17.775  0.00  0.00    +0.000 C 
ATOM      5  O   UNL     1       4.530   3.811  16.470  0.00  0.00    +0.000 OA
ATOM      6  C   UNL     1       5.710   4.419  15.926  0.00  0.00    +0.000 C 
ATOM      7  C   UNL     1       5.566   4.160  14.420  0.00  0.00    +0.000 C 
ENDROOT
BRANCH   4   8
ATOM      8  N   UNL     1       4.949   3.546  18.793  0.00  0.00    +0.000 NA
ATOM      9  H   UNL     1       5.297   4.222  19.473  0.00  0.00    +0.000 HD
BRANCH   8  10
ATOM     10  S   UNL     1       4.156   2.351  19.677  0.00  0.00    +0.000 S 
ATOM     11  O   UNL     1       3.379   1.566  18.740  0.00  0.00    +0.000 OA
ATOM     12  O   UNL     1       5.100   1.735  20.585  0.00  0.00    +0.000 OA
BRANCH  10  13
ATOM     13  O   UNL     1       3.078   3.225  20.583  0.00  0.00    +0.000 OA
BRANCH  13  14
ATOM     14  N   UNL     1       2.663   2.605  21.871  0.00  0.00    +0.000 NA
ATOM     15  H   UNL     1       3.475   2.851  22.444  0.00  0.00    +0.000 HD
ATOM     16  H   UNL     1       2.818   1.611  21.650  0.00  0.00    +0.000 HD
ENDBRANCH  13  14
ENDBRANCH  10  13
ENDBRANCH   8  10
ENDBRANCH   4   8
BRANCH   1  17
ATOM     17  O   UNL     1       7.234   6.200  16.598  0.00  0.00    +0.000 OA
BRANCH  17  19
ATOM     18  C   UNL     1       7.981   6.625  18.787  0.00  0.00    +0.000 C 
ATOM     19  C   UNL     1       7.634   5.599  17.750  0.00  0.00    +0.000 C 
ATOM     20  O   UNL     1       7.710   4.387  17.930  0.00  0.00    +0.000 OA
ENDBRANCH  17  19
ENDBRANCH   1  17
TORSDOF 6
ENDMDL
MODEL 8
REMARK VINA RESULT:      -6.4      1.786      2.466
REMARK  Name = 
REMARK  8 active torsions:
REMARK  status: ('A' for Active; 'I' for Inactive)
REMARK    1  A    between atoms: C_1  and  C_2
REMARK    2  A    between atoms: C_2  and  O_4
REMARK    3  A    between atoms: O_4  and  C_5
REMARK    4  A    between atoms: C_8  and  N_9
REMARK    5  A    between atoms: N_9  and  S_10
REMARK    6  A    between atoms: S_10  and  O_13
REMARK    7  A    between atoms: O_13  and  N_14
REMARK    8  A    between atoms: C_16  and  C_17
REMARK                            x       y       z     vdW  Elec       q    Type
REMARK                         _______ _______ _______ _____ _____    ______ ____
ROOT
ATOM      1  C   UNL     1       3.122   3.883  19.683  0.00  0.00    +0.000 C 
ATOM      2  C   UNL     1       3.323   5.369  19.608  0.00  0.00    +0.000 C 
ATOM      3  C   UNL     1       4.479   5.909  19.202  0.00  0.00    +0.000 C 
ATOM      4  C   UNL     1       5.679   5.099  18.824  0.00  0.00    +0.000 C 
ATOM      5  O   UNL     1       5.650   3.821  19.422  0.00  0.00    +0.000 OA
ATOM      6  C   UNL     1       4.422   3.078  19.384  0.00  0.00    +0.000 C 
ATOM      7  C   UNL     1       4.627   2.020  20.476  0.00  0.00    +0.000 C 
ENDROOT
BRANCH   4   8
ATOM      8  N   UNL     1       5.744   5.026  17.377  0.00  0.00    +0.000 NA
ATOM      9  H   UNL     1       5.139   5.716  16.933  0.00  0.00    +0.000 HD
BRANCH   8  10
ATOM     10  S   UNL     1       7.287   5.269  16.744  0.00  0.00    +0.000 S 
ATOM     11  O   UNL     1       8.093   4.127  17.120  0.00  0.00    +0.000 OA
ATOM     12  O   UNL     1       7.165   5.693  15.365  0.00  0.00    +0.000 OA
BRANCH  10  13
ATOM     13  O   UNL     1       7.840   6.560  17.624  0.00  0.00    +0.000 OA
BRANCH  13  14
ATOM     14  N   UNL     1       7.427   7.903  17.132  0.00  0.00    +0.000 NA
ATOM     15  H   UNL     1       8.306   8.409  17.270  0.00  0.00    +0.000 HD
ATOM     16  H   UNL     1       6.845   8.213  17.924  0.00  0.00    +0.000 HD
ENDBRANCH  13  14
ENDBRANCH  10  13
ENDBRANCH   8  10
ENDBRANCH   4   8
BRANCH   1  17
ATOM     17  O   UNL     1       2.127   3.521  18.692  0.00  0.00    +0.000 OA
BRANCH  17  19
ATOM     18  C   UNL     1       0.890   3.003  20.624  0.00  0.00    +0.000 C 
ATOM     19  C   UNL     1       1.036   2.844  19.141  0.00  0.00    +0.000 C 
ATOM     20  O   UNL     1       0.272   2.186  18.441  0.00  0.00    +0.000 OA
ENDBRANCH  17  19
ENDBRANCH   1  17
TORSDOF 6
ENDMDL
MODEL 9
REMARK VINA RESULT:      -6.4      2.820      5.539
REMARK  Name = 
REMARK  8 active torsions:
REMARK  status: ('A' for Active; 'I' for Inactive)
REMARK    1  A    between atoms: C_1  and  C_2
REMARK    2  A    between atoms: C_2  and  O_4
REMARK    3  A    between atoms: O_4  and  C_5
REMARK    4  A    between atoms: C_8  and  N_9
REMARK    5  A    between atoms: N_9  and  S_10
REMARK    6  A    between atoms: S_10  and  O_13
REMARK    7  A    between atoms: O_13  and  N_14
REMARK    8  A    between atoms: C_16  and  C_17
REMARK                            x       y       z     vdW  Elec       q    Type
REMARK                         _______ _______ _______ _____ _____    ______ ____
ROOT
ATOM      1  C   UNL     1       4.870   6.139  17.166  0.00  0.00    +0.000 C 
ATOM      2  C   UNL     1       3.703   6.890  17.738  0.00  0.00    +0.000 C 
ATOM      3  C   UNL     1       2.711   6.272  18.391  0.00  0.00    +0.000 C 
ATOM      4  C   UNL     1       2.649   4.789  18.581  0.00  0.00    +0.000 C 
ATOM      5  O   UNL     1       3.401   4.110  17.597  0.00  0.00    +0.000 OA
ATOM      6  C   UNL     1       4.717   4.593  17.291  0.00  0.00    +0.000 C 
ATOM      7  C   UNL     1       5.013   3.942  15.933  0.00  0.00    +0.000 C 
ENDROOT
BRANCH   4   8
ATOM      8  N   UNL     1       3.098   4.480  19.924  0.00  0.00    +0.000 NA
ATOM      9  H   UNL     1       2.668   5.089  20.619  0.00  0.00    +0.000 HD
BRANCH   8  10
ATOM     10  S   UNL     1       2.774   2.900  20.412  0.00  0.00    +0.000 S 
ATOM     11  O   UNL     1       2.702   2.902  21.858  0.00  0.00    +0.000 OA
ATOM     12  O   UNL     1       1.702   2.369  19.597  0.00  0.00    +0.000 OA
BRANCH  10  13
ATOM     13  O   UNL     1       4.167   2.101  20.001  0.00  0.00    +0.000 OA
BRANCH  13  14
ATOM     14  N   UNL     1       4.123   1.341  18.721  0.00  0.00    +0.000 NA
ATOM     15  H   UNL     1       4.242   2.116  18.063  0.00  0.00    +0.000 HD
ATOM     16  H   UNL     1       3.115   1.136  18.669  0.00  0.00    +0.000 HD
ENDBRANCH  13  14
ENDBRANCH  10  13
ENDBRANCH   8  10
ENDBRANCH   4   8
BRANCH   1  17
ATOM     17  O   UNL     1       6.055   6.538  17.899  0.00  0.00    +0.000 OA
BRANCH  17  19
ATOM     18  C   UNL     1       7.831   8.072  17.751  0.00  0.00    +0.000 C 
ATOM     19  C   UNL     1       7.145   6.877  17.160  0.00  0.00    +0.000 C 
ATOM     20  O   UNL     1       7.525   6.297  16.147  0.00  0.00    +0.000 OA
ENDBRANCH  17  19
ENDBRANCH   1  17
TORSDOF 6
ENDMDL
