MODEL 1
REMARK VINA RESULT:      -6.8      0.000      0.000
REMARK  Name = 
REMARK  9 active torsions:
REMARK  status: ('A' for Active; 'I' for Inactive)
REMARK    1  A    between atoms: C_1  and  N_2
REMARK    2  A    between atoms: C_3  and  C_5
REMARK    3  A    between atoms: C_10  and  N_11
REMARK    4  A    between atoms: N_11  and  C_12
REMARK    5  A    between atoms: N_11  and  C_13
REMARK    6  A    between atoms: N_16  and  S_17
REMARK    7  A    between atoms: S_17  and  N_20
REMARK    8  A    between atoms: N_20  and  C_21
REMARK    9  A    between atoms: N_20  and  C_22
REMARK                            x       y       z     vdW  Elec       q    Type
REMARK                         _______ _______ _______ _____ _____    ______ ____
ROOT
ATOM      1  C   UNL     1       1.114   9.179  20.675  0.00  0.00    +0.000 A 
ATOM      2  C   UNL     1       1.524   7.832  20.702  0.00  0.00    +0.000 A 
ATOM      3  C   UNL     1       2.054   7.217  19.575  0.00  0.00    +0.000 A 
ATOM      4  C   UNL     1       2.204   7.994  18.443  0.00  0.00    +0.000 A 
ATOM      5  N   UNL     1       1.837   9.304  18.405  0.00  0.00    +0.000 NA
ATOM      6  C   UNL     1       1.272   9.920  19.491  0.00  0.00    +0.000 A 
ATOM      7  C   UNL     1       2.815   7.397  17.200  0.00  0.00    +0.000 C 
ATOM      8  C   UNL     1       4.290   7.030  17.382  0.00  0.00    +0.000 C 
ATOM      9  N   UNL     1       4.564   5.735  18.133  0.00  0.00    +0.000 NA
ATOM     10  C   UNL     1       4.061   5.740  19.546  0.00  0.00    +0.000 C 
ATOM     11  C   UNL     1       2.534   5.794  19.620  0.00  0.00    +0.000 C 
ENDROOT
BRANCH   1  14
ATOM     12  C   UNL     1      -1.226  10.742  23.205  0.00  0.00    +0.000 C 
ATOM     13  N   UNL     1      -0.608  10.289  21.985  0.00  0.00    +0.000 N 
ATOM     14  C   UNL     1       0.661   9.726  21.985  0.00  0.00    +0.000 C 
ATOM     15  O   UNL     1       1.338   9.630  22.999  0.00  0.00    +0.000 OA
ATOM     16  H   UNL     1      -1.123  10.387  21.120  0.00  0.00    +0.000 HD
ENDBRANCH   1  14
BRANCH   6  17
ATOM     17  N   UNL     1       0.827  11.207  19.254  0.00  0.00    +0.000 N 
ATOM     18  C   UNL     1      -0.476  11.366  18.614  0.00  0.00    +0.000 C 
ATOM     19  C   UNL     1       1.679  12.382  19.252  0.00  0.00    +0.000 C 
ENDBRANCH   6  17
BRANCH   9  20
ATOM     20  S   UNL     1       6.260   5.415  18.058  0.00  0.00    +0.000 S 
ATOM     21  O   UNL     1       6.932   6.643  17.719  0.00  0.00    +0.000 OA
ATOM     22  O   UNL     1       6.605   4.677  19.252  0.00  0.00    +0.000 OA
BRANCH  20  23
ATOM     23  N   UNL     1       6.405   4.359  16.735  0.00  0.00    +0.000 NA
ATOM     24  C   UNL     1       5.158   3.674  16.325  0.00  0.00    +0.000 C 
ATOM     25  C   UNL     1       7.050   5.031  15.576  0.00  0.00    +0.000 C 
ENDBRANCH  20  23
ENDBRANCH   9  20
TORSDOF 4
ENDMDL
MODEL 2
REMARK VINA RESULT:      -6.6      0.912      1.210
REMARK  Name = 
REMARK  9 active torsions:
REMARK  status: ('A' for Active; 'I' for Inactive)
REMARK    1  A    between atoms: C_1  and  N_2
REMARK    2  A    between atoms: C_3  and  C_5
REMARK    3  A    between atoms: C_10  and  N_11
REMARK    4  A    between atoms: N_11  and  C_12
REMARK    5  A    between atoms: N_11  and  C_13
REMARK    6  A    between atoms: N_16  and  S_17
REMARK    7  A    between atoms: S_17  and  N_20
REMARK    8  A    between atoms: N_20  and  C_21
REMARK    9  A    between atoms: N_20  and  C_22
REMARK                            x       y       z     vdW  Elec       q    Type
REMARK                         _______ _______ _______ _____ _____    ______ ____
ROOT
ATOM      1  C   UNL     1       0.934   9.206  20.843  0.00  0.00    +0.000 A 
ATOM      2  C   UNL     1       1.277   7.843  20.936  0.00  0.00    +0.000 A 
ATOM      3  C   UNL     1       1.806   7.157  19.850  0.00  0.00    +0.000 A 
ATOM      4  C   UNL     1       2.025   7.879  18.693  0.00  0.00    +0.000 A 
ATOM      5  N   UNL     1       1.723   9.202  18.592  0.00  0.00    +0.000 NA
ATOM      6  C   UNL     1       1.160   9.889  19.636  0.00  0.00    +0.000 A 
ATOM      7  C   UNL     1       2.640   7.202  17.493  0.00  0.00    +0.000 C 
ATOM      8  C   UNL     1       4.089   6.773  17.733  0.00  0.00    +0.000 C 
ATOM      9  N   UNL     1       4.279   5.499  18.544  0.00  0.00    +0.000 NA
ATOM     10  C   UNL     1       3.739   5.587  19.940  0.00  0.00    +0.000 C 
ATOM     11  C   UNL     1       2.215   5.717  19.967  0.00  0.00    +0.000 C 
ENDROOT
BRANCH   1  14
ATOM     12  C   UNL     1      -1.374  11.031  23.223  0.00  0.00    +0.000 C 
ATOM     13  N   UNL     1      -0.744  10.492  22.044  0.00  0.00    +0.000 N 
ATOM     14  C   UNL     1       0.472   9.828  22.117  0.00  0.00    +0.000 C 
ATOM     15  O   UNL     1       1.096   9.708  23.162  0.00  0.00    +0.000 OA
ATOM     16  H   UNL     1      -1.212  10.605  21.155  0.00  0.00    +0.000 HD
ENDBRANCH   1  14
BRANCH   6  17
ATOM     17  N   UNL     1       0.784  11.185  19.334  0.00  0.00    +0.000 N 
ATOM     18  C   UNL     1      -0.460  11.374  18.595  0.00  0.00    +0.000 C 
ATOM     19  C   UNL     1       1.681  12.327  19.367  0.00  0.00    +0.000 C 
ENDBRANCH   6  17
BRANCH   9  20
ATOM     20  S   UNL     1       5.959   5.095  18.531  0.00  0.00    +0.000 S 
ATOM     21  O   UNL     1       6.517   5.463  19.808  0.00  0.00    +0.000 OA
ATOM     22  O   UNL     1       6.067   3.745  18.028  0.00  0.00    +0.000 OA
BRANCH  20  23
ATOM     23  N   UNL     1       6.608   6.141  17.359  0.00  0.00    +0.000 NA
ATOM     24  C   UNL     1       7.671   7.053  17.836  0.00  0.00    +0.000 C 
ATOM     25  C   UNL     1       7.048   5.393  16.152  0.00  0.00    +0.000 C 
ENDBRANCH  20  23
ENDBRANCH   9  20
TORSDOF 4
ENDMDL
MODEL 3
REMARK VINA RESULT:      -6.5      2.500      7.784
REMARK  Name = 
REMARK  9 active torsions:
REMARK  status: ('A' for Active; 'I' for Inactive)
REMARK    1  A    between atoms: C_1  and  N_2
REMARK    2  A    between atoms: C_3  and  C_5
REMARK    3  A    between atoms: C_10  and  N_11
REMARK    4  A    between atoms: N_11  and  C_12
REMARK    5  A    between atoms: N_11  and  C_13
REMARK    6  A    between atoms: N_16  and  S_17
REMARK    7  A    between atoms: S_17  and  N_20
REMARK    8  A    between atoms: N_20  and  C_21
REMARK    9  A    between atoms: N_20  and  C_22
REMARK                            x       y       z     vdW  Elec       q    Type
REMARK                         _______ _______ _______ _____ _____    ______ ____
ROOT
ATOM      1  C   UNL     1       4.269   6.526  17.508  0.00  0.00    +0.000 A 
ATOM      2  C   UNL     1       3.292   7.472  17.139  0.00  0.00    +0.000 A 
ATOM      3  C   UNL     1       2.279   7.842  18.016  0.00  0.00    +0.000 A 
ATOM      4  C   UNL     1       2.300   7.280  19.277  0.00  0.00    +0.000 A 
ATOM      5  N   UNL     1       3.249   6.383  19.660  0.00  0.00    +0.000 NA
ATOM      6  C   UNL     1       4.231   5.971  18.799  0.00  0.00    +0.000 A 
ATOM      7  C   UNL     1       1.254   7.675  20.290  0.00  0.00    +0.000 C 
ATOM      8  C   UNL     1       1.375   9.138  20.726  0.00  0.00    +0.000 C 
ATOM      9  N   UNL     1       0.817  10.168  19.754  0.00  0.00    +0.000 NA
ATOM     10  C   UNL     1       1.507  10.176  18.423  0.00  0.00    +0.000 C 
ATOM     11  C   UNL     1       1.268   8.886  17.637  0.00  0.00    +0.000 C 
ENDROOT
BRANCH   1  14
ATOM     12  C   UNL     1       6.122   4.862  14.660  0.00  0.00    +0.000 C 
ATOM     13  N   UNL     1       5.228   5.142  15.754  0.00  0.00    +0.000 N 
ATOM     14  C   UNL     1       5.345   6.306  16.501  0.00  0.00    +0.000 C 
ATOM     15  O   UNL     1       6.233   7.126  16.309  0.00  0.00    +0.000 OA
ATOM     16  H   UNL     1       4.503   4.470  15.967  0.00  0.00    +0.000 HD
ENDBRANCH   1  14
BRANCH   6  17
ATOM     17  N   UNL     1       5.034   4.957  19.288  0.00  0.00    +0.000 N 
ATOM     18  C   UNL     1       6.456   5.240  19.455  0.00  0.00    +0.000 C 
ATOM     19  C   UNL     1       4.663   3.553  19.305  0.00  0.00    +0.000 C 
ENDBRANCH   6  17
BRANCH   9  20
ATOM     20  S   UNL     1       0.878  11.718  20.516  0.00  0.00    +0.000 S 
ATOM     21  O   UNL     1       0.735  11.524  21.937  0.00  0.00    +0.000 OA
ATOM     22  O   UNL     1       2.018  12.416  19.966  0.00  0.00    +0.000 OA
BRANCH  20  23
ATOM     23  N   UNL     1      -0.526  12.491  19.953  0.00  0.00    +0.000 NA
ATOM     24  C   UNL     1      -0.341  13.378  18.782  0.00  0.00    +0.000 C 
ATOM     25  C   UNL     1      -1.622  11.515  19.713  0.00  0.00    +0.000 C 
ENDBRANCH  20  23
ENDBRANCH   9  20
TORSDOF 4
ENDMDL
MODEL 4
REMARK VINA RESULT:      -6.4      2.368      7.830
REMARK  Name = 
REMARK  9 active torsions:
REMARK  status: ('A' for Active; 'I' for Inactive)
REMARK    1  A    between atoms: C_1  and  N_2
REMARK    2  A    between atoms: C_3  and  C_5
REMARK    3  A    between atoms: C_10  and  N_11
REMARK    4  A    between atoms: N_11  and  C_12
REMARK    5  A    between atoms: N_11  and  C_13
REMARK    6  A    between atoms: N_16  and  S_17
REMARK    7  A    between atoms: S_17  and  N_20
REMARK    8  A    between atoms: N_20  and  C_21
REMARK    9  A    between atoms: N_20  and  C_22
REMARK                            x       y       z     vdW  Elec       q    Type
REMARK                         _______ _______ _______ _____ _____    ______ ____
ROOT
ATOM      1  C   UNL     1       4.503   6.326  17.526  0.00  0.00    +0.000 A 
ATOM      2  C   UNL     1       3.456   7.222  17.235  0.00  0.00    +0.000 A 
ATOM      3  C   UNL     1       2.401   7.411  18.120  0.00  0.00    +0.000 A 
ATOM      4  C   UNL     1       2.448   6.718  19.314  0.00  0.00    +0.000 A 
ATOM      5  N   UNL     1       3.464   5.866  19.624  0.00  0.00    +0.000 NA
ATOM      6  C   UNL     1       4.491   5.632  18.748  0.00  0.00    +0.000 A 
ATOM      7  C   UNL     1       1.356   6.914  20.337  0.00  0.00    +0.000 C 
ATOM      8  C   UNL     1       1.346   8.325  20.930  0.00  0.00    +0.000 C 
ATOM      9  N   UNL     1       0.719   9.406  20.060  0.00  0.00    +0.000 NA
ATOM     10  C   UNL     1       1.428   9.615  18.755  0.00  0.00    +0.000 C 
ATOM     11  C   UNL     1       1.312   8.403  17.829  0.00  0.00    +0.000 C 
ENDROOT
BRANCH   1  14
ATOM     12  C   UNL     1       6.584   5.091  14.616  0.00  0.00    +0.000 C 
ATOM     13  N   UNL     1       5.648   5.187  15.708  0.00  0.00    +0.000 N 
ATOM     14  C   UNL     1       5.610   6.306  16.529  0.00  0.00    +0.000 C 
ATOM     15  O   UNL     1       6.392   7.239  16.407  0.00  0.00    +0.000 OA
ATOM     16  H   UNL     1       5.010   4.418  15.864  0.00  0.00    +0.000 HD
ENDBRANCH   1  14
BRANCH   6  17
ATOM     17  N   UNL     1       5.369   4.640  19.146  0.00  0.00    +0.000 N 
ATOM     18  C   UNL     1       4.805   3.348  19.522  0.00  0.00    +0.000 C 
ATOM     19  C   UNL     1       6.740   4.878  19.562  0.00  0.00    +0.000 C 
ENDBRANCH   6  17
BRANCH   9  20
ATOM     20  S   UNL     1       0.636  10.863  20.984  0.00  0.00    +0.000 S 
ATOM     21  O   UNL     1       0.878  10.531  22.366  0.00  0.00    +0.000 OA
ATOM     22  O   UNL     1       1.443  11.846  20.298  0.00  0.00    +0.000 OA
BRANCH  20  23
ATOM     23  N   UNL     1      -0.990  11.332  20.839  0.00  0.00    +0.000 NA
ATOM     24  C   UNL     1      -1.532  12.119  21.970  0.00  0.00    +0.000 C 
ATOM     25  C   UNL     1      -1.242  12.017  19.543  0.00  0.00    +0.000 C 
ENDBRANCH  20  23
ENDBRANCH   9  20
TORSDOF 4
ENDMDL
MODEL 5
REMARK VINA RESULT:      -6.4      3.543      7.211
REMARK  Name = 
REMARK  9 active torsions:
REMARK  status: ('A' for Active; 'I' for Inactive)
REMARK    1  A    between atoms: C_1  and  N_2
REMARK    2  A    between atoms: C_3  and  C_5
REMARK    3  A    between atoms: C_10  and  N_11
REMARK    4  A    between atoms: N_11  and  C_12
REMARK    5  A    between atoms: N_11  and  C_13
REMARK    6  A    between atoms: N_16  and  S_17
REMARK    7  A    between atoms: S_17  and  N_20
REMARK    8  A    between atoms: N_20  and  C_21
REMARK    9  A    between atoms: N_20  and  C_22
REMARK                            x       y       z     vdW  Elec       q    Type
REMARK                         _______ _______ _______ _____ _____    ______ ____
ROOT
ATOM      1  C   UNL     1       1.996   5.640  19.813  0.00  0.00    +0.000 A 
ATOM      2  C   UNL     1       1.510   6.731  20.560  0.00  0.00    +0.000 A 
ATOM      3  C   UNL     1       1.577   8.029  20.069  0.00  0.00    +0.000 A 
ATOM      4  C   UNL     1       2.096   8.197  18.800  0.00  0.00    +0.000 A 
ATOM      5  N   UNL     1       2.548   7.153  18.053  0.00  0.00    +0.000 NA
ATOM      6  C   UNL     1       2.532   5.870  18.534  0.00  0.00    +0.000 A 
ATOM      7  C   UNL     1       2.154   9.576  18.192  0.00  0.00    +0.000 C 
ATOM      8  C   UNL     1       0.767  10.160  17.914  0.00  0.00    +0.000 C 
ATOM      9  N   UNL     1       0.032  10.728  19.121  0.00  0.00    +0.000 NA
ATOM     10  C   UNL     1      -0.259   9.710  20.182  0.00  0.00    +0.000 C 
ATOM     11  C   UNL     1       1.014   9.183  20.847  0.00  0.00    +0.000 C 
ENDROOT
BRANCH   1  14
ATOM     12  C   UNL     1       2.820   2.413  21.609  0.00  0.00    +0.000 C 
ATOM     13  N   UNL     1       2.904   3.653  20.880  0.00  0.00    +0.000 N 
ATOM     14  C   UNL     1       1.764   4.302  20.427  0.00  0.00    +0.000 C 
ATOM     15  O   UNL     1       0.641   3.839  20.573  0.00  0.00    +0.000 OA
ATOM     16  H   UNL     1       3.819   4.049  20.708  0.00  0.00    +0.000 HD
ENDBRANCH   1  14
BRANCH   6  17
ATOM     17  N   UNL     1       3.150   4.943  17.716  0.00  0.00    +0.000 N 
ATOM     18  C   UNL     1       4.388   5.343  17.054  0.00  0.00    +0.000 C 
ATOM     19  C   UNL     1       2.501   3.759  17.182  0.00  0.00    +0.000 C 
ENDBRANCH   6  17
BRANCH   9  20
ATOM     20  S   UNL     1      -1.409  11.500  18.562  0.00  0.00    +0.000 S 
ATOM     21  O   UNL     1      -2.332  11.578  19.666  0.00  0.00    +0.000 OA
ATOM     22  O   UNL     1      -1.003  12.684  17.840  0.00  0.00    +0.000 OA
BRANCH  20  23
ATOM     23  N   UNL     1      -2.038  10.394  17.435  0.00  0.00    +0.000 NA
ATOM     24  C   UNL     1      -3.172   9.571  17.913  0.00  0.00    +0.000 C 
ATOM     25  C   UNL     1      -2.370  11.062  16.149  0.00  0.00    +0.000 C 
ENDBRANCH  20  23
ENDBRANCH   9  20
TORSDOF 4
ENDMDL
MODEL 6
REMARK VINA RESULT:      -6.3      3.552      7.536
REMARK  Name = 
REMARK  9 active torsions:
REMARK  status: ('A' for Active; 'I' for Inactive)
REMARK    1  A    between atoms: C_1  and  N_2
REMARK    2  A    between atoms: C_3  and  C_5
REMARK    3  A    between atoms: C_10  and  N_11
REMARK    4  A    between atoms: N_11  and  C_12
REMARK    5  A    between atoms: N_11  and  C_13
REMARK    6  A    between atoms: N_16  and  S_17
REMARK    7  A    between atoms: S_17  and  N_20
REMARK    8  A    between atoms: N_20  and  C_21
REMARK    9  A    between atoms: N_20  and  C_22
REMARK                            x       y       z     vdW  Elec       q    Type
REMARK                         _______ _______ _______ _____ _____    ______ ____
ROOT
ATOM      1  C   UNL     1       2.037   5.506  19.853  0.00  0.00    +0.000 A 
ATOM      2  C   UNL     1       1.581   6.584  20.638  0.00  0.00    +0.000 A 
ATOM      3  C   UNL     1       1.650   7.893  20.175  0.00  0.00    +0.000 A 
ATOM      4  C   UNL     1       2.140   8.085  18.898  0.00  0.00    +0.000 A 
ATOM      5  N   UNL     1       2.562   7.055  18.116  0.00  0.00    +0.000 NA
ATOM      6  C   UNL     1       2.543   5.761  18.567  0.00  0.00    +0.000 A 
ATOM      7  C   UNL     1       2.198   9.478  18.320  0.00  0.00    +0.000 C 
ATOM      8  C   UNL     1       0.810  10.082  18.090  0.00  0.00    +0.000 C 
ATOM      9  N   UNL     1       0.111  10.629  19.328  0.00  0.00    +0.000 NA
ATOM     10  C   UNL     1      -0.164   9.590  20.373  0.00  0.00    +0.000 C 
ATOM     11  C   UNL     1       1.119   9.034  20.993  0.00  0.00    +0.000 C 
ENDROOT
BRANCH   1  14
ATOM     12  C   UNL     1       2.857   2.258  21.613  0.00  0.00    +0.000 C 
ATOM     13  N   UNL     1       2.943   3.511  20.905  0.00  0.00    +0.000 N 
ATOM     14  C   UNL     1       1.806   4.157  20.443  0.00  0.00    +0.000 C 
ATOM     15  O   UNL     1       0.684   3.683  20.561  0.00  0.00    +0.000 OA
ATOM     16  H   UNL     1       3.858   3.916  20.755  0.00  0.00    +0.000 HD
ENDBRANCH   1  14
BRANCH   6  17
ATOM     17  N   UNL     1       3.132   4.847  17.713  0.00  0.00    +0.000 N 
ATOM     18  C   UNL     1       4.352   5.252  17.023  0.00  0.00    +0.000 C 
ATOM     19  C   UNL     1       2.459   3.678  17.175  0.00  0.00    +0.000 C 
ENDBRANCH   6  17
BRANCH   9  20
ATOM     20  S   UNL     1      -1.335  11.428  18.823  0.00  0.00    +0.000 S 
ATOM     21  O   UNL     1      -0.964  12.528  17.968  0.00  0.00    +0.000 OA
ATOM     22  O   UNL     1      -2.249  10.405  18.371  0.00  0.00    +0.000 OA
BRANCH  20  23
ATOM     23  N   UNL     1      -1.952  12.077  20.266  0.00  0.00    +0.000 NA
ATOM     24  C   UNL     1      -1.101  13.094  20.924  0.00  0.00    +0.000 C 
ATOM     25  C   UNL     1      -3.340  12.581  20.083  0.00  0.00    +0.000 C 
ENDBRANCH  20  23
ENDBRANCH   9  20
TORSDOF 4
ENDMDL
MODEL 7
REMARK VINA RESULT:      -6.1      1.544      1.946
REMARK  Name = 
REMARK  9 active torsions:
REMARK  status: ('A' for Active; 'I' for Inactive)
REMARK    1  A    between atoms: C_1  and  N_2
REMARK    2  A    between atoms: C_3  and  C_5
REMARK    3  A    between atoms: C_10  and  N_11
REMARK    4  A    between atoms: N_11  and  C_12
REMARK    5  A    between atoms: N_11  and  C_13
REMARK    6  A    between atoms: N_16  and  S_17
REMARK    7  A    between atoms: S_17  and  N_20
REMARK    8  A    between atoms: N_20  and  C_21
REMARK    9  A    between atoms: N_20  and  C_22
REMARK                            x       y       z     vdW  Elec       q    Type
REMARK                         _______ _______ _______ _____ _____    ______ ____
ROOT
ATOM      1  C   UNL     1       1.460   8.668  20.446  0.00  0.00    +0.000 A 
ATOM      2  C   UNL     1       2.056   7.393  20.507  0.00  0.00    +0.000 A 
ATOM      3  C   UNL     1       2.571   6.782  19.370  0.00  0.00    +0.000 A 
ATOM      4  C   UNL     1       2.516   7.497  18.190  0.00  0.00    +0.000 A 
ATOM      5  N   UNL     1       1.967   8.740  18.116  0.00  0.00    +0.000 NA
ATOM      6  C   UNL     1       1.414   9.344  19.215  0.00  0.00    +0.000 A 
ATOM      7  C   UNL     1       3.099   6.908  16.929  0.00  0.00    +0.000 C 
ATOM      8  C   UNL     1       4.620   6.756  16.995  0.00  0.00    +0.000 C 
ATOM      9  N   UNL     1       5.135   5.561  17.787  0.00  0.00    +0.000 NA
ATOM     10  C   UNL     1       4.756   5.591  19.237  0.00  0.00    +0.000 C 
ATOM     11  C   UNL     1       3.248   5.444  19.447  0.00  0.00    +0.000 C 
ENDROOT
BRANCH   1  14
ATOM     12  C   UNL     1      -0.876   9.889  23.161  0.00  0.00    +0.000 C 
ATOM     13  N   UNL     1      -0.315   9.465  21.903  0.00  0.00    +0.000 N 
ATOM     14  C   UNL     1       1.045   9.233  21.761  0.00  0.00    +0.000 C 
ATOM     15  O   UNL     1       1.844   9.422  22.668  0.00  0.00    +0.000 OA
ATOM     16  H   UNL     1      -0.940   9.334  21.119  0.00  0.00    +0.000 HD
ENDBRANCH   1  14
BRANCH   6  17
ATOM     17  N   UNL     1       0.774  10.541  18.951  0.00  0.00    +0.000 N 
ATOM     18  C   UNL     1       1.430  11.770  19.387  0.00  0.00    +0.000 C 
ATOM     19  C   UNL     1      -0.632  10.661  18.611  0.00  0.00    +0.000 C 
ENDBRANCH   6  17
BRANCH   9  20
ATOM     20  S   UNL     1       6.847   5.469  17.574  0.00  0.00    +0.000 S 
ATOM     21  O   UNL     1       7.257   4.111  17.830  0.00  0.00    +0.000 OA
ATOM     22  O   UNL     1       7.154   6.120  16.322  0.00  0.00    +0.000 OA
BRANCH  20  23
ATOM     23  N   UNL     1       7.454   6.441  18.828  0.00  0.00    +0.000 NA
ATOM     24  C   UNL     1       8.263   5.736  19.848  0.00  0.00    +0.000 C 
ATOM     25  C   UNL     1       8.182   7.622  18.293  0.00  0.00    +0.000 C 
ENDBRANCH  20  23
ENDBRANCH   9  20
TORSDOF 4
ENDMDL
MODEL 8
REMARK VINA RESULT:      -6.0      3.449      7.448
REMARK  Name = 
REMARK  9 active torsions:
REMARK  status: ('A' for Active; 'I' for Inactive)
REMARK    1  A    between atoms: C_1  and  N_2
REMARK    2  A    between atoms: C_3  and  C_5
REMARK    3  A    between atoms: C_10  and  N_11
REMARK    4  A    between atoms: N_11  and  C_12
REMARK    5  A    between atoms: N_11  and  C_13
REMARK    6  A    between atoms: N_16  and  S_17
REMARK    7  A    between atoms: S_17  and  N_20
REMARK    8  A    between atoms: N_20  and  C_21
REMARK    9  A    between atoms: N_20  and  C_22
REMARK                            x       y       z     vdW  Elec       q    Type
REMARK                         _______ _______ _______ _____ _____    ______ ____
ROOT
ATOM      1  C   UNL     1       2.522   5.781  19.723  0.00  0.00    +0.000 A 
ATOM      2  C   UNL     1       1.975   6.842  20.472  0.00  0.00    +0.000 A 
ATOM      3  C   UNL     1       1.820   8.108  19.922  0.00  0.00    +0.000 A 
ATOM      4  C   UNL     1       2.181   8.270  18.598  0.00  0.00    +0.000 A 
ATOM      5  N   UNL     1       2.688   7.252  17.852  0.00  0.00    +0.000 NA
ATOM      6  C   UNL     1       2.890   6.006  18.385  0.00  0.00    +0.000 A 
ATOM      7  C   UNL     1       1.995   9.609  17.930  0.00  0.00    +0.000 C 
ATOM      8  C   UNL     1       0.522   9.997  17.779  0.00  0.00    +0.000 C 
ATOM      9  N   UNL     1      -0.155  10.534  19.033  0.00  0.00    +0.000 NA
ATOM     10  C   UNL     1      -0.200   9.548  20.162  0.00  0.00    +0.000 C 
ATOM     11  C   UNL     1       1.192   9.224  20.707  0.00  0.00    +0.000 C 
ENDROOT
BRANCH   1  14
ATOM     12  C   UNL     1       1.133   2.710  21.443  0.00  0.00    +0.000 C 
ATOM     13  N   UNL     1       1.297   4.022  20.870  0.00  0.00    +0.000 N 
ATOM     14  C   UNL     1       2.532   4.461  20.415  0.00  0.00    +0.000 C 
ATOM     15  O   UNL     1       3.550   3.790  20.520  0.00  0.00    +0.000 OA
ATOM     16  H   UNL     1       0.485   4.621  20.800  0.00  0.00    +0.000 HD
ENDBRANCH   1  14
BRANCH   6  17
ATOM     17  N   UNL     1       3.539   5.120  17.545  0.00  0.00    +0.000 N 
ATOM     18  C   UNL     1       2.815   3.920  17.137  0.00  0.00    +0.000 C 
ATOM     19  C   UNL     1       4.974   5.097  17.330  0.00  0.00    +0.000 C 
ENDBRANCH   6  17
BRANCH   9  20
ATOM     20  S   UNL     1      -1.735  11.084  18.601  0.00  0.00    +0.000 S 
ATOM     21  O   UNL     1      -1.600  12.027  17.519  0.00  0.00    +0.000 OA
ATOM     22  O   UNL     1      -2.572   9.914  18.474  0.00  0.00    +0.000 OA
BRANCH  20  23
ATOM     23  N   UNL     1      -2.244  11.941  19.977  0.00  0.00    +0.000 NA
ATOM     24  C   UNL     1      -1.377  13.070  20.384  0.00  0.00    +0.000 C 
ATOM     25  C   UNL     1      -3.660  12.377  19.849  0.00  0.00    +0.000 C 
ENDBRANCH  20  23
ENDBRANCH   9  20
TORSDOF 4
ENDMDL
MODEL 9
REMARK VINA RESULT:      -5.9      2.964      3.953
REMARK  Name = 
REMARK  9 active torsions:
REMARK  status: ('A' for Active; 'I' for Inactive)
REMARK    1  A    between atoms: C_1  and  N_2
REMARK    2  A    between atoms: C_3  and  C_5
REMARK    3  A    between atoms: C_10  and  N_11
REMARK    4  A    between atoms: N_11  and  C_12
REMARK    5  A    between atoms: N_11  and  C_13
REMARK    6  A    between atoms: N_16  and  S_17
REMARK    7  A    between atoms: S_17  and  N_20
REMARK    8  A    between atoms: N_20  and  C_21
REMARK    9  A    between atoms: N_20  and  C_22
REMARK                            x       y       z     vdW  Elec       q    Type
REMARK                         _______ _______ _______ _____ _____    ______ ____
ROOT
ATOM      1  C   UNL     1       0.344  10.124  19.383  0.00  0.00    +0.000 A 
ATOM      2  C   UNL     1       1.130   9.315  18.539  0.00  0.00    +0.000 A 
ATOM      3  C   UNL     1       1.851   8.238  19.039  0.00  0.00    +0.000 A 
ATOM      4  C   UNL     1       1.727   7.968  20.388  0.00  0.00    +0.000 A 
ATOM      5  N   UNL     1       0.953   8.722  21.215  0.00  0.00    +0.000 NA
ATOM      6  C   UNL     1       0.268   9.815  20.752  0.00  0.00    +0.000 A 
ATOM      7  C   UNL     1       2.449   6.784  20.984  0.00  0.00    +0.000 C 
ATOM      8  C   UNL     1       1.919   5.445  20.467  0.00  0.00    +0.000 C 
ATOM      9  N   UNL     1       2.396   5.033  19.081  0.00  0.00    +0.000 NA
ATOM     10  C   UNL     1       1.981   5.979  17.995  0.00  0.00    +0.000 C 
ATOM     11  C   UNL     1       2.649   7.349  18.130  0.00  0.00    +0.000 C 
ENDROOT
BRANCH   1  14
ATOM     12  C   UNL     1      -2.670  11.778  17.801  0.00  0.00    +0.000 C 
ATOM     13  N   UNL     1      -1.749  10.821  18.360  0.00  0.00    +0.000 N 
ATOM     14  C   UNL     1      -0.449  11.177  18.687  0.00  0.00    +0.000 C 
ATOM     15  O   UNL     1       0.001  12.295  18.474  0.00  0.00    +0.000 OA
ATOM     16  H   UNL     1      -2.074   9.875  18.517  0.00  0.00    +0.000 HD
ENDBRANCH   1  14
BRANCH   6  17
ATOM     17  N   UNL     1      -0.359  10.558  21.735  0.00  0.00    +0.000 N 
ATOM     18  C   UNL     1      -0.170  12.005  21.714  0.00  0.00    +0.000 C 
ATOM     19  C   UNL     1      -0.879  10.006  22.974  0.00  0.00    +0.000 C 
ENDBRANCH   6  17
BRANCH   9  20
ATOM     20  S   UNL     1       1.843   3.425  18.775  0.00  0.00    +0.000 S 
ATOM     21  O   UNL     1       1.242   2.920  19.984  0.00  0.00    +0.000 OA
ATOM     22  O   UNL     1       1.108   3.459  17.531  0.00  0.00    +0.000 OA
BRANCH  20  23
ATOM     23  N   UNL     1       3.279   2.557  18.506  0.00  0.00    +0.000 NA
ATOM     24  C   UNL     1       4.176   3.114  17.469  0.00  0.00    +0.000 C 
ATOM     25  C   UNL     1       4.014   2.321  19.777  0.00  0.00    +0.000 C 
ENDBRANCH  20  23
ENDBRANCH   9  20
TORSDOF 4
ENDMDL
