MODEL 1
REMARK VINA RESULT:      -5.7      0.000      0.000
REMARK  Name = 
REMARK  1 active torsions:
REMARK  status: ('A' for Active; 'I' for Inactive)
REMARK    1  A    between atoms: C_1  and  C_2
REMARK                            x       y       z     vdW  Elec       q    Type
REMARK                         _______ _______ _______ _____ _____    ______ ____
ROOT
ATOM      1  C   UNL     1       6.339   3.964  13.581  0.00  0.00    +0.000 C 
ATOM      2  C   UNL     1       6.308   4.184  15.046  0.00  0.00    +0.000 A 
ATOM      3  N   UNL     1       5.304   3.920  15.860  0.00  0.00    +0.000 NA
ATOM      4  C   UNL     1       5.738   4.287  17.110  0.00  0.00    +0.000 A 
ATOM      5  C   UNL     1       5.080   4.232  18.394  0.00  0.00    +0.000 A 
ATOM      6  S   UNL     1       3.535   3.653  18.551  0.00  0.00    +0.000 S 
ATOM      7  N   UNL     1       5.837   4.695  19.463  0.00  0.00    +0.000 N 
ATOM      8  N   UNL     1       7.137   5.191  19.381  0.00  0.00    +0.000 NA
ATOM      9  C   UNL     1       7.708   5.229  18.209  0.00  0.00    +0.000 A 
ATOM     10  C   UNL     1       7.019   4.778  17.048  0.00  0.00    +0.000 A 
ATOM     11  N   UNL     1       7.380   4.711  15.735  0.00  0.00    +0.000 N 
ATOM     12  H   UNL     1       5.424   4.680  20.391  0.00  0.00    +0.000 HD
ATOM     13  H   UNL     1       8.262   4.991  15.328  0.00  0.00    +0.000 HD
ENDROOT
TORSDOF 0
ENDMDL
MODEL 2
REMARK VINA RESULT:      -5.4      2.001      3.946
REMARK  Name = 
REMARK  1 active torsions:
REMARK  status: ('A' for Active; 'I' for Inactive)
REMARK    1  A    between atoms: C_1  and  C_2
REMARK                            x       y       z     vdW  Elec       q    Type
REMARK                         _______ _______ _______ _____ _____    ______ ____
ROOT
ATOM      1  C   UNL     1       4.067   2.754  19.763  0.00  0.00    +0.000 C 
ATOM      2  C   UNL     1       4.847   3.507  18.754  0.00  0.00    +0.000 A 
ATOM      3  N   UNL     1       5.736   4.452  18.993  0.00  0.00    +0.000 NA
ATOM      4  C   UNL     1       6.190   4.850  17.760  0.00  0.00    +0.000 A 
ATOM      5  C   UNL     1       7.167   5.846  17.387  0.00  0.00    +0.000 A 
ATOM      6  S   UNL     1       7.962   6.748  18.527  0.00  0.00    +0.000 S 
ATOM      7  N   UNL     1       7.378   5.980  16.020  0.00  0.00    +0.000 N 
ATOM      8  N   UNL     1       6.734   5.246  15.025  0.00  0.00    +0.000 NA
ATOM      9  C   UNL     1       5.857   4.352  15.389  0.00  0.00    +0.000 A 
ATOM     10  C   UNL     1       5.567   4.135  16.766  0.00  0.00    +0.000 A 
ATOM     11  N   UNL     1       4.713   3.283  17.400  0.00  0.00    +0.000 N 
ATOM     12  H   UNL     1       8.054   6.667  15.700  0.00  0.00    +0.000 HD
ATOM     13  H   UNL     1       4.093   2.607  16.974  0.00  0.00    +0.000 HD
ENDROOT
TORSDOF 0
ENDMDL
MODEL 3
REMARK VINA RESULT:      -5.3      2.302      3.627
REMARK  Name = 
REMARK  1 active torsions:
REMARK  status: ('A' for Active; 'I' for Inactive)
REMARK    1  A    between atoms: C_1  and  C_2
REMARK                            x       y       z     vdW  Elec       q    Type
REMARK                         _______ _______ _______ _____ _____    ______ ____
ROOT
ATOM      1  C   UNL     1       2.466   4.075  18.253  0.00  0.00    +0.000 C 
ATOM      2  C   UNL     1       3.723   4.574  17.649  0.00  0.00    +0.000 A 
ATOM      3  N   UNL     1       4.247   4.195  16.499  0.00  0.00    +0.000 NA
ATOM      4  C   UNL     1       5.400   4.927  16.362  0.00  0.00    +0.000 A 
ATOM      5  C   UNL     1       6.390   4.946  15.310  0.00  0.00    +0.000 A 
ATOM      6  S   UNL     1       6.252   3.975  13.975  0.00  0.00    +0.000 S 
ATOM      7  N   UNL     1       7.445   5.828  15.511  0.00  0.00    +0.000 N 
ATOM      8  N   UNL     1       7.604   6.662  16.616  0.00  0.00    +0.000 NA
ATOM      9  C   UNL     1       6.695   6.627  17.552  0.00  0.00    +0.000 A 
ATOM     10  C   UNL     1       5.573   5.756  17.443  0.00  0.00    +0.000 A 
ATOM     11  N   UNL     1       4.506   5.530  18.260  0.00  0.00    +0.000 N 
ATOM     12  H   UNL     1       8.171   5.883  14.804  0.00  0.00    +0.000 HD
ATOM     13  H   UNL     1       4.311   5.972  19.148  0.00  0.00    +0.000 HD
ENDROOT
TORSDOF 0
ENDMDL
MODEL 4
REMARK VINA RESULT:      -5.3      2.189      3.442
REMARK  Name = 
REMARK  1 active torsions:
REMARK  status: ('A' for Active; 'I' for Inactive)
REMARK    1  A    between atoms: C_1  and  C_2
REMARK                            x       y       z     vdW  Elec       q    Type
REMARK                         _______ _______ _______ _____ _____    ______ ____
ROOT
ATOM      1  C   UNL     1       1.722   3.848  17.954  0.00  0.00    +0.000 C 
ATOM      2  C   UNL     1       3.179   4.066  17.795  0.00  0.00    +0.000 A 
ATOM      3  N   UNL     1       3.866   3.997  16.671  0.00  0.00    +0.000 NA
ATOM      4  C   UNL     1       5.165   4.272  17.017  0.00  0.00    +0.000 A 
ATOM      5  C   UNL     1       6.364   4.343  16.214  0.00  0.00    +0.000 A 
ATOM      6  S   UNL     1       6.329   4.070  14.581  0.00  0.00    +0.000 S 
ATOM      7  N   UNL     1       7.523   4.653  16.915  0.00  0.00    +0.000 N 
ATOM      8  N   UNL     1       7.602   4.891  18.286  0.00  0.00    +0.000 NA
ATOM      9  C   UNL     1       6.505   4.821  18.988  0.00  0.00    +0.000 A 
ATOM     10  C   UNL     1       5.262   4.510  18.366  0.00  0.00    +0.000 A 
ATOM     11  N   UNL     1       3.998   4.378  18.859  0.00  0.00    +0.000 N 
ATOM     12  H   UNL     1       8.397   4.716  16.401  0.00  0.00    +0.000 HD
ATOM     13  H   UNL     1       3.701   4.486  19.819  0.00  0.00    +0.000 HD
ENDROOT
TORSDOF 0
ENDMDL
MODEL 5
REMARK VINA RESULT:      -5.3      1.592      3.323
REMARK  Name = 
REMARK  1 active torsions:
REMARK  status: ('A' for Active; 'I' for Inactive)
REMARK    1  A    between atoms: C_1  and  C_2
REMARK                            x       y       z     vdW  Elec       q    Type
REMARK                         _______ _______ _______ _____ _____    ______ ____
ROOT
ATOM      1  C   UNL     1       8.088   8.414  17.969  0.00  0.00    +0.000 C 
ATOM      2  C   UNL     1       7.433   7.153  17.550  0.00  0.00    +0.000 A 
ATOM      3  N   UNL     1       6.596   6.426  18.266  0.00  0.00    +0.000 NA
ATOM      4  C   UNL     1       6.256   5.363  17.467  0.00  0.00    +0.000 A 
ATOM      5  C   UNL     1       5.378   4.241  17.707  0.00  0.00    +0.000 A 
ATOM      6  S   UNL     1       4.571   4.066  19.143  0.00  0.00    +0.000 S 
ATOM      7  N   UNL     1       5.271   3.342  16.653  0.00  0.00    +0.000 N 
ATOM      8  N   UNL     1       5.930   3.447  15.428  0.00  0.00    +0.000 NA
ATOM      9  C   UNL     1       6.716   4.470  15.237  0.00  0.00    +0.000 A 
ATOM     10  C   UNL     1       6.896   5.450  16.255  0.00  0.00    +0.000 A 
ATOM     11  N   UNL     1       7.643   6.589  16.310  0.00  0.00    +0.000 N 
ATOM     12  H   UNL     1       4.668   2.534  16.765  0.00  0.00    +0.000 HD
ATOM     13  H   UNL     1       8.243   6.962  15.587  0.00  0.00    +0.000 HD
ENDROOT
TORSDOF 0
ENDMDL
MODEL 6
REMARK VINA RESULT:      -5.1      2.970      4.312
REMARK  Name = 
REMARK  1 active torsions:
REMARK  status: ('A' for Active; 'I' for Inactive)
REMARK    1  A    between atoms: C_1  and  C_2
REMARK                            x       y       z     vdW  Elec       q    Type
REMARK                         _______ _______ _______ _____ _____    ______ ____
ROOT
ATOM      1  C   UNL     1       2.421   8.252  17.810  0.00  0.00    +0.000 C 
ATOM      2  C   UNL     1       3.088   6.981  18.179  0.00  0.00    +0.000 A 
ATOM      3  N   UNL     1       4.296   6.594  17.816  0.00  0.00    +0.000 NA
ATOM      4  C   UNL     1       4.475   5.362  18.395  0.00  0.00    +0.000 A 
ATOM      5  C   UNL     1       5.597   4.452  18.356  0.00  0.00    +0.000 A 
ATOM      6  S   UNL     1       6.975   4.813  17.510  0.00  0.00    +0.000 S 
ATOM      7  N   UNL     1       5.424   3.275  19.073  0.00  0.00    +0.000 N 
ATOM      8  N   UNL     1       4.285   2.927  19.798  0.00  0.00    +0.000 NA
ATOM      9  C   UNL     1       3.287   3.766  19.817  0.00  0.00    +0.000 A 
ATOM     10  C   UNL     1       3.362   5.003  19.115  0.00  0.00    +0.000 A 
ATOM     11  N   UNL     1       2.482   6.034  18.976  0.00  0.00    +0.000 N 
ATOM     12  H   UNL     1       6.180   2.597  19.080  0.00  0.00    +0.000 HD
ATOM     13  H   UNL     1       1.555   6.106  19.375  0.00  0.00    +0.000 HD
ENDROOT
TORSDOF 0
ENDMDL
MODEL 7
REMARK VINA RESULT:      -5.1      2.620      3.870
REMARK  Name = 
REMARK  1 active torsions:
REMARK  status: ('A' for Active; 'I' for Inactive)
REMARK    1  A    between atoms: C_1  and  C_2
REMARK                            x       y       z     vdW  Elec       q    Type
REMARK                         _______ _______ _______ _____ _____    ______ ____
ROOT
ATOM      1  C   UNL     1       7.576   4.711  17.752  0.00  0.00    +0.000 C 
ATOM      2  C   UNL     1       6.095   4.658  17.745  0.00  0.00    +0.000 A 
ATOM      3  N   UNL     1       5.272   5.660  17.987  0.00  0.00    +0.000 NA
ATOM      4  C   UNL     1       4.009   5.135  17.867  0.00  0.00    +0.000 A 
ATOM      5  C   UNL     1       2.710   5.749  18.017  0.00  0.00    +0.000 A 
ATOM      6  S   UNL     1       2.550   7.353  18.400  0.00  0.00    +0.000 S 
ATOM      7  N   UNL     1       1.631   4.897  17.816  0.00  0.00    +0.000 N 
ATOM      8  N   UNL     1       1.715   3.544  17.494  0.00  0.00    +0.000 NA
ATOM      9  C   UNL     1       2.900   3.014  17.363  0.00  0.00    +0.000 A 
ATOM     10  C   UNL     1       4.073   3.801  17.548  0.00  0.00    +0.000 A 
ATOM     11  N   UNL     1       5.400   3.500  17.471  0.00  0.00    +0.000 N 
ATOM     12  H   UNL     1       0.693   5.275  17.910  0.00  0.00    +0.000 HD
ATOM     13  H   UNL     1       5.813   2.602  17.255  0.00  0.00    +0.000 HD
ENDROOT
TORSDOF 0
ENDMDL
MODEL 8
REMARK VINA RESULT:      -5.1      2.919      4.187
REMARK  Name = 
REMARK  1 active torsions:
REMARK  status: ('A' for Active; 'I' for Inactive)
REMARK    1  A    between atoms: C_1  and  C_2
REMARK                            x       y       z     vdW  Elec       q    Type
REMARK                         _______ _______ _______ _____ _____    ______ ____
ROOT
ATOM      1  C   UNL     1       7.174   5.631  18.755  0.00  0.00    +0.000 C 
ATOM      2  C   UNL     1       5.888   4.923  18.953  0.00  0.00    +0.000 A 
ATOM      3  N   UNL     1       4.783   5.429  19.468  0.00  0.00    +0.000 NA
ATOM      4  C   UNL     1       3.867   4.407  19.448  0.00  0.00    +0.000 A 
ATOM      5  C   UNL     1       2.489   4.363  19.879  0.00  0.00    +0.000 A 
ATOM      6  S   UNL     1       1.744   5.690  20.534  0.00  0.00    +0.000 S 
ATOM      7  N   UNL     1       1.857   3.138  19.703  0.00  0.00    +0.000 N 
ATOM      8  N   UNL     1       2.441   1.995  19.159  0.00  0.00    +0.000 NA
ATOM      9  C   UNL     1       3.687   2.062  18.777  0.00  0.00    +0.000 A 
ATOM     10  C   UNL     1       4.426   3.272  18.913  0.00  0.00    +0.000 A 
ATOM     11  N   UNL     1       5.710   3.602  18.599  0.00  0.00    +0.000 N 
ATOM     12  H   UNL     1       0.887   3.048  19.990  0.00  0.00    +0.000 HD
ATOM     13  H   UNL     1       6.412   3.004  18.186  0.00  0.00    +0.000 HD
ENDROOT
TORSDOF 0
ENDMDL
MODEL 9
REMARK VINA RESULT:      -5.1      1.828      2.499
REMARK  Name = 
REMARK  1 active torsions:
REMARK  status: ('A' for Active; 'I' for Inactive)
REMARK    1  A    between atoms: C_1  and  C_2
REMARK                            x       y       z     vdW  Elec       q    Type
REMARK                         _______ _______ _______ _____ _____    ______ ____
ROOT
ATOM      1  C   UNL     1       7.438   5.035  13.352  0.00  0.00    +0.000 C 
ATOM      2  C   UNL     1       6.900   4.819  14.715  0.00  0.00    +0.000 A 
ATOM      3  N   UNL     1       7.412   5.272  15.844  0.00  0.00    +0.000 NA
ATOM      4  C   UNL     1       6.576   4.820  16.834  0.00  0.00    +0.000 A 
ATOM      5  C   UNL     1       6.622   4.999  18.267  0.00  0.00    +0.000 A 
ATOM      6  S   UNL     1       7.830   5.871  18.992  0.00  0.00    +0.000 S 
ATOM      7  N   UNL     1       5.590   4.389  18.969  0.00  0.00    +0.000 N 
ATOM      8  N   UNL     1       4.554   3.646  18.404  0.00  0.00    +0.000 NA
ATOM      9  C   UNL     1       4.535   3.501  17.108  0.00  0.00    +0.000 A 
ATOM     10  C   UNL     1       5.547   4.087  16.296  0.00  0.00    +0.000 A 
ATOM     11  N   UNL     1       5.756   4.087  14.949  0.00  0.00    +0.000 N 
ATOM     12  H   UNL     1       5.572   4.481  19.980  0.00  0.00    +0.000 HD
ATOM     13  H   UNL     1       5.188   3.640  14.241  0.00  0.00    +0.000 HD
ENDROOT
TORSDOF 0
ENDMDL
