MODEL 1
REMARK VINA RESULT:      -8.5      0.000      0.000
REMARK  Name = 
REMARK  8 active torsions:
REMARK  status: ('A' for Active; 'I' for Inactive)
REMARK    1  A    between atoms: O_1  and  C_2
REMARK    2  A    between atoms: C_2  and  C_3
REMARK    3  A    between atoms: C_5  and  O_6
REMARK    4  A    between atoms: O_6  and  C_7
REMARK    5  A    between atoms: C_10  and  N_11
REMARK    6  A    between atoms: C_23  and  O_24
REMARK    7  A    between atoms: C_25  and  O_26
REMARK    8  A    between atoms: C_27  and  O_28
REMARK                            x       y       z     vdW  Elec       q    Type
REMARK                         _______ _______ _______ _____ _____    ______ ____
ROOT
ATOM      1  O   UNL     1       2.832   6.358  19.129  0.00  0.00    +0.000 OA
ENDROOT
BRANCH   1   2
ATOM      2  C   UNL     1       2.207   7.570  19.146  0.00  0.00    +0.000 A 
ATOM      3  C   UNL     1       2.323   8.325  17.980  0.00  0.00    +0.000 A 
ATOM      4  C   UNL     1       1.736   9.592  17.890  0.00  0.00    +0.000 A 
ATOM      5  C   UNL     1       1.020  10.120  18.972  0.00  0.00    +0.000 A 
ATOM      6  C   UNL     1       0.940   9.377  20.158  0.00  0.00    +0.000 A 
ATOM      7  C   UNL     1       1.538   8.123  20.238  0.00  0.00    +0.000 A 
ATOM      8  F   UNL     1       1.474   7.467  21.406  0.00  0.00    +0.000 F 
BRANCH   5   9
ATOM      9  N   UNL     1       0.422  11.416  18.905  0.00  0.00    +0.000 N 
ATOM     10  C   UNL     1      -0.944  11.638  18.950  0.00  0.00    +0.000 A 
ATOM     11  C   UNL     1      -1.183  12.990  18.982  0.00  0.00    +0.000 A 
ATOM     12  C   UNL     1       0.066  13.646  18.888  0.00  0.00    +0.000 A 
ATOM     13  C   UNL     1       0.432  15.008  18.845  0.00  0.00    +0.000 A 
ATOM     14  C   UNL     1       1.774  15.363  18.688  0.00  0.00    +0.000 A 
ATOM     15  C   UNL     1       2.744  14.379  18.550  0.00  0.00    +0.000 A 
ATOM     16  C   UNL     1       2.406  13.023  18.589  0.00  0.00    +0.000 A 
ATOM     17  C   UNL     1       1.059  12.658  18.802  0.00  0.00    +0.000 A 
ENDBRANCH   5   9
ENDBRANCH   1   2
BRANCH   1  20
ATOM     18  C   UNL     1       4.804   4.578  18.194  0.00  0.00    +0.000 C 
ATOM     19  O   UNL     1       3.851   5.218  17.327  0.00  0.00    +0.000 OA
ATOM     20  C   UNL     1       2.608   5.531  17.986  0.00  0.00    +0.000 C 
ATOM     21  C   UNL     1       1.943   4.201  18.389  0.00  0.00    +0.000 C 
ATOM     22  C   UNL     1       2.875   3.425  19.330  0.00  0.00    +0.000 C 
ATOM     23  C   UNL     1       4.264   3.229  18.690  0.00  0.00    +0.000 C 
BRANCH  21  24
ATOM     24  O   UNL     1       1.685   3.377  17.229  0.00  0.00    +0.000 OA
ATOM     25  H   UNL     1       1.472   3.980  16.490  0.00  0.00    +0.000 HD
ENDBRANCH  21  24
BRANCH  22  26
ATOM     26  O   UNL     1       2.299   2.147  19.640  0.00  0.00    +0.000 OA
ATOM     27  H   UNL     1       2.078   1.734  18.782  0.00  0.00    +0.000 HD
ENDBRANCH  22  26
BRANCH  23  28
ATOM     28  O   UNL     1       5.192   2.634  19.603  0.00  0.00    +0.000 OA
ATOM     29  H   UNL     1       4.784   1.831  19.975  0.00  0.00    +0.000 HD
ENDBRANCH  23  28
BRANCH  18  30
ATOM     30  C   UNL     1       6.116   4.393  17.419  0.00  0.00    +0.000 C 
BRANCH  30  31
ATOM     31  O   UNL     1       7.202   4.236  18.335  0.00  0.00    +0.000 OA
ATOM     32  H   UNL     1       6.850   4.406  19.222  0.00  0.00    +0.000 HD
ENDBRANCH  30  31
ENDBRANCH  18  30
ENDBRANCH   1  20
TORSDOF 8
ENDMDL
MODEL 2
REMARK VINA RESULT:      -8.3      0.919      1.299
REMARK  Name = 
REMARK  8 active torsions:
REMARK  status: ('A' for Active; 'I' for Inactive)
REMARK    1  A    between atoms: O_1  and  C_2
REMARK    2  A    between atoms: C_2  and  C_3
REMARK    3  A    between atoms: C_5  and  O_6
REMARK    4  A    between atoms: O_6  and  C_7
REMARK    5  A    between atoms: C_10  and  N_11
REMARK    6  A    between atoms: C_23  and  O_24
REMARK    7  A    between atoms: C_25  and  O_26
REMARK    8  A    between atoms: C_27  and  O_28
REMARK                            x       y       z     vdW  Elec       q    Type
REMARK                         _______ _______ _______ _____ _____    ______ ____
ROOT
ATOM      1  O   UNL     1       3.329   6.317  19.179  0.00  0.00    +0.000 OA
ENDROOT
BRANCH   1   2
ATOM      2  C   UNL     1       2.552   7.436  19.121  0.00  0.00    +0.000 A 
ATOM      3  C   UNL     1       2.678   8.198  17.961  0.00  0.00    +0.000 A 
ATOM      4  C   UNL     1       1.941   9.377  17.799  0.00  0.00    +0.000 A 
ATOM      5  C   UNL     1       1.062   9.807  18.802  0.00  0.00    +0.000 A 
ATOM      6  C   UNL     1       0.969   9.061  19.986  0.00  0.00    +0.000 A 
ATOM      7  C   UNL     1       1.716   7.897  20.138  0.00  0.00    +0.000 A 
ATOM      8  F   UNL     1       1.628   7.239  21.304  0.00  0.00    +0.000 F 
BRANCH   5   9
ATOM      9  N   UNL     1       0.309  11.013  18.662  0.00  0.00    +0.000 N 
ATOM     10  C   UNL     1      -1.054  11.047  18.424  0.00  0.00    +0.000 A 
ATOM     11  C   UNL     1      -1.489  12.349  18.459  0.00  0.00    +0.000 A 
ATOM     12  C   UNL     1      -0.356  13.171  18.661  0.00  0.00    +0.000 A 
ATOM     13  C   UNL     1      -0.191  14.569  18.752  0.00  0.00    +0.000 A 
ATOM     14  C   UNL     1       1.087  15.110  18.900  0.00  0.00    +0.000 A 
ATOM     15  C   UNL     1       2.198  14.277  18.933  0.00  0.00    +0.000 A 
ATOM     16  C   UNL     1       2.060  12.889  18.843  0.00  0.00    +0.000 A 
ATOM     17  C   UNL     1       0.766  12.333  18.748  0.00  0.00    +0.000 A 
ENDBRANCH   5   9
ENDBRANCH   1   2
BRANCH   1  20
ATOM     18  C   UNL     1       5.279   5.459  17.338  0.00  0.00    +0.000 C 
ATOM     19  O   UNL     1       3.870   5.447  17.049  0.00  0.00    +0.000 OA
ATOM     20  C   UNL     1       3.054   5.288  18.226  0.00  0.00    +0.000 C 
ATOM     21  C   UNL     1       3.347   3.896  18.817  0.00  0.00    +0.000 C 
ATOM     22  C   UNL     1       4.838   3.792  19.172  0.00  0.00    +0.000 C 
ATOM     23  C   UNL     1       5.719   4.122  17.951  0.00  0.00    +0.000 C 
BRANCH  21  24
ATOM     24  O   UNL     1       3.038   2.852  17.866  0.00  0.00    +0.000 OA
ATOM     25  H   UNL     1       3.779   2.813  17.230  0.00  0.00    +0.000 HD
ENDBRANCH  21  24
BRANCH  22  26
ATOM     26  O   UNL     1       5.135   2.469  19.643  0.00  0.00    +0.000 OA
ATOM     27  H   UNL     1       4.476   2.275  20.339  0.00  0.00    +0.000 HD
ENDBRANCH  22  26
BRANCH  23  28
ATOM     28  O   UNL     1       7.107   4.171  18.294  0.00  0.00    +0.000 OA
ATOM     29  H   UNL     1       7.467   5.025  17.995  0.00  0.00    +0.000 HD
ENDBRANCH  23  28
BRANCH  18  30
ATOM     30  C   UNL     1       6.038   5.741  16.033  0.00  0.00    +0.000 C 
BRANCH  30  31
ATOM     31  O   UNL     1       7.351   6.223  16.330  0.00  0.00    +0.000 OA
ATOM     32  H   UNL     1       7.291   6.703  17.170  0.00  0.00    +0.000 HD
ENDBRANCH  30  31
ENDBRANCH  18  30
ENDBRANCH   1  20
TORSDOF 8
ENDMDL
MODEL 3
REMARK VINA RESULT:      -8.3      2.659      3.542
REMARK  Name = 
REMARK  8 active torsions:
REMARK  status: ('A' for Active; 'I' for Inactive)
REMARK    1  A    between atoms: O_1  and  C_2
REMARK    2  A    between atoms: C_2  and  C_3
REMARK    3  A    between atoms: C_5  and  O_6
REMARK    4  A    between atoms: O_6  and  C_7
REMARK    5  A    between atoms: C_10  and  N_11
REMARK    6  A    between atoms: C_23  and  O_24
REMARK    7  A    between atoms: C_25  and  O_26
REMARK    8  A    between atoms: C_27  and  O_28
REMARK                            x       y       z     vdW  Elec       q    Type
REMARK                         _______ _______ _______ _____ _____    ______ ____
ROOT
ATOM      1  O   UNL     1       3.994   6.053  17.789  0.00  0.00    +0.000 OA
ENDROOT
BRANCH   1   2
ATOM      2  C   UNL     1       3.125   6.946  18.343  0.00  0.00    +0.000 A 
ATOM      3  C   UNL     1       2.882   8.096  17.593  0.00  0.00    +0.000 A 
ATOM      4  C   UNL     1       2.020   9.090  18.071  0.00  0.00    +0.000 A 
ATOM      5  C   UNL     1       1.385   8.940  19.311  0.00  0.00    +0.000 A 
ATOM      6  C   UNL     1       1.663   7.802  20.081  0.00  0.00    +0.000 A 
ATOM      7  C   UNL     1       2.531   6.827  19.599  0.00  0.00    +0.000 A 
ATOM      8  F   UNL     1       2.801   5.777  20.388  0.00  0.00    +0.000 F 
BRANCH   5   9
ATOM      9  N   UNL     1       0.510   9.947  19.823  0.00  0.00    +0.000 N 
ATOM     10  C   UNL     1       0.741  10.645  20.996  0.00  0.00    +0.000 A 
ATOM     11  C   UNL     1      -0.220  11.616  21.144  0.00  0.00    +0.000 A 
ATOM     12  C   UNL     1      -1.124  11.487  20.064  0.00  0.00    +0.000 A 
ATOM     13  C   UNL     1      -2.302  12.180  19.714  0.00  0.00    +0.000 A 
ATOM     14  C   UNL     1      -3.036  11.783  18.594  0.00  0.00    +0.000 A 
ATOM     15  C   UNL     1      -2.622  10.693  17.839  0.00  0.00    +0.000 A 
ATOM     16  C   UNL     1      -1.459   9.990  18.167  0.00  0.00    +0.000 A 
ATOM     17  C   UNL     1      -0.684  10.420  19.266  0.00  0.00    +0.000 A 
ENDBRANCH   5   9
ENDBRANCH   1   2
BRANCH   1  20
ATOM     18  C   UNL     1       6.801   6.141  17.997  0.00  0.00    +0.000 C 
ATOM     19  O   UNL     1       6.044   7.075  17.206  0.00  0.00    +0.000 OA
ATOM     20  C   UNL     1       4.807   6.525  16.712  0.00  0.00    +0.000 C 
ATOM     21  C   UNL     1       5.156   5.379  15.742  0.00  0.00    +0.000 C 
ATOM     22  C   UNL     1       5.969   4.308  16.483  0.00  0.00    +0.000 C 
ATOM     23  C   UNL     1       7.213   4.926  17.153  0.00  0.00    +0.000 C 
BRANCH  21  24
ATOM     24  O   UNL     1       5.951   5.862  14.635  0.00  0.00    +0.000 OA
ATOM     25  H   UNL     1       5.457   6.599  14.227  0.00  0.00    +0.000 HD
ENDBRANCH  21  24
BRANCH  22  26
ATOM     26  O   UNL     1       6.372   3.281  15.565  0.00  0.00    +0.000 OA
ATOM     27  H   UNL     1       6.059   2.438  15.949  0.00  0.00    +0.000 HD
ENDBRANCH  22  26
BRANCH  23  28
ATOM     28  O   UNL     1       7.907   3.975  17.966  0.00  0.00    +0.000 OA
ATOM     29  H   UNL     1       7.407   3.857  18.794  0.00  0.00    +0.000 HD
ENDBRANCH  23  28
BRANCH  18  30
ATOM     30  C   UNL     1       8.034   6.866  18.554  0.00  0.00    +0.000 C 
BRANCH  30  31
ATOM     31  O   UNL     1       8.105   8.187  18.012  0.00  0.00    +0.000 OA
ATOM     32  H   UNL     1       8.776   8.666  18.523  0.00  0.00    +0.000 HD
ENDBRANCH  30  31
ENDBRANCH  18  30
ENDBRANCH   1  20
TORSDOF 8
ENDMDL
MODEL 4
REMARK VINA RESULT:      -8.2      2.135      3.149
REMARK  Name = 
REMARK  8 active torsions:
REMARK  status: ('A' for Active; 'I' for Inactive)
REMARK    1  A    between atoms: O_1  and  C_2
REMARK    2  A    between atoms: C_2  and  C_3
REMARK    3  A    between atoms: C_5  and  O_6
REMARK    4  A    between atoms: O_6  and  C_7
REMARK    5  A    between atoms: C_10  and  N_11
REMARK    6  A    between atoms: C_23  and  O_24
REMARK    7  A    between atoms: C_25  and  O_26
REMARK    8  A    between atoms: C_27  and  O_28
REMARK                            x       y       z     vdW  Elec       q    Type
REMARK                         _______ _______ _______ _____ _____    ______ ____
ROOT
ATOM      1  O   UNL     1       3.465   6.412  19.137  0.00  0.00    +0.000 OA
ENDROOT
BRANCH   1   2
ATOM      2  C   UNL     1       2.564   7.433  19.213  0.00  0.00    +0.000 A 
ATOM      3  C   UNL     1       1.834   7.507  20.398  0.00  0.00    +0.000 A 
ATOM      4  C   UNL     1       0.869   8.504  20.580  0.00  0.00    +0.000 A 
ATOM      5  C   UNL     1       0.625   9.446  19.572  0.00  0.00    +0.000 A 
ATOM      6  C   UNL     1       1.331   9.345  18.365  0.00  0.00    +0.000 A 
ATOM      7  C   UNL     1       2.279   8.341  18.193  0.00  0.00    +0.000 A 
ATOM      8  F   UNL     1       2.898   8.255  17.007  0.00  0.00    +0.000 F 
BRANCH   5   9
ATOM      9  N   UNL     1      -0.363  10.466  19.733  0.00  0.00    +0.000 N 
ATOM     10  C   UNL     1      -0.273  11.487  20.663  0.00  0.00    +0.000 A 
ATOM     11  C   UNL     1      -1.318  12.360  20.482  0.00  0.00    +0.000 A 
ATOM     12  C   UNL     1      -2.132  11.842  19.449  0.00  0.00    +0.000 A 
ATOM     13  C   UNL     1      -3.335  12.287  18.863  0.00  0.00    +0.000 A 
ATOM     14  C   UNL     1      -3.955  11.518  17.875  0.00  0.00    +0.000 A 
ATOM     15  C   UNL     1      -3.401  10.304  17.486  0.00  0.00    +0.000 A 
ATOM     16  C   UNL     1      -2.210   9.842  18.053  0.00  0.00    +0.000 A 
ATOM     17  C   UNL     1      -1.551  10.641  19.013  0.00  0.00    +0.000 A 
ENDBRANCH   5   9
ENDBRANCH   1   2
BRANCH   1  20
ATOM     18  C   UNL     1       5.353   5.447  17.285  0.00  0.00    +0.000 C 
ATOM     19  O   UNL     1       3.936   5.432  17.038  0.00  0.00    +0.000 OA
ATOM     20  C   UNL     1       3.153   5.340  18.245  0.00  0.00    +0.000 C 
ATOM     21  C   UNL     1       3.454   3.976  18.896  0.00  0.00    +0.000 C 
ATOM     22  C   UNL     1       4.953   3.876  19.212  0.00  0.00    +0.000 C 
ATOM     23  C   UNL     1       5.800   4.137  17.951  0.00  0.00    +0.000 C 
BRANCH  21  24
ATOM     24  O   UNL     1       3.108   2.890  18.007  0.00  0.00    +0.000 OA
ATOM     25  H   UNL     1       2.327   3.175  17.494  0.00  0.00    +0.000 HD
ENDBRANCH  21  24
BRANCH  22  26
ATOM     26  O   UNL     1       5.254   2.576  19.739  0.00  0.00    +0.000 OA
ATOM     27  H   UNL     1       6.179   2.618  20.053  0.00  0.00    +0.000 HD
ENDBRANCH  22  26
BRANCH  23  28
ATOM     28  O   UNL     1       7.198   4.191  18.250  0.00  0.00    +0.000 OA
ATOM     29  H   UNL     1       7.302   4.393  19.197  0.00  0.00    +0.000 HD
ENDBRANCH  23  28
BRANCH  18  30
ATOM     30  C   UNL     1       6.075   5.656  15.946  0.00  0.00    +0.000 C 
BRANCH  30  31
ATOM     31  O   UNL     1       7.400   6.138  16.180  0.00  0.00    +0.000 OA
ATOM     32  H   UNL     1       7.458   6.356  17.123  0.00  0.00    +0.000 HD
ENDBRANCH  30  31
ENDBRANCH  18  30
ENDBRANCH   1  20
TORSDOF 8
ENDMDL
MODEL 5
REMARK VINA RESULT:      -8.2      1.362      1.804
REMARK  Name = 
REMARK  8 active torsions:
REMARK  status: ('A' for Active; 'I' for Inactive)
REMARK    1  A    between atoms: O_1  and  C_2
REMARK    2  A    between atoms: C_2  and  C_3
REMARK    3  A    between atoms: C_5  and  O_6
REMARK    4  A    between atoms: O_6  and  C_7
REMARK    5  A    between atoms: C_10  and  N_11
REMARK    6  A    between atoms: C_23  and  O_24
REMARK    7  A    between atoms: C_25  and  O_26
REMARK    8  A    between atoms: C_27  and  O_28
REMARK                            x       y       z     vdW  Elec       q    Type
REMARK                         _______ _______ _______ _____ _____    ______ ____
ROOT
ATOM      1  O   UNL     1       2.532   6.148  19.962  0.00  0.00    +0.000 OA
ENDROOT
BRANCH   1   2
ATOM      2  C   UNL     1       2.068   7.406  19.712  0.00  0.00    +0.000 A 
ATOM      3  C   UNL     1       1.385   8.016  20.763  0.00  0.00    +0.000 A 
ATOM      4  C   UNL     1       0.850   9.302  20.614  0.00  0.00    +0.000 A 
ATOM      5  C   UNL     1       0.998   9.995  19.406  0.00  0.00    +0.000 A 
ATOM      6  C   UNL     1       1.650   9.363  18.338  0.00  0.00    +0.000 A 
ATOM      7  C   UNL     1       2.166   8.080  18.495  0.00  0.00    +0.000 A 
ATOM      8  F   UNL     1       2.743   7.498  17.434  0.00  0.00    +0.000 F 
BRANCH   5   9
ATOM      9  N   UNL     1       0.451  11.303  19.229  0.00  0.00    +0.000 N 
ATOM     10  C   UNL     1      -0.903  11.587  19.290  0.00  0.00    +0.000 A 
ATOM     11  C   UNL     1      -1.087  12.945  19.197  0.00  0.00    +0.000 A 
ATOM     12  C   UNL     1       0.184  13.535  19.005  0.00  0.00    +0.000 A 
ATOM     13  C   UNL     1       0.603  14.869  18.819  0.00  0.00    +0.000 A 
ATOM     14  C   UNL     1       1.952  15.149  18.592  0.00  0.00    +0.000 A 
ATOM     15  C   UNL     1       2.878  14.116  18.524  0.00  0.00    +0.000 A 
ATOM     16  C   UNL     1       2.487  12.786  18.704  0.00  0.00    +0.000 A 
ATOM     17  C   UNL     1       1.133  12.501  18.988  0.00  0.00    +0.000 A 
ENDBRANCH   5   9
ENDBRANCH   1   2
BRANCH   1  20
ATOM     18  C   UNL     1       3.566   3.907  18.607  0.00  0.00    +0.000 C 
ATOM     19  O   UNL     1       2.226   4.391  18.410  0.00  0.00    +0.000 OA
ATOM     20  C   UNL     1       1.692   5.060  19.570  0.00  0.00    +0.000 C 
ATOM     21  C   UNL     1       1.574   4.020  20.700  0.00  0.00    +0.000 C 
ATOM     22  C   UNL     1       2.959   3.431  21.003  0.00  0.00    +0.000 C 
ATOM     23  C   UNL     1       3.605   2.857  19.727  0.00  0.00    +0.000 C 
BRANCH  21  24
ATOM     24  O   UNL     1       0.697   2.935  20.317  0.00  0.00    +0.000 OA
ATOM     25  H   UNL     1       0.429   2.479  21.139  0.00  0.00    +0.000 HD
ENDBRANCH  21  24
BRANCH  22  26
ATOM     26  O   UNL     1       2.843   2.400  21.994  0.00  0.00    +0.000 OA
ATOM     27  H   UNL     1       3.688   2.400  22.486  0.00  0.00    +0.000 HD
ENDBRANCH  22  26
BRANCH  23  28
ATOM     28  O   UNL     1       4.951   2.432  19.956  0.00  0.00    +0.000 OA
ATOM     29  H   UNL     1       4.929   1.602  20.464  0.00  0.00    +0.000 HD
ENDBRANCH  23  28
BRANCH  18  30
ATOM     30  C   UNL     1       4.065   3.314  17.281  0.00  0.00    +0.000 C 
BRANCH  30  31
ATOM     31  O   UNL     1       5.466   3.557  17.137  0.00  0.00    +0.000 OA
ATOM     32  H   UNL     1       5.682   3.417  16.202  0.00  0.00    +0.000 HD
ENDBRANCH  30  31
ENDBRANCH  18  30
ENDBRANCH   1  20
TORSDOF 8
ENDMDL
MODEL 6
REMARK VINA RESULT:      -8.1      1.213      1.486
REMARK  Name = 
REMARK  8 active torsions:
REMARK  status: ('A' for Active; 'I' for Inactive)
REMARK    1  A    between atoms: O_1  and  C_2
REMARK    2  A    between atoms: C_2  and  C_3
REMARK    3  A    between atoms: C_5  and  O_6
REMARK    4  A    between atoms: O_6  and  C_7
REMARK    5  A    between atoms: C_10  and  N_11
REMARK    6  A    between atoms: C_23  and  O_24
REMARK    7  A    between atoms: C_25  and  O_26
REMARK    8  A    between atoms: C_27  and  O_28
REMARK                            x       y       z     vdW  Elec       q    Type
REMARK                         _______ _______ _______ _____ _____    ______ ____
ROOT
ATOM      1  O   UNL     1       2.594   6.188  19.488  0.00  0.00    +0.000 OA
ENDROOT
BRANCH   1   2
ATOM      2  C   UNL     1       2.061   7.440  19.403  0.00  0.00    +0.000 A 
ATOM      3  C   UNL     1       2.209   8.076  18.172  0.00  0.00    +0.000 A 
ATOM      4  C   UNL     1       1.715   9.371  17.975  0.00  0.00    +0.000 A 
ATOM      5  C   UNL     1       1.062  10.046  19.015  0.00  0.00    +0.000 A 
ATOM      6  C   UNL     1       0.952   9.421  20.264  0.00  0.00    +0.000 A 
ATOM      7  C   UNL     1       1.458   8.137  20.449  0.00  0.00    +0.000 A 
ATOM      8  F   UNL     1       1.369   7.595  21.673  0.00  0.00    +0.000 F 
BRANCH   5   9
ATOM      9  N   UNL     1       0.561  11.373  18.839  0.00  0.00    +0.000 N 
ATOM     10  C   UNL     1      -0.786  11.686  18.777  0.00  0.00    +0.000 A 
ATOM     11  C   UNL     1      -0.933  13.050  18.721  0.00  0.00    +0.000 A 
ATOM     12  C   UNL     1       0.362  13.617  18.680  0.00  0.00    +0.000 A 
ATOM     13  C   UNL     1       0.823  14.947  18.591  0.00  0.00    +0.000 A 
ATOM     14  C   UNL     1       2.193  15.205  18.510  0.00  0.00    +0.000 A 
ATOM     15  C   UNL     1       3.101  14.153  18.492  0.00  0.00    +0.000 A 
ATOM     16  C   UNL     1       2.668  12.827  18.578  0.00  0.00    +0.000 A 
ATOM     17  C   UNL     1       1.287  12.563  18.715  0.00  0.00    +0.000 A 
ENDBRANCH   5   9
ENDBRANCH   1   2
BRANCH   1  20
ATOM     18  C   UNL     1       3.607   3.695  18.657  0.00  0.00    +0.000 C 
ATOM     19  O   UNL     1       2.334   4.207  18.224  0.00  0.00    +0.000 OA
ATOM     20  C   UNL     1       1.726   5.094  19.184  0.00  0.00    +0.000 C 
ATOM     21  C   UNL     1       1.411   4.272  20.449  0.00  0.00    +0.000 C 
ATOM     22  C   UNL     1       2.709   3.673  21.009  0.00  0.00    +0.000 C 
ATOM     23  C   UNL     1       3.448   2.855  19.932  0.00  0.00    +0.000 C 
BRANCH  21  24
ATOM     24  O   UNL     1       0.506   3.185  20.149  0.00  0.00    +0.000 OA
ATOM     25  H   UNL     1       1.052   2.430  19.854  0.00  0.00    +0.000 HD
ENDBRANCH  21  24
BRANCH  22  26
ATOM     26  O   UNL     1       2.412   2.837  22.137  0.00  0.00    +0.000 OA
ATOM     27  H   UNL     1       1.494   3.051  22.398  0.00  0.00    +0.000 HD
ENDBRANCH  22  26
BRANCH  23  28
ATOM     28  O   UNL     1       4.727   2.406  20.389  0.00  0.00    +0.000 OA
ATOM     29  H   UNL     1       4.778   1.442  20.261  0.00  0.00    +0.000 HD
ENDBRANCH  23  28
BRANCH  18  30
ATOM     30  C   UNL     1       4.204   2.856  17.517  0.00  0.00    +0.000 C 
BRANCH  30  31
ATOM     31  O   UNL     1       4.083   1.465  17.825  0.00  0.00    +0.000 OA
ATOM     32  H   UNL     1       3.652   1.045  17.065  0.00  0.00    +0.000 HD
ENDBRANCH  30  31
ENDBRANCH  18  30
ENDBRANCH   1  20
TORSDOF 8
ENDMDL
MODEL 7
REMARK VINA RESULT:      -8.1      1.802      2.745
REMARK  Name = 
REMARK  8 active torsions:
REMARK  status: ('A' for Active; 'I' for Inactive)
REMARK    1  A    between atoms: O_1  and  C_2
REMARK    2  A    between atoms: C_2  and  C_3
REMARK    3  A    between atoms: C_5  and  O_6
REMARK    4  A    between atoms: O_6  and  C_7
REMARK    5  A    between atoms: C_10  and  N_11
REMARK    6  A    between atoms: C_23  and  O_24
REMARK    7  A    between atoms: C_25  and  O_26
REMARK    8  A    between atoms: C_27  and  O_28
REMARK                            x       y       z     vdW  Elec       q    Type
REMARK                         _______ _______ _______ _____ _____    ______ ____
ROOT
ATOM      1  O   UNL     1       2.954   6.450  19.182  0.00  0.00    +0.000 OA
ENDROOT
BRANCH   1   2
ATOM      2  C   UNL     1       2.242   7.608  19.295  0.00  0.00    +0.000 A 
ATOM      3  C   UNL     1       1.583   7.795  20.509  0.00  0.00    +0.000 A 
ATOM      4  C   UNL     1       0.809   8.940  20.731  0.00  0.00    +0.000 A 
ATOM      5  C   UNL     1       0.687   9.916  19.734  0.00  0.00    +0.000 A 
ATOM      6  C   UNL     1       1.317   9.706  18.499  0.00  0.00    +0.000 A 
ATOM      7  C   UNL     1       2.074   8.558  18.288  0.00  0.00    +0.000 A 
ATOM      8  F   UNL     1       2.622   8.378  17.077  0.00  0.00    +0.000 F 
BRANCH   5   9
ATOM      9  N   UNL     1      -0.108  11.087  19.936  0.00  0.00    +0.000 N 
ATOM     10  C   UNL     1      -0.284  12.073  18.979  0.00  0.00    +0.000 A 
ATOM     11  C   UNL     1      -1.191  12.996  19.441  0.00  0.00    +0.000 A 
ATOM     12  C   UNL     1      -1.551  12.618  20.755  0.00  0.00    +0.000 A 
ATOM     13  C   UNL     1      -2.408  13.194  21.716  0.00  0.00    +0.000 A 
ATOM     14  C   UNL     1      -2.525  12.615  22.981  0.00  0.00    +0.000 A 
ATOM     15  C   UNL     1      -1.780  11.487  23.303  0.00  0.00    +0.000 A 
ATOM     16  C   UNL     1      -0.923  10.899  22.368  0.00  0.00    +0.000 A 
ATOM     17  C   UNL     1      -0.843  11.449  21.070  0.00  0.00    +0.000 A 
ENDBRANCH   5   9
ENDBRANCH   1   2
BRANCH   1  20
ATOM     18  C   UNL     1       4.780   4.561  18.170  0.00  0.00    +0.000 C 
ATOM     19  O   UNL     1       3.776   5.193  17.357  0.00  0.00    +0.000 OA
ATOM     20  C   UNL     1       2.606   5.580  18.104  0.00  0.00    +0.000 C 
ATOM     21  C   UNL     1       1.937   4.294  18.627  0.00  0.00    +0.000 C 
ATOM     22  C   UNL     1       2.924   3.529  19.521  0.00  0.00    +0.000 C 
ATOM     23  C   UNL     1       4.245   3.256  18.775  0.00  0.00    +0.000 C 
BRANCH  21  24
ATOM     24  O   UNL     1       1.554   3.427  17.535  0.00  0.00    +0.000 OA
ATOM     25  H   UNL     1       0.877   2.812  17.880  0.00  0.00    +0.000 HD
ENDBRANCH  21  24
BRANCH  22  26
ATOM     26  O   UNL     1       2.337   2.288  19.942  0.00  0.00    +0.000 OA
ATOM     27  H   UNL     1       3.080   1.662  20.052  0.00  0.00    +0.000 HD
ENDBRANCH  22  26
BRANCH  23  28
ATOM     28  O   UNL     1       5.229   2.671  19.633  0.00  0.00    +0.000 OA
ATOM     29  H   UNL     1       5.766   2.052  19.106  0.00  0.00    +0.000 HD
ENDBRANCH  23  28
BRANCH  18  30
ATOM     30  C   UNL     1       6.014   4.295  17.295  0.00  0.00    +0.000 C 
BRANCH  30  31
ATOM     31  O   UNL     1       7.181   4.207  18.115  0.00  0.00    +0.000 OA
ATOM     32  H   UNL     1       7.874   3.793  17.577  0.00  0.00    +0.000 HD
ENDBRANCH  30  31
ENDBRANCH  18  30
ENDBRANCH   1  20
TORSDOF 8
ENDMDL
MODEL 8
REMARK VINA RESULT:      -8.0      0.947      1.312
REMARK  Name = 
REMARK  8 active torsions:
REMARK  status: ('A' for Active; 'I' for Inactive)
REMARK    1  A    between atoms: O_1  and  C_2
REMARK    2  A    between atoms: C_2  and  C_3
REMARK    3  A    between atoms: C_5  and  O_6
REMARK    4  A    between atoms: O_6  and  C_7
REMARK    5  A    between atoms: C_10  and  N_11
REMARK    6  A    between atoms: C_23  and  O_24
REMARK    7  A    between atoms: C_25  and  O_26
REMARK    8  A    between atoms: C_27  and  O_28
REMARK                            x       y       z     vdW  Elec       q    Type
REMARK                         _______ _______ _______ _____ _____    ______ ____
ROOT
ATOM      1  O   UNL     1       2.761   6.397  19.240  0.00  0.00    +0.000 OA
ENDROOT
BRANCH   1   2
ATOM      2  C   UNL     1       2.227   7.650  19.158  0.00  0.00    +0.000 A 
ATOM      3  C   UNL     1       1.498   8.069  20.270  0.00  0.00    +0.000 A 
ATOM      4  C   UNL     1       0.892   9.330  20.291  0.00  0.00    +0.000 A 
ATOM      5  C   UNL     1       1.011  10.192  19.192  0.00  0.00    +0.000 A 
ATOM      6  C   UNL     1       1.709   9.752  18.059  0.00  0.00    +0.000 A 
ATOM      7  C   UNL     1       2.298   8.491  18.048  0.00  0.00    +0.000 A 
ATOM      8  F   UNL     1       2.918   8.095  16.926  0.00  0.00    +0.000 F 
BRANCH   5   9
ATOM      9  N   UNL     1       0.390  11.479  19.188  0.00  0.00    +0.000 N 
ATOM     10  C   UNL     1      -0.959  11.684  19.423  0.00  0.00    +0.000 A 
ATOM     11  C   UNL     1      -1.212  13.034  19.465  0.00  0.00    +0.000 A 
ATOM     12  C   UNL     1       0.001  13.703  19.183  0.00  0.00    +0.000 A 
ATOM     13  C   UNL     1       0.337  15.068  19.064  0.00  0.00    +0.000 A 
ATOM     14  C   UNL     1       1.637  15.437  18.712  0.00  0.00    +0.000 A 
ATOM     15  C   UNL     1       2.593  14.463  18.455  0.00  0.00    +0.000 A 
ATOM     16  C   UNL     1       2.284  13.104  18.565  0.00  0.00    +0.000 A 
ATOM     17  C   UNL     1       0.987  12.726  18.974  0.00  0.00    +0.000 A 
ENDBRANCH   5   9
ENDBRANCH   1   2
BRANCH   1  20
ATOM     18  C   UNL     1       4.614   4.537  18.224  0.00  0.00    +0.000 C 
ATOM     19  O   UNL     1       3.555   5.101  17.430  0.00  0.00    +0.000 OA
ATOM     20  C   UNL     1       2.402   5.474  18.210  0.00  0.00    +0.000 C 
ATOM     21  C   UNL     1       1.803   4.186  18.808  0.00  0.00    +0.000 C 
ATOM     22  C   UNL     1       2.853   3.492  19.688  0.00  0.00    +0.000 C 
ATOM     23  C   UNL     1       4.152   3.238  18.899  0.00  0.00    +0.000 C 
BRANCH  21  24
ATOM     24  O   UNL     1       1.409   3.264  17.766  0.00  0.00    +0.000 OA
ATOM     25  H   UNL     1       1.314   3.783  16.944  0.00  0.00    +0.000 HD
ENDBRANCH  21  24
BRANCH  22  26
ATOM     26  O   UNL     1       2.331   2.249  20.179  0.00  0.00    +0.000 OA
ATOM     27  H   UNL     1       2.969   1.933  20.849  0.00  0.00    +0.000 HD
ENDBRANCH  22  26
BRANCH  23  28
ATOM     28  O   UNL     1       5.192   2.722  19.736  0.00  0.00    +0.000 OA
ATOM     29  H   UNL     1       4.854   1.931  20.192  0.00  0.00    +0.000 HD
ENDBRANCH  23  28
BRANCH  18  30
ATOM     30  C   UNL     1       5.821   4.281  17.308  0.00  0.00    +0.000 C 
BRANCH  30  31
ATOM     31  O   UNL     1       7.009   4.164  18.094  0.00  0.00    +0.000 OA
ATOM     32  H   UNL     1       6.763   4.369  19.010  0.00  0.00    +0.000 HD
ENDBRANCH  30  31
ENDBRANCH  18  30
ENDBRANCH   1  20
TORSDOF 8
ENDMDL
MODEL 9
REMARK VINA RESULT:      -8.0      1.478      2.344
REMARK  Name = 
REMARK  8 active torsions:
REMARK  status: ('A' for Active; 'I' for Inactive)
REMARK    1  A    between atoms: O_1  and  C_2
REMARK    2  A    between atoms: C_2  and  C_3
REMARK    3  A    between atoms: C_5  and  O_6
REMARK    4  A    between atoms: O_6  and  C_7
REMARK    5  A    between atoms: C_10  and  N_11
REMARK    6  A    between atoms: C_23  and  O_24
REMARK    7  A    between atoms: C_25  and  O_26
REMARK    8  A    between atoms: C_27  and  O_28
REMARK                            x       y       z     vdW  Elec       q    Type
REMARK                         _______ _______ _______ _____ _____    ______ ____
ROOT
ATOM      1  O   UNL     1       3.051   6.474  19.059  0.00  0.00    +0.000 OA
ENDROOT
BRANCH   1   2
ATOM      2  C   UNL     1       2.241   7.548  19.284  0.00  0.00    +0.000 A 
ATOM      3  C   UNL     1       2.168   8.476  18.247  0.00  0.00    +0.000 A 
ATOM      4  C   UNL     1       1.380   9.626  18.374  0.00  0.00    +0.000 A 
ATOM      5  C   UNL     1       0.651   9.859  19.548  0.00  0.00    +0.000 A 
ATOM      6  C   UNL     1       0.759   8.945  20.605  0.00  0.00    +0.000 A 
ATOM      7  C   UNL     1       1.555   7.811  20.470  0.00  0.00    +0.000 A 
ATOM      8  F   UNL     1       1.663   6.987  21.522  0.00  0.00    +0.000 F 
BRANCH   5   9
ATOM      9  N   UNL     1      -0.151  11.032  19.703  0.00  0.00    +0.000 N 
ATOM     10  C   UNL     1      -0.382  11.946  18.689  0.00  0.00    +0.000 A 
ATOM     11  C   UNL     1      -1.281  12.889  19.125  0.00  0.00    +0.000 A 
ATOM     12  C   UNL     1      -1.578  12.601  20.477  0.00  0.00    +0.000 A 
ATOM     13  C   UNL     1      -2.401  13.234  21.432  0.00  0.00    +0.000 A 
ATOM     14  C   UNL     1      -2.455  12.743  22.739  0.00  0.00    +0.000 A 
ATOM     15  C   UNL     1      -1.681  11.649  23.105  0.00  0.00    +0.000 A 
ATOM     16  C   UNL     1      -0.857  11.006  22.176  0.00  0.00    +0.000 A 
ATOM     17  C   UNL     1      -0.841  11.465  20.841  0.00  0.00    +0.000 A 
ENDBRANCH   5   9
ENDBRANCH   1   2
BRANCH   1  20
ATOM     18  C   UNL     1       4.880   4.578  18.064  0.00  0.00    +0.000 C 
ATOM     19  O   UNL     1       3.926   5.259  17.230  0.00  0.00    +0.000 OA
ATOM     20  C   UNL     1       2.732   5.647  17.938  0.00  0.00    +0.000 C 
ATOM     21  C   UNL     1       2.014   4.360  18.388  0.00  0.00    +0.000 C 
ATOM     22  C   UNL     1       2.943   3.544  19.297  0.00  0.00    +0.000 C 
ATOM     23  C   UNL     1       4.290   3.266  18.601  0.00  0.00    +0.000 C 
BRANCH  21  24
ATOM     24  O   UNL     1       1.661   3.539  17.252  0.00  0.00    +0.000 OA
ATOM     25  H   UNL     1       1.758   2.607  17.529  0.00  0.00    +0.000 HD
ENDBRANCH  21  24
BRANCH  22  26
ATOM     26  O   UNL     1       2.313   2.304  19.650  0.00  0.00    +0.000 OA
ATOM     27  H   UNL     1       2.357   1.741  18.851  0.00  0.00    +0.000 HD
ENDBRANCH  22  26
BRANCH  23  28
ATOM     28  O   UNL     1       5.223   2.631  19.480  0.00  0.00    +0.000 OA
ATOM     29  H   UNL     1       5.781   3.319  19.884  0.00  0.00    +0.000 HD
ENDBRANCH  23  28
BRANCH  18  30
ATOM     30  C   UNL     1       6.145   4.312  17.235  0.00  0.00    +0.000 C 
BRANCH  30  31
ATOM     31  O   UNL     1       7.275   4.191  18.101  0.00  0.00    +0.000 OA
ATOM     32  H   UNL     1       7.731   5.048  18.092  0.00  0.00    +0.000 HD
ENDBRANCH  30  31
ENDBRANCH  18  30
ENDBRANCH   1  20
TORSDOF 8
ENDMDL
