MODEL 1
REMARK VINA RESULT:      -7.2      0.000      0.000
REMARK  Name = 
REMARK  11 active torsions:
REMARK  status: ('A' for Active; 'I' for Inactive)
REMARK    1  A    between atoms: C_1  and  C_2
REMARK    2  A    between atoms: C_2  and  N_3
REMARK    3  A    between atoms: N_3  and  C_4
REMARK    4  A    between atoms: N_3  and  C_6
REMARK    5  A    between atoms: C_4  and  C_5
REMARK    6  A    between atoms: C_8  and  C_9
REMARK    7  A    between atoms: C_13  and  C_14
REMARK    8  A    between atoms: N_19  and  C_20
REMARK    9  A    between atoms: C_23  and  O_24
REMARK   10  A    between atoms: O_24  and  C_25
REMARK   11  A    between atoms: C_30  and  C_31
REMARK                            x       y       z     vdW  Elec       q    Type
REMARK                         _______ _______ _______ _____ _____    ______ ____
ROOT
ATOM      1  C   UNL     1      -5.787  12.352  20.594  0.00  0.00    +0.000 A 
ATOM      2  N   UNL     1      -6.441  12.855  21.689  0.00  0.00    +0.000 NA
ATOM      3  C   UNL     1      -5.795  13.623  22.570  0.00  0.00    +0.000 A 
ATOM      4  C   UNL     1      -6.579  14.243  23.695  0.00  0.00    +0.000 C 
ATOM      5  N   UNL     1      -4.514  13.935  22.529  0.00  0.00    +0.000 NA
ATOM      6  C   UNL     1      -3.866  13.438  21.479  0.00  0.00    +0.000 A 
ATOM      7  S   UNL     1      -2.223  13.769  21.275  0.00  0.00    +0.000 S 
ATOM      8  C   UNL     1      -2.125  12.853  19.831  0.00  0.00    +0.000 A 
ATOM      9  C   UNL     1      -3.371  12.330  19.472  0.00  0.00    +0.000 A 
ATOM     10  C   UNL     1      -3.661  11.548  18.232  0.00  0.00    +0.000 C 
ATOM     11  C   UNL     1      -4.400  12.644  20.470  0.00  0.00    +0.000 A 
ENDROOT
BRANCH   8  12
ATOM     12  C   UNL     1      -0.791  12.835  19.220  0.00  0.00    +0.000 C 
ATOM     13  O   UNL     1      -0.402  13.772  18.518  0.00  0.00    +0.000 OA
ATOM     14  N   UNL     1       0.084  11.785  19.491  0.00  0.00    +0.000 N 
ATOM     15  C   UNL     1      -0.208  10.568  20.250  0.00  0.00    +0.000 C 
ATOM     16  C   UNL     1      -0.017   9.344  19.330  0.00  0.00    +0.000 C 
ATOM     17  N   UNL     1       1.379   9.343  18.892  0.00  0.00    +0.000 N 
ATOM     18  C   UNL     1       1.826  10.554  18.176  0.00  0.00    +0.000 C 
ATOM     19  C   UNL     1       1.467  11.821  18.986  0.00  0.00    +0.000 C 
BRANCH  17  20
ATOM     20  C   UNL     1       2.106   8.173  18.838  0.00  0.00    +0.000 A 
ATOM     21  C   UNL     1       2.079   7.213  19.857  0.00  0.00    +0.000 A 
ATOM     22  C   UNL     1       2.895   6.078  19.802  0.00  0.00    +0.000 A 
ATOM     23  C   UNL     1       3.745   5.870  18.719  0.00  0.00    +0.000 A 
ATOM     24  C   UNL     1       3.789   6.818  17.702  0.00  0.00    +0.000 A 
ATOM     25  C   UNL     1       2.972   7.948  17.760  0.00  0.00    +0.000 A 
BRANCH  23  26
ATOM     26  O   UNL     1       4.520   4.745  18.779  0.00  0.00    +0.000 OA
ATOM     27  C   UNL     1       4.218   3.746  17.813  0.00  0.00    +0.000 C 
ENDBRANCH  23  26
ENDBRANCH  17  20
ENDBRANCH   8  12
BRANCH   1  28
ATOM     28  N   UNL     1      -6.548  11.608  19.630  0.00  0.00    +0.000 N 
BRANCH  28  30
ATOM     29  C   UNL     1      -7.011  12.759  17.461  0.00  0.00    +0.000 C 
ATOM     30  C   UNL     1      -7.448  12.538  18.903  0.00  0.00    +0.000 C 
ENDBRANCH  28  30
BRANCH  28  31
ATOM     31  C   UNL     1      -7.214  10.496  20.347  0.00  0.00    +0.000 C 
ATOM     32  C   UNL     1      -7.116   9.164  19.612  0.00  0.00    +0.000 C 
ENDBRANCH  28  31
ENDBRANCH   1  28
TORSDOF 6
ENDMDL
MODEL 2
REMARK VINA RESULT:      -6.9      0.771      1.150
REMARK  Name = 
REMARK  11 active torsions:
REMARK  status: ('A' for Active; 'I' for Inactive)
REMARK    1  A    between atoms: C_1  and  C_2
REMARK    2  A    between atoms: C_2  and  N_3
REMARK    3  A    between atoms: N_3  and  C_4
REMARK    4  A    between atoms: N_3  and  C_6
REMARK    5  A    between atoms: C_4  and  C_5
REMARK    6  A    between atoms: C_8  and  C_9
REMARK    7  A    between atoms: C_13  and  C_14
REMARK    8  A    between atoms: N_19  and  C_20
REMARK    9  A    between atoms: C_23  and  O_24
REMARK   10  A    between atoms: O_24  and  C_25
REMARK   11  A    between atoms: C_30  and  C_31
REMARK                            x       y       z     vdW  Elec       q    Type
REMARK                         _______ _______ _______ _____ _____    ______ ____
ROOT
ATOM      1  C   UNL     1      -6.238  12.544  20.551  0.00  0.00    +0.000 A 
ATOM      2  N   UNL     1      -7.070  13.064  21.508  0.00  0.00    +0.000 NA
ATOM      3  C   UNL     1      -6.607  13.934  22.409  0.00  0.00    +0.000 A 
ATOM      4  C   UNL     1      -7.580  14.562  23.369  0.00  0.00    +0.000 C 
ATOM      5  N   UNL     1      -5.356  14.341  22.517  0.00  0.00    +0.000 NA
ATOM      6  C   UNL     1      -4.537  13.830  21.603  0.00  0.00    +0.000 A 
ATOM      7  S   UNL     1      -2.907  14.274  21.598  0.00  0.00    +0.000 S 
ATOM      8  C   UNL     1      -2.547  13.278  20.251  0.00  0.00    +0.000 A 
ATOM      9  C   UNL     1      -3.693  12.639  19.767  0.00  0.00    +0.000 A 
ATOM     10  C   UNL     1      -3.753  11.760  18.560  0.00  0.00    +0.000 C 
ATOM     11  C   UNL     1      -4.870  12.935  20.593  0.00  0.00    +0.000 A 
ENDROOT
BRANCH   8  12
ATOM     12  C   UNL     1      -1.143  13.324  19.828  0.00  0.00    +0.000 C 
ATOM     13  O   UNL     1      -0.661  14.351  19.340  0.00  0.00    +0.000 OA
ATOM     14  N   UNL     1      -0.315  12.225  20.042  0.00  0.00    +0.000 N 
ATOM     15  C   UNL     1      -0.709  10.911  20.554  0.00  0.00    +0.000 C 
ATOM     16  C   UNL     1      -0.399   9.842  19.485  0.00  0.00    +0.000 C 
ATOM     17  N   UNL     1       1.044   9.877  19.242  0.00  0.00    +0.000 N 
ATOM     18  C   UNL     1       1.586  11.174  18.792  0.00  0.00    +0.000 C 
ATOM     19  C   UNL     1       1.124  12.307  19.737  0.00  0.00    +0.000 C 
BRANCH  17  20
ATOM     20  C   UNL     1       1.768   8.713  19.101  0.00  0.00    +0.000 A 
ATOM     21  C   UNL     1       2.480   8.397  17.938  0.00  0.00    +0.000 A 
ATOM     22  C   UNL     1       3.136   7.168  17.803  0.00  0.00    +0.000 A 
ATOM     23  C   UNL     1       3.107   6.235  18.836  0.00  0.00    +0.000 A 
ATOM     24  C   UNL     1       2.399   6.532  19.996  0.00  0.00    +0.000 A 
ATOM     25  C   UNL     1       1.749   7.759  20.127  0.00  0.00    +0.000 A 
BRANCH  23  26
ATOM     26  O   UNL     1       3.755   5.056  18.589  0.00  0.00    +0.000 OA
ATOM     27  C   UNL     1       3.355   3.960  19.405  0.00  0.00    +0.000 C 
ENDBRANCH  23  26
ENDBRANCH  17  20
ENDBRANCH   8  12
BRANCH   1  28
ATOM     28  N   UNL     1      -6.804  11.684  19.550  0.00  0.00    +0.000 N 
BRANCH  28  30
ATOM     29  C   UNL     1      -6.889  12.802  17.317  0.00  0.00    +0.000 C 
ATOM     30  C   UNL     1      -7.621  12.501  18.617  0.00  0.00    +0.000 C 
ENDBRANCH  28  30
BRANCH  28  31
ATOM     31  C   UNL     1      -7.522  10.595  20.252  0.00  0.00    +0.000 C 
ATOM     32  C   UNL     1      -7.079   9.204  19.814  0.00  0.00    +0.000 C 
ENDBRANCH  28  31
ENDBRANCH   1  28
TORSDOF 6
ENDMDL
MODEL 3
REMARK VINA RESULT:      -6.6      2.239      3.184
REMARK  Name = 
REMARK  11 active torsions:
REMARK  status: ('A' for Active; 'I' for Inactive)
REMARK    1  A    between atoms: C_1  and  C_2
REMARK    2  A    between atoms: C_2  and  N_3
REMARK    3  A    between atoms: N_3  and  C_4
REMARK    4  A    between atoms: N_3  and  C_6
REMARK    5  A    between atoms: C_4  and  C_5
REMARK    6  A    between atoms: C_8  and  C_9
REMARK    7  A    between atoms: C_13  and  C_14
REMARK    8  A    between atoms: N_19  and  C_20
REMARK    9  A    between atoms: C_23  and  O_24
REMARK   10  A    between atoms: O_24  and  C_25
REMARK   11  A    between atoms: C_30  and  C_31
REMARK                            x       y       z     vdW  Elec       q    Type
REMARK                         _______ _______ _______ _____ _____    ______ ____
ROOT
ATOM      1  C   UNL     1      -3.062  14.039  23.137  0.00  0.00    +0.000 A 
ATOM      2  N   UNL     1      -2.857  14.714  24.312  0.00  0.00    +0.000 NA
ATOM      3  C   UNL     1      -1.643  15.169  24.630  0.00  0.00    +0.000 A 
ATOM      4  C   UNL     1      -1.489  15.999  25.875  0.00  0.00    +0.000 C 
ATOM      5  N   UNL     1      -0.543  14.995  23.921  0.00  0.00    +0.000 NA
ATOM      6  C   UNL     1      -0.728  14.327  22.786  0.00  0.00    +0.000 A 
ATOM      7  S   UNL     1       0.582  14.045  21.758  0.00  0.00    +0.000 S 
ATOM      8  C   UNL     1      -0.377  13.197  20.620  0.00  0.00    +0.000 A 
ATOM      9  C   UNL     1      -1.722  13.174  21.002  0.00  0.00    +0.000 A 
ATOM     10  C   UNL     1      -2.842  12.586  20.206  0.00  0.00    +0.000 C 
ATOM     11  C   UNL     1      -1.927  13.811  22.308  0.00  0.00    +0.000 A 
ENDROOT
BRANCH   8  12
ATOM     12  C   UNL     1       0.364  12.714  19.451  0.00  0.00    +0.000 C 
ATOM     13  O   UNL     1       0.348  13.338  18.385  0.00  0.00    +0.000 OA
ATOM     14  N   UNL     1       1.162  11.576  19.553  0.00  0.00    +0.000 N 
ATOM     15  C   UNL     1       1.271  10.678  20.705  0.00  0.00    +0.000 C 
ATOM     16  C   UNL     1       0.817   9.265  20.284  0.00  0.00    +0.000 C 
ATOM     17  N   UNL     1       1.710   8.822  19.212  0.00  0.00    +0.000 N 
ATOM     18  C   UNL     1       1.752   9.686  18.016  0.00  0.00    +0.000 C 
ATOM     19  C   UNL     1       2.008  11.156  18.423  0.00  0.00    +0.000 C 
BRANCH  17  20
ATOM     20  C   UNL     1       2.193   7.532  19.177  0.00  0.00    +0.000 A 
ATOM     21  C   UNL     1       2.914   7.019  18.092  0.00  0.00    +0.000 A 
ATOM     22  C   UNL     1       3.315   5.679  18.060  0.00  0.00    +0.000 A 
ATOM     23  C   UNL     1       3.018   4.826  19.120  0.00  0.00    +0.000 A 
ATOM     24  C   UNL     1       2.296   5.319  20.202  0.00  0.00    +0.000 A 
ATOM     25  C   UNL     1       1.900   6.656  20.231  0.00  0.00    +0.000 A 
BRANCH  23  26
ATOM     26  O   UNL     1       3.430   3.530  18.973  0.00  0.00    +0.000 OA
ATOM     27  C   UNL     1       3.771   3.148  17.646  0.00  0.00    +0.000 C 
ENDBRANCH  23  26
ENDBRANCH  17  20
ENDBRANCH   8  12
BRANCH   1  28
ATOM     28  N   UNL     1      -4.402  13.650  22.799  0.00  0.00    +0.000 N 
BRANCH  28  30
ATOM     29  C   UNL     1      -5.467  15.051  21.026  0.00  0.00    +0.000 C 
ATOM     30  C   UNL     1      -5.201  14.869  22.513  0.00  0.00    +0.000 C 
ENDBRANCH  28  30
BRANCH  28  31
ATOM     31  C   UNL     1      -4.907  12.791  23.894  0.00  0.00    +0.000 C 
ATOM     32  C   UNL     1      -6.425  12.827  24.035  0.00  0.00    +0.000 C 
ENDBRANCH  28  31
ENDBRANCH   1  28
TORSDOF 6
ENDMDL
MODEL 4
REMARK VINA RESULT:      -6.5      2.082      2.960
REMARK  Name = 
REMARK  11 active torsions:
REMARK  status: ('A' for Active; 'I' for Inactive)
REMARK    1  A    between atoms: C_1  and  C_2
REMARK    2  A    between atoms: C_2  and  N_3
REMARK    3  A    between atoms: N_3  and  C_4
REMARK    4  A    between atoms: N_3  and  C_6
REMARK    5  A    between atoms: C_4  and  C_5
REMARK    6  A    between atoms: C_8  and  C_9
REMARK    7  A    between atoms: C_13  and  C_14
REMARK    8  A    between atoms: N_19  and  C_20
REMARK    9  A    between atoms: C_23  and  O_24
REMARK   10  A    between atoms: O_24  and  C_25
REMARK   11  A    between atoms: C_30  and  C_31
REMARK                            x       y       z     vdW  Elec       q    Type
REMARK                         _______ _______ _______ _____ _____    ______ ____
ROOT
ATOM      1  C   UNL     1      -3.216  13.832  23.221  0.00  0.00    +0.000 A 
ATOM      2  N   UNL     1      -3.034  14.472  24.420  0.00  0.00    +0.000 NA
ATOM      3  C   UNL     1      -1.839  14.967  24.750  0.00  0.00    +0.000 A 
ATOM      4  C   UNL     1      -1.713  15.756  26.024  0.00  0.00    +0.000 C 
ATOM      5  N   UNL     1      -0.736  14.867  24.030  0.00  0.00    +0.000 NA
ATOM      6  C   UNL     1      -0.898  14.233  22.872  0.00  0.00    +0.000 A 
ATOM      7  S   UNL     1       0.417  14.046  21.829  0.00  0.00    +0.000 S 
ATOM      8  C   UNL     1      -0.512  13.200  20.664  0.00  0.00    +0.000 A 
ATOM      9  C   UNL     1      -1.852  13.105  21.051  0.00  0.00    +0.000 A 
ATOM     10  C   UNL     1      -2.950  12.500  20.237  0.00  0.00    +0.000 C 
ATOM     11  C   UNL     1      -2.077  13.684  22.380  0.00  0.00    +0.000 A 
ENDROOT
BRANCH   8  12
ATOM     12  C   UNL     1       0.243  12.792  19.475  0.00  0.00    +0.000 C 
ATOM     13  O   UNL     1       0.214  13.468  18.441  0.00  0.00    +0.000 OA
ATOM     14  N   UNL     1       1.068  11.670  19.524  0.00  0.00    +0.000 N 
ATOM     15  C   UNL     1       1.196  10.719  20.630  0.00  0.00    +0.000 C 
ATOM     16  C   UNL     1       0.777   9.318  20.140  0.00  0.00    +0.000 C 
ATOM     17  N   UNL     1       1.682   8.950  19.050  0.00  0.00    +0.000 N 
ATOM     18  C   UNL     1       1.705   9.873  17.898  0.00  0.00    +0.000 C 
ATOM     19  C   UNL     1       1.926  11.327  18.377  0.00  0.00    +0.000 C 
BRANCH  17  20
ATOM     20  C   UNL     1       2.195   7.675  18.953  0.00  0.00    +0.000 A 
ATOM     21  C   UNL     1       1.983   6.693  19.927  0.00  0.00    +0.000 A 
ATOM     22  C   UNL     1       2.590   5.437  19.831  0.00  0.00    +0.000 A 
ATOM     23  C   UNL     1       3.411   5.128  18.749  0.00  0.00    +0.000 A 
ATOM     24  C   UNL     1       3.637   6.096  17.775  0.00  0.00    +0.000 A 
ATOM     25  C   UNL     1       3.028   7.347  17.874  0.00  0.00    +0.000 A 
BRANCH  23  26
ATOM     26  O   UNL     1       3.977   3.884  18.769  0.00  0.00    +0.000 OA
ATOM     27  C   UNL     1       4.117   3.299  20.058  0.00  0.00    +0.000 C 
ENDBRANCH  23  26
ENDBRANCH  17  20
ENDBRANCH   8  12
BRANCH   1  28
ATOM     28  N   UNL     1      -4.540  13.398  22.874  0.00  0.00    +0.000 N 
BRANCH  28  30
ATOM     29  C   UNL     1      -5.891  14.368  21.010  0.00  0.00    +0.000 C 
ATOM     30  C   UNL     1      -5.325  14.570  22.408  0.00  0.00    +0.000 C 
ENDBRANCH  28  30
BRANCH  28  31
ATOM     31  C   UNL     1      -5.094  12.676  24.042  0.00  0.00    +0.000 C 
ATOM     32  C   UNL     1      -6.608  12.804  24.165  0.00  0.00    +0.000 C 
ENDBRANCH  28  31
ENDBRANCH   1  28
TORSDOF 6
ENDMDL
MODEL 5
REMARK VINA RESULT:      -6.5      3.278     10.314
REMARK  Name = 
REMARK  11 active torsions:
REMARK  status: ('A' for Active; 'I' for Inactive)
REMARK    1  A    between atoms: C_1  and  C_2
REMARK    2  A    between atoms: C_2  and  N_3
REMARK    3  A    between atoms: N_3  and  C_4
REMARK    4  A    between atoms: N_3  and  C_6
REMARK    5  A    between atoms: C_4  and  C_5
REMARK    6  A    between atoms: C_8  and  C_9
REMARK    7  A    between atoms: C_13  and  C_14
REMARK    8  A    between atoms: N_19  and  C_20
REMARK    9  A    between atoms: C_23  and  O_24
REMARK   10  A    between atoms: O_24  and  C_25
REMARK   11  A    between atoms: C_30  and  C_31
REMARK                            x       y       z     vdW  Elec       q    Type
REMARK                         _______ _______ _______ _____ _____    ______ ____
ROOT
ATOM      1  C   UNL     1       3.365   4.678  18.122  0.00  0.00    +0.000 A 
ATOM      2  N   UNL     1       4.218   4.526  17.059  0.00  0.00    +0.000 NA
ATOM      3  C   UNL     1       4.686   5.593  16.408  0.00  0.00    +0.000 A 
ATOM      4  C   UNL     1       5.704   5.383  15.320  0.00  0.00    +0.000 C 
ATOM      5  N   UNL     1       4.369   6.850  16.657  0.00  0.00    +0.000 NA
ATOM      6  C   UNL     1       3.530   7.008  17.677  0.00  0.00    +0.000 A 
ATOM      7  S   UNL     1       3.048   8.561  18.132  0.00  0.00    +0.000 S 
ATOM      8  C   UNL     1       2.052   7.979  19.398  0.00  0.00    +0.000 A 
ATOM      9  C   UNL     1       2.127   6.587  19.508  0.00  0.00    +0.000 A 
ATOM     10  C   UNL     1       1.447   5.760  20.551  0.00  0.00    +0.000 C 
ATOM     11  C   UNL     1       2.975   6.003  18.462  0.00  0.00    +0.000 A 
ENDROOT
BRANCH   8  12
ATOM     12  C   UNL     1       1.363   9.031  20.154  0.00  0.00    +0.000 C 
ATOM     13  O   UNL     1       1.613   9.222  21.348  0.00  0.00    +0.000 OA
ATOM     14  N   UNL     1       0.469   9.882  19.507  0.00  0.00    +0.000 N 
ATOM     15  C   UNL     1       0.007   9.784  18.121  0.00  0.00    +0.000 C 
ATOM     16  C   UNL     1      -1.523   9.585  18.115  0.00  0.00    +0.000 C 
ATOM     17  N   UNL     1      -2.116  10.755  18.764  0.00  0.00    +0.000 N 
ATOM     18  C   UNL     1      -1.673  11.012  20.149  0.00  0.00    +0.000 C 
ATOM     19  C   UNL     1      -0.129  11.019  20.227  0.00  0.00    +0.000 C 
BRANCH  17  20
ATOM     20  C   UNL     1      -3.250  11.351  18.256  0.00  0.00    +0.000 A 
ATOM     21  C   UNL     1      -4.152  12.070  19.049  0.00  0.00    +0.000 A 
ATOM     22  C   UNL     1      -5.334  12.589  18.510  0.00  0.00    +0.000 A 
ATOM     23  C   UNL     1      -5.632  12.415  17.161  0.00  0.00    +0.000 A 
ATOM     24  C   UNL     1      -4.748  11.698  16.360  0.00  0.00    +0.000 A 
ATOM     25  C   UNL     1      -3.570  11.183  16.902  0.00  0.00    +0.000 A 
BRANCH  23  26
ATOM     26  O   UNL     1      -6.825  12.937  16.744  0.00  0.00    +0.000 OA
ATOM     27  C   UNL     1      -7.026  14.313  17.047  0.00  0.00    +0.000 C 
ENDBRANCH  23  26
ENDBRANCH  17  20
ENDBRANCH   8  12
BRANCH   1  28
ATOM     28  N   UNL     1       2.962   3.504  18.845  0.00  0.00    +0.000 N 
BRANCH  28  30
ATOM     29  C   UNL     1       4.354   2.252  20.499  0.00  0.00    +0.000 C 
ATOM     30  C   UNL     1       4.145   2.627  19.039  0.00  0.00    +0.000 C 
ENDBRANCH  28  30
BRANCH  28  31
ATOM     31  C   UNL     1       1.824   2.899  18.116  0.00  0.00    +0.000 C 
ATOM     32  C   UNL     1       0.690   2.457  19.034  0.00  0.00    +0.000 C 
ENDBRANCH  28  31
ENDBRANCH   1  28
TORSDOF 6
ENDMDL
MODEL 6
REMARK VINA RESULT:      -6.4      1.307      3.130
REMARK  Name = 
REMARK  11 active torsions:
REMARK  status: ('A' for Active; 'I' for Inactive)
REMARK    1  A    between atoms: C_1  and  C_2
REMARK    2  A    between atoms: C_2  and  N_3
REMARK    3  A    between atoms: N_3  and  C_4
REMARK    4  A    between atoms: N_3  and  C_6
REMARK    5  A    between atoms: C_4  and  C_5
REMARK    6  A    between atoms: C_8  and  C_9
REMARK    7  A    between atoms: C_13  and  C_14
REMARK    8  A    between atoms: N_19  and  C_20
REMARK    9  A    between atoms: C_23  and  O_24
REMARK   10  A    between atoms: O_24  and  C_25
REMARK   11  A    between atoms: C_30  and  C_31
REMARK                            x       y       z     vdW  Elec       q    Type
REMARK                         _______ _______ _______ _____ _____    ______ ____
ROOT
ATOM      1  C   UNL     1      -4.510  13.185  21.877  0.00  0.00    +0.000 A 
ATOM      2  N   UNL     1      -5.821  12.849  21.655  0.00  0.00    +0.000 NA
ATOM      3  C   UNL     1      -6.179  12.227  20.529  0.00  0.00    +0.000 A 
ATOM      4  C   UNL     1      -7.608  11.780  20.378  0.00  0.00    +0.000 C 
ATOM      5  N   UNL     1      -5.376  11.918  19.528  0.00  0.00    +0.000 NA
ATOM      6  C   UNL     1      -4.105  12.254  19.727  0.00  0.00    +0.000 A 
ATOM      7  S   UNL     1      -2.951  11.904  18.544  0.00  0.00    +0.000 S 
ATOM      8  C   UNL     1      -1.675  12.592  19.456  0.00  0.00    +0.000 A 
ATOM      9  C   UNL     1      -2.124  13.048  20.699  0.00  0.00    +0.000 A 
ATOM     10  C   UNL     1      -1.264  13.633  21.773  0.00  0.00    +0.000 C 
ATOM     11  C   UNL     1      -3.575  12.884  20.847  0.00  0.00    +0.000 A 
ENDROOT
BRANCH   8  12
ATOM     12  C   UNL     1      -0.364  12.524  18.802  0.00  0.00    +0.000 C 
ATOM     13  O   UNL     1       0.006  13.412  18.028  0.00  0.00    +0.000 OA
ATOM     14  N   UNL     1       0.514  11.487  19.108  0.00  0.00    +0.000 N 
ATOM     15  C   UNL     1       0.241  10.322  19.953  0.00  0.00    +0.000 C 
ATOM     16  C   UNL     1       0.393   9.041  19.107  0.00  0.00    +0.000 C 
ATOM     17  N   UNL     1       1.773   9.001  18.622  0.00  0.00    +0.000 N 
ATOM     18  C   UNL     1       2.202  10.160  17.815  0.00  0.00    +0.000 C 
ATOM     19  C   UNL     1       1.879  11.479  18.555  0.00  0.00    +0.000 C 
BRANCH  17  20
ATOM     20  C   UNL     1       2.490   7.825  18.618  0.00  0.00    +0.000 A 
ATOM     21  C   UNL     1       2.402   6.875  19.643  0.00  0.00    +0.000 A 
ATOM     22  C   UNL     1       3.208   5.733  19.643  0.00  0.00    +0.000 A 
ATOM     23  C   UNL     1       4.111   5.506  18.607  0.00  0.00    +0.000 A 
ATOM     24  C   UNL     1       4.216   6.442  17.583  0.00  0.00    +0.000 A 
ATOM     25  C   UNL     1       3.408   7.579  17.588  0.00  0.00    +0.000 A 
BRANCH  23  26
ATOM     26  O   UNL     1       4.872   4.374  18.719  0.00  0.00    +0.000 OA
ATOM     27  C   UNL     1       4.171   3.211  19.144  0.00  0.00    +0.000 C 
ENDBRANCH  23  26
ENDBRANCH  17  20
ENDBRANCH   8  12
BRANCH   1  28
ATOM     28  N   UNL     1      -4.162  13.772  23.141  0.00  0.00    +0.000 N 
BRANCH  28  30
ATOM     29  C   UNL     1      -4.861  12.356  25.077  0.00  0.00    +0.000 C 
ATOM     30  C   UNL     1      -3.762  12.693  24.079  0.00  0.00    +0.000 C 
ENDBRANCH  28  30
BRANCH  28  31
ATOM     31  C   UNL     1      -5.303  14.611  23.573  0.00  0.00    +0.000 C 
ATOM     32  C   UNL     1      -5.207  16.053  23.086  0.00  0.00    +0.000 C 
ENDBRANCH  28  31
ENDBRANCH   1  28
TORSDOF 6
ENDMDL
MODEL 7
REMARK VINA RESULT:      -6.3      4.414      6.615
REMARK  Name = 
REMARK  11 active torsions:
REMARK  status: ('A' for Active; 'I' for Inactive)
REMARK    1  A    between atoms: C_1  and  C_2
REMARK    2  A    between atoms: C_2  and  N_3
REMARK    3  A    between atoms: N_3  and  C_4
REMARK    4  A    between atoms: N_3  and  C_6
REMARK    5  A    between atoms: C_4  and  C_5
REMARK    6  A    between atoms: C_8  and  C_9
REMARK    7  A    between atoms: C_13  and  C_14
REMARK    8  A    between atoms: N_19  and  C_20
REMARK    9  A    between atoms: C_23  and  O_24
REMARK   10  A    between atoms: O_24  and  C_25
REMARK   11  A    between atoms: C_30  and  C_31
REMARK                            x       y       z     vdW  Elec       q    Type
REMARK                         _______ _______ _______ _____ _____    ______ ____
ROOT
ATOM      1  C   UNL     1       2.059  16.116  19.235  0.00  0.00    +0.000 A 
ATOM      2  N   UNL     1       1.426  17.081  18.496  0.00  0.00    +0.000 NA
ATOM      3  C   UNL     1       0.106  17.027  18.300  0.00  0.00    +0.000 A 
ATOM      4  C   UNL     1      -0.561  18.166  17.578  0.00  0.00    +0.000 C 
ATOM      5  N   UNL     1      -0.700  16.072  18.726  0.00  0.00    +0.000 NA
ATOM      6  C   UNL     1      -0.092  15.121  19.430  0.00  0.00    +0.000 A 
ATOM      7  S   UNL     1      -0.994  13.841  20.062  0.00  0.00    +0.000 S 
ATOM      8  C   UNL     1       0.381  13.102  20.767  0.00  0.00    +0.000 A 
ATOM      9  C   UNL     1       1.533  13.866  20.563  0.00  0.00    +0.000 A 
ATOM     10  C   UNL     1       2.890  13.556  21.107  0.00  0.00    +0.000 C 
ATOM     11  C   UNL     1       1.263  15.048  19.735  0.00  0.00    +0.000 A 
ENDROOT
BRANCH   8  12
ATOM     12  C   UNL     1       0.090  11.859  21.490  0.00  0.00    +0.000 C 
ATOM     13  O   UNL     1      -0.313  11.882  22.656  0.00  0.00    +0.000 OA
ATOM     14  N   UNL     1       0.196  10.633  20.837  0.00  0.00    +0.000 N 
ATOM     15  C   UNL     1       0.703  10.396  19.483  0.00  0.00    +0.000 C 
ATOM     16  C   UNL     1       1.941   9.479  19.564  0.00  0.00    +0.000 C 
ATOM     17  N   UNL     1       1.509   8.218  20.169  0.00  0.00    +0.000 N 
ATOM     18  C   UNL     1       0.906   8.326  21.512  0.00  0.00    +0.000 C 
ATOM     19  C   UNL     1      -0.215   9.391  21.514  0.00  0.00    +0.000 C 
BRANCH  17  20
ATOM     20  C   UNL     1       1.952   7.008  19.682  0.00  0.00    +0.000 A 
ATOM     21  C   UNL     1       1.899   5.823  20.425  0.00  0.00    +0.000 A 
ATOM     22  C   UNL     1       2.435   4.632  19.925  0.00  0.00    +0.000 A 
ATOM     23  C   UNL     1       3.022   4.595  18.662  0.00  0.00    +0.000 A 
ATOM     24  C   UNL     1       3.088   5.766  17.913  0.00  0.00    +0.000 A 
ATOM     25  C   UNL     1       2.551   6.951  18.416  0.00  0.00    +0.000 A 
BRANCH  23  26
ATOM     26  O   UNL     1       3.540   3.388  18.283  0.00  0.00    +0.000 OA
ATOM     27  C   UNL     1       2.582   2.409  17.898  0.00  0.00    +0.000 C 
ENDBRANCH  23  26
ENDBRANCH  17  20
ENDBRANCH   8  12
BRANCH   1  28
ATOM     28  N   UNL     1       3.464  16.267  19.491  0.00  0.00    +0.000 N 
BRANCH  28  30
ATOM     29  C   UNL     1       5.145  17.830  20.480  0.00  0.00    +0.000 C 
ATOM     30  C   UNL     1       3.673  17.468  20.339  0.00  0.00    +0.000 C 
ENDBRANCH  28  30
BRANCH  28  31
ATOM     31  C   UNL     1       4.159  16.273  18.184  0.00  0.00    +0.000 C 
ATOM     32  C   UNL     1       4.862  14.956  17.872  0.00  0.00    +0.000 C 
ENDBRANCH  28  31
ENDBRANCH   1  28
TORSDOF 6
ENDMDL
MODEL 8
REMARK VINA RESULT:      -6.3      2.477      4.406
REMARK  Name = 
REMARK  11 active torsions:
REMARK  status: ('A' for Active; 'I' for Inactive)
REMARK    1  A    between atoms: C_1  and  C_2
REMARK    2  A    between atoms: C_2  and  N_3
REMARK    3  A    between atoms: N_3  and  C_4
REMARK    4  A    between atoms: N_3  and  C_6
REMARK    5  A    between atoms: C_4  and  C_5
REMARK    6  A    between atoms: C_8  and  C_9
REMARK    7  A    between atoms: C_13  and  C_14
REMARK    8  A    between atoms: N_19  and  C_20
REMARK    9  A    between atoms: C_23  and  O_24
REMARK   10  A    between atoms: O_24  and  C_25
REMARK   11  A    between atoms: C_30  and  C_31
REMARK                            x       y       z     vdW  Elec       q    Type
REMARK                         _______ _______ _______ _____ _____    ______ ____
ROOT
ATOM      1  C   UNL     1      -2.541  14.810  23.432  0.00  0.00    +0.000 A 
ATOM      2  N   UNL     1      -3.790  14.524  23.919  0.00  0.00    +0.000 NA
ATOM      3  C   UNL     1      -4.544  13.585  23.342  0.00  0.00    +0.000 A 
ATOM      4  C   UNL     1      -5.860  13.229  23.976  0.00  0.00    +0.000 C 
ATOM      5  N   UNL     1      -4.222  12.889  22.267  0.00  0.00    +0.000 NA
ATOM      6  C   UNL     1      -3.018  13.171  21.777  0.00  0.00    +0.000 A 
ATOM      7  S   UNL     1      -2.455  12.346  20.415  0.00  0.00    +0.000 S 
ATOM      8  C   UNL     1      -0.971  13.200  20.400  0.00  0.00    +0.000 A 
ATOM      9  C   UNL     1      -0.881  14.089  21.476  0.00  0.00    +0.000 A 
ATOM     10  C   UNL     1       0.305  14.934  21.809  0.00  0.00    +0.000 C 
ATOM     11  C   UNL     1      -2.113  14.101  22.274  0.00  0.00    +0.000 A 
ENDROOT
BRANCH   8  12
ATOM     12  C   UNL     1      -0.062  12.809  19.316  0.00  0.00    +0.000 C 
ATOM     13  O   UNL     1       0.002  13.465  18.273  0.00  0.00    +0.000 OA
ATOM     14  N   UNL     1       0.798  11.726  19.487  0.00  0.00    +0.000 N 
ATOM     15  C   UNL     1       0.835  10.800  20.620  0.00  0.00    +0.000 C 
ATOM     16  C   UNL     1       0.538   9.373  20.113  0.00  0.00    +0.000 C 
ATOM     17  N   UNL     1       1.582   9.030  19.146  0.00  0.00    +0.000 N 
ATOM     18  C   UNL     1       1.702   9.934  17.986  0.00  0.00    +0.000 C 
ATOM     19  C   UNL     1       1.801  11.404  18.457  0.00  0.00    +0.000 C 
BRANCH  17  20
ATOM     20  C   UNL     1       2.158   7.778  19.137  0.00  0.00    +0.000 A 
ATOM     21  C   UNL     1       2.911   7.295  18.061  0.00  0.00    +0.000 A 
ATOM     22  C   UNL     1       3.410   5.988  18.056  0.00  0.00    +0.000 A 
ATOM     23  C   UNL     1       3.179   5.139  19.137  0.00  0.00    +0.000 A 
ATOM     24  C   UNL     1       2.427   5.602  20.212  0.00  0.00    +0.000 A 
ATOM     25  C   UNL     1       1.934   6.907  20.212  0.00  0.00    +0.000 A 
BRANCH  23  26
ATOM     26  O   UNL     1       3.685   3.875  19.017  0.00  0.00    +0.000 OA
ATOM     27  C   UNL     1       4.420   3.624  17.825  0.00  0.00    +0.000 C 
ENDBRANCH  23  26
ENDBRANCH  17  20
ENDBRANCH   8  12
BRANCH   1  28
ATOM     28  N   UNL     1      -1.735  15.763  24.142  0.00  0.00    +0.000 N 
BRANCH  28  30
ATOM     29  C   UNL     1      -1.090  16.427  26.462  0.00  0.00    +0.000 C 
ATOM     30  C   UNL     1      -1.583  15.314  25.549  0.00  0.00    +0.000 C 
ENDBRANCH  28  30
BRANCH  28  31
ATOM     31  C   UNL     1      -2.351  17.097  23.954  0.00  0.00    +0.000 C 
ATOM     32  C   UNL     1      -1.643  17.943  22.902  0.00  0.00    +0.000 C 
ENDBRANCH  28  31
ENDBRANCH   1  28
TORSDOF 6
ENDMDL
MODEL 9
REMARK VINA RESULT:      -6.1      1.854      2.731
REMARK  Name = 
REMARK  11 active torsions:
REMARK  status: ('A' for Active; 'I' for Inactive)
REMARK    1  A    between atoms: C_1  and  C_2
REMARK    2  A    between atoms: C_2  and  N_3
REMARK    3  A    between atoms: N_3  and  C_4
REMARK    4  A    between atoms: N_3  and  C_6
REMARK    5  A    between atoms: C_4  and  C_5
REMARK    6  A    between atoms: C_8  and  C_9
REMARK    7  A    between atoms: C_13  and  C_14
REMARK    8  A    between atoms: N_19  and  C_20
REMARK    9  A    between atoms: C_23  and  O_24
REMARK   10  A    between atoms: O_24  and  C_25
REMARK   11  A    between atoms: C_30  and  C_31
REMARK                            x       y       z     vdW  Elec       q    Type
REMARK                         _______ _______ _______ _____ _____    ______ ____
ROOT
ATOM      1  C   UNL     1      -4.732  14.592  22.954  0.00  0.00    +0.000 A 
ATOM      2  N   UNL     1      -5.044  15.523  23.912  0.00  0.00    +0.000 NA
ATOM      3  C   UNL     1      -4.231  16.557  24.141  0.00  0.00    +0.000 A 
ATOM      4  C   UNL     1      -4.668  17.611  25.122  0.00  0.00    +0.000 C 
ATOM      5  N   UNL     1      -3.074  16.777  23.546  0.00  0.00    +0.000 NA
ATOM      6  C   UNL     1      -2.754  15.870  22.626  0.00  0.00    +0.000 A 
ATOM      7  S   UNL     1      -1.312  16.027  21.762  0.00  0.00    +0.000 S 
ATOM      8  C   UNL     1      -1.592  14.599  20.859  0.00  0.00    +0.000 A 
ATOM      9  C   UNL     1      -2.825  14.024  21.183  0.00  0.00    +0.000 A 
ATOM     10  C   UNL     1      -3.418  12.816  20.532  0.00  0.00    +0.000 C 
ATOM     11  C   UNL     1      -3.500  14.756  22.261  0.00  0.00    +0.000 A 
ENDROOT
BRANCH   8  12
ATOM     12  C   UNL     1      -0.536  14.283  19.891  0.00  0.00    +0.000 C 
ATOM     13  O   UNL     1      -0.261  15.063  18.974  0.00  0.00    +0.000 OA
ATOM     14  N   UNL     1       0.224  13.126  20.043  0.00  0.00    +0.000 N 
ATOM     15  C   UNL     1       0.019  12.060  21.027  0.00  0.00    +0.000 C 
ATOM     16  C   UNL     1      -0.263  10.738  20.284  0.00  0.00    +0.000 C 
ATOM     17  N   UNL     1       0.909  10.444  19.458  0.00  0.00    +0.000 N 
ATOM     18  C   UNL     1       1.271  11.479  18.470  0.00  0.00    +0.000 C 
ATOM     19  C   UNL     1       1.367  12.864  19.153  0.00  0.00    +0.000 C 
BRANCH  17  20
ATOM     20  C   UNL     1       1.410   9.164  19.366  0.00  0.00    +0.000 A 
ATOM     21  C   UNL     1       1.436   8.277  20.449  0.00  0.00    +0.000 A 
ATOM     22  C   UNL     1       2.029   7.016  20.336  0.00  0.00    +0.000 A 
ATOM     23  C   UNL     1       2.595   6.606  19.132  0.00  0.00    +0.000 A 
ATOM     24  C   UNL     1       2.583   7.477  18.048  0.00  0.00    +0.000 A 
ATOM     25  C   UNL     1       1.989   8.734  18.165  0.00  0.00    +0.000 A 
BRANCH  23  26
ATOM     26  O   UNL     1       3.174   5.367  19.139  0.00  0.00    +0.000 OA
ATOM     27  C   UNL     1       2.719   4.477  18.126  0.00  0.00    +0.000 C 
ENDBRANCH  23  26
ENDBRANCH  17  20
ENDBRANCH   8  12
BRANCH   1  28
ATOM     28  N   UNL     1      -5.681  13.549  22.684  0.00  0.00    +0.000 N 
BRANCH  28  30
ATOM     29  C   UNL     1      -7.318  13.205  20.828  0.00  0.00    +0.000 C 
ATOM     30  C   UNL     1      -6.831  14.124  21.940  0.00  0.00    +0.000 C 
ENDBRANCH  28  30
BRANCH  28  31
ATOM     31  C   UNL     1      -6.009  12.898  23.973  0.00  0.00    +0.000 C 
ATOM     32  C   UNL     1      -4.813  12.208  24.619  0.00  0.00    +0.000 C 
ENDBRANCH  28  31
ENDBRANCH   1  28
TORSDOF 6
ENDMDL
