MODEL 1
REMARK VINA RESULT:     -10.3      0.000      0.000
REMARK  Name = 
REMARK  8 active torsions:
REMARK  status: ('A' for Active; 'I' for Inactive)
REMARK    1  A    between atoms: C_1  and  C_2
REMARK    2  A    between atoms: C_4  and  N_5
REMARK    3  A    between atoms: C_6  and  C_8
REMARK    4  A    between atoms: C_13  and  N_14
REMARK    5  A    between atoms: N_14  and  C_15
REMARK    6  A    between atoms: C_19  and  C_20
REMARK    7  A    between atoms: C_21  and  C_22
REMARK    8  A    between atoms: N_32  and  C_33
REMARK                            x       y       z     vdW  Elec       q    Type
REMARK                         _______ _______ _______ _____ _____    ______ ____
ROOT
ATOM      1  N   UNL     1       2.933   6.098  19.918  0.00  0.00    +0.000 N 
ATOM      2  H   UNL     1       3.575   6.189  20.711  0.00  0.00    +0.000 HD
ENDROOT
BRANCH   1   3
ATOM      3  C   UNL     1       2.044   7.210  19.907  0.00  0.00    +0.000 A 
ATOM      4  C   UNL     1       1.229   7.415  21.029  0.00  0.00    +0.000 A 
ATOM      5  C   UNL     1       0.516   8.605  21.210  0.00  0.00    +0.000 A 
ATOM      6  C   UNL     1       0.666   9.640  20.270  0.00  0.00    +0.000 A 
ATOM      7  C   UNL     1       0.340  11.031  20.198  0.00  0.00    +0.000 A 
ATOM      8  N   UNL     1       0.625  11.532  18.992  0.00  0.00    +0.000 NA
ATOM      9  N   UNL     1       1.236  10.518  18.350  0.00  0.00    +0.000 N 
ATOM     10  C   UNL     1       1.370   9.378  19.101  0.00  0.00    +0.000 A 
ATOM     11  C   UNL     1       2.069   8.179  18.885  0.00  0.00    +0.000 A 
ATOM     12  H   UNL     1       1.582  10.692  17.412  0.00  0.00    +0.000 HD
BRANCH   7  13
ATOM     13  C   UNL     1      -0.122  11.845  21.291  0.00  0.00    +0.000 C 
ATOM     14  C   UNL     1      -1.415  11.929  21.653  0.00  0.00    +0.000 C 
BRANCH  14  15
ATOM     15  C   UNL     1      -2.033  12.674  22.756  0.00  0.00    +0.000 A 
ATOM     16  C   UNL     1      -1.551  13.873  23.264  0.00  0.00    +0.000 A 
ATOM     17  C   UNL     1      -2.288  14.521  24.255  0.00  0.00    +0.000 A 
ATOM     18  C   UNL     1      -3.473  13.955  24.711  0.00  0.00    +0.000 A 
ATOM     19  C   UNL     1      -3.877  12.757  24.155  0.00  0.00    +0.000 A 
ATOM     20  N   UNL     1      -3.188  12.113  23.190  0.00  0.00    +0.000 NA
ENDBRANCH  14  15
ENDBRANCH   7  13
ENDBRANCH   1   3
BRANCH   1  26
ATOM     21  C   UNL     1       3.105   4.000  18.635  0.00  0.00    +0.000 A 
ATOM     22  C   UNL     1       2.821   2.630  18.497  0.00  0.00    +0.000 A 
ATOM     23  C   UNL     1       2.069   1.964  19.460  0.00  0.00    +0.000 A 
ATOM     24  C   UNL     1       1.620   2.657  20.577  0.00  0.00    +0.000 A 
ATOM     25  C   UNL     1       1.897   4.021  20.719  0.00  0.00    +0.000 A 
ATOM     26  C   UNL     1       2.611   4.727  19.737  0.00  0.00    +0.000 A 
BRANCH  21  28
ATOM     27  N   UNL     1       5.018   3.797  17.041  0.00  0.00    +0.000 N 
ATOM     28  C   UNL     1       3.948   4.594  17.572  0.00  0.00    +0.000 C 
ATOM     29  O   UNL     1       3.752   5.737  17.185  0.00  0.00    +0.000 OA
ATOM     30  H   UNL     1       5.129   2.859  17.417  0.00  0.00    +0.000 HD
BRANCH  27  34
ATOM     31  C   UNL     1       7.419   4.915  12.793  0.00  0.00    +0.000 C 
ATOM     32  C   UNL     1       7.017   4.767  14.214  0.00  0.00    +0.000 A 
ATOM     33  C   UNL     1       5.974   3.975  14.742  0.00  0.00    +0.000 A 
ATOM     34  C   UNL     1       5.923   4.265  16.088  0.00  0.00    +0.000 A 
ATOM     35  N   UNL     1       6.952   5.157  16.294  0.00  0.00    +0.000 N 
ATOM     36  C   UNL     1       7.287   5.863  17.506  0.00  0.00    +0.000 C 
ATOM     37  N   UNL     1       7.631   5.467  15.171  0.00  0.00    +0.000 NA
ENDBRANCH  27  34
ENDBRANCH  21  28
ENDBRANCH   1  26
TORSDOF 6
ENDMDL
MODEL 2
REMARK VINA RESULT:      -9.9      1.188      1.549
REMARK  Name = 
REMARK  8 active torsions:
REMARK  status: ('A' for Active; 'I' for Inactive)
REMARK    1  A    between atoms: C_1  and  C_2
REMARK    2  A    between atoms: C_4  and  N_5
REMARK    3  A    between atoms: C_6  and  C_8
REMARK    4  A    between atoms: C_13  and  N_14
REMARK    5  A    between atoms: N_14  and  C_15
REMARK    6  A    between atoms: C_19  and  C_20
REMARK    7  A    between atoms: C_21  and  C_22
REMARK    8  A    between atoms: N_32  and  C_33
REMARK                            x       y       z     vdW  Elec       q    Type
REMARK                         _______ _______ _______ _____ _____    ______ ____
ROOT
ATOM      1  N   UNL     1       2.898   6.419  20.080  0.00  0.00    +0.000 N 
ATOM      2  H   UNL     1       3.560   6.636  20.831  0.00  0.00    +0.000 HD
ENDROOT
BRANCH   1   3
ATOM      3  C   UNL     1       1.952   7.478  19.973  0.00  0.00    +0.000 A 
ATOM      4  C   UNL     1       1.103   7.719  21.063  0.00  0.00    +0.000 A 
ATOM      5  C   UNL     1       0.325   8.878  21.145  0.00  0.00    +0.000 A 
ATOM      6  C   UNL     1       0.439   9.850  20.135  0.00  0.00    +0.000 A 
ATOM      7  C   UNL     1       0.042  11.212  19.957  0.00  0.00    +0.000 A 
ATOM      8  N   UNL     1       0.326  11.640  18.722  0.00  0.00    +0.000 NA
ATOM      9  N   UNL     1       1.002  10.618  18.166  0.00  0.00    +0.000 N 
ATOM     10  C   UNL     1       1.181   9.543  19.000  0.00  0.00    +0.000 A 
ATOM     11  C   UNL     1       1.947   8.372  18.884  0.00  0.00    +0.000 A 
ATOM     12  H   UNL     1       1.359  10.742  17.224  0.00  0.00    +0.000 HD
BRANCH   7  13
ATOM     13  C   UNL     1      -0.485  12.076  20.980  0.00  0.00    +0.000 C 
ATOM     14  C   UNL     1       0.187  13.133  21.470  0.00  0.00    +0.000 C 
BRANCH  14  15
ATOM     15  C   UNL     1      -0.225  14.122  22.473  0.00  0.00    +0.000 A 
ATOM     16  C   UNL     1      -1.247  13.931  23.395  0.00  0.00    +0.000 A 
ATOM     17  C   UNL     1      -1.474  14.919  24.352  0.00  0.00    +0.000 A 
ATOM     18  C   UNL     1      -0.684  16.064  24.359  0.00  0.00    +0.000 A 
ATOM     19  C   UNL     1       0.306  16.176  23.404  0.00  0.00    +0.000 A 
ATOM     20  N   UNL     1       0.553  15.232  22.471  0.00  0.00    +0.000 NA
ENDBRANCH  14  15
ENDBRANCH   7  13
ENDBRANCH   1   3
BRANCH   1  26
ATOM     21  C   UNL     1       3.144   4.193  19.052  0.00  0.00    +0.000 A 
ATOM     22  C   UNL     1       2.927   2.804  19.089  0.00  0.00    +0.000 A 
ATOM     23  C   UNL     1       2.237   2.224  20.148  0.00  0.00    +0.000 A 
ATOM     24  C   UNL     1       1.783   3.024  21.189  0.00  0.00    +0.000 A 
ATOM     25  C   UNL     1       1.993   4.407  21.158  0.00  0.00    +0.000 A 
ATOM     26  C   UNL     1       2.643   5.023  20.075  0.00  0.00    +0.000 A 
BRANCH  21  28
ATOM     27  N   UNL     1       5.079   3.941  17.492  0.00  0.00    +0.000 N 
ATOM     28  C   UNL     1       3.926   4.694  17.898  0.00  0.00    +0.000 C 
ATOM     29  O   UNL     1       3.612   5.732  17.334  0.00  0.00    +0.000 OA
ATOM     30  H   UNL     1       5.287   3.093  18.014  0.00  0.00    +0.000 HD
BRANCH  27  34
ATOM     31  C   UNL     1       7.272   4.763  13.067  0.00  0.00    +0.000 C 
ATOM     32  C   UNL     1       6.938   4.714  14.513  0.00  0.00    +0.000 A 
ATOM     33  C   UNL     1       5.926   3.958  15.144  0.00  0.00    +0.000 A 
ATOM     34  C   UNL     1       5.936   4.343  16.467  0.00  0.00    +0.000 A 
ATOM     35  N   UNL     1       6.967   5.250  16.561  0.00  0.00    +0.000 N 
ATOM     36  C   UNL     1       7.355   6.041  17.704  0.00  0.00    +0.000 C 
ATOM     37  N   UNL     1       7.592   5.481  15.389  0.00  0.00    +0.000 NA
ENDBRANCH  27  34
ENDBRANCH  21  28
ENDBRANCH   1  26
TORSDOF 6
ENDMDL
MODEL 3
REMARK VINA RESULT:      -9.7      0.992      1.188
REMARK  Name = 
REMARK  8 active torsions:
REMARK  status: ('A' for Active; 'I' for Inactive)
REMARK    1  A    between atoms: C_1  and  C_2
REMARK    2  A    between atoms: C_4  and  N_5
REMARK    3  A    between atoms: C_6  and  C_8
REMARK    4  A    between atoms: C_13  and  N_14
REMARK    5  A    between atoms: N_14  and  C_15
REMARK    6  A    between atoms: C_19  and  C_20
REMARK    7  A    between atoms: C_21  and  C_22
REMARK    8  A    between atoms: N_32  and  C_33
REMARK                            x       y       z     vdW  Elec       q    Type
REMARK                         _______ _______ _______ _____ _____    ______ ____
ROOT
ATOM      1  N   UNL     1       3.002   6.259  19.850  0.00  0.00    +0.000 N 
ATOM      2  H   UNL     1       3.785   6.487  20.469  0.00  0.00    +0.000 HD
ENDROOT
BRANCH   1   3
ATOM      3  C   UNL     1       2.121   7.376  19.780  0.00  0.00    +0.000 A 
ATOM      4  C   UNL     1       1.324   7.660  20.898  0.00  0.00    +0.000 A 
ATOM      5  C   UNL     1       0.624   8.864  21.012  0.00  0.00    +0.000 A 
ATOM      6  C   UNL     1       0.767   9.835  20.005  0.00  0.00    +0.000 A 
ATOM      7  C   UNL     1       0.450  11.222  19.848  0.00  0.00    +0.000 A 
ATOM      8  N   UNL     1       0.721  11.641  18.608  0.00  0.00    +0.000 NA
ATOM      9  N   UNL     1       1.314  10.583  18.024  0.00  0.00    +0.000 N 
ATOM     10  C   UNL     1       1.451   9.493  18.845  0.00  0.00    +0.000 A 
ATOM     11  C   UNL     1       2.138   8.276  18.697  0.00  0.00    +0.000 A 
ATOM     12  H   UNL     1       1.647  10.692  17.072  0.00  0.00    +0.000 HD
BRANCH   7  13
ATOM     13  C   UNL     1       0.011  12.109  20.893  0.00  0.00    +0.000 C 
ATOM     14  C   UNL     1      -1.229  12.079  21.413  0.00  0.00    +0.000 C 
BRANCH  14  15
ATOM     15  C   UNL     1      -1.811  12.879  22.496  0.00  0.00    +0.000 A 
ATOM     16  C   UNL     1      -3.080  12.682  23.027  0.00  0.00    +0.000 A 
ATOM     17  C   UNL     1      -3.473  13.457  24.118  0.00  0.00    +0.000 A 
ATOM     18  C   UNL     1      -2.599  14.403  24.640  0.00  0.00    +0.000 A 
ATOM     19  C   UNL     1      -1.358  14.538  24.048  0.00  0.00    +0.000 A 
ATOM     20  N   UNL     1      -0.949  13.797  22.998  0.00  0.00    +0.000 NA
ENDBRANCH  14  15
ENDBRANCH   7  13
ENDBRANCH   1   3
BRANCH   1  26
ATOM     21  C   UNL     1       3.434   3.867  19.442  0.00  0.00    +0.000 A 
ATOM     22  C   UNL     1       3.113   2.516  19.664  0.00  0.00    +0.000 A 
ATOM     23  C   UNL     1       2.039   2.170  20.477  0.00  0.00    +0.000 A 
ATOM     24  C   UNL     1       1.298   3.169  21.095  0.00  0.00    +0.000 A 
ATOM     25  C   UNL     1       1.612   4.515  20.877  0.00  0.00    +0.000 A 
ATOM     26  C   UNL     1       2.659   4.892  20.020  0.00  0.00    +0.000 A 
BRANCH  21  28
ATOM     27  N   UNL     1       4.405   4.618  17.266  0.00  0.00    +0.000 N 
ATOM     28  C   UNL     1       4.622   4.117  18.593  0.00  0.00    +0.000 C 
ATOM     29  O   UNL     1       5.747   3.873  19.006  0.00  0.00    +0.000 OA
ATOM     30  H   UNL     1       3.442   4.787  16.985  0.00  0.00    +0.000 HD
BRANCH  27  34
ATOM     31  C   UNL     1       7.357   4.586  13.223  0.00  0.00    +0.000 C 
ATOM     32  C   UNL     1       6.770   4.824  14.565  0.00  0.00    +0.000 A 
ATOM     33  C   UNL     1       5.658   4.180  15.151  0.00  0.00    +0.000 A 
ATOM     34  C   UNL     1       5.433   4.828  16.347  0.00  0.00    +0.000 A 
ATOM     35  N   UNL     1       6.435   5.770  16.430  0.00  0.00    +0.000 N 
ATOM     36  C   UNL     1       6.615   6.791  17.433  0.00  0.00    +0.000 C 
ATOM     37  N   UNL     1       7.260   5.776  15.363  0.00  0.00    +0.000 NA
ENDBRANCH  27  34
ENDBRANCH  21  28
ENDBRANCH   1  26
TORSDOF 6
ENDMDL
MODEL 4
REMARK VINA RESULT:      -9.3      1.267      1.521
REMARK  Name = 
REMARK  8 active torsions:
REMARK  status: ('A' for Active; 'I' for Inactive)
REMARK    1  A    between atoms: C_1  and  C_2
REMARK    2  A    between atoms: C_4  and  N_5
REMARK    3  A    between atoms: C_6  and  C_8
REMARK    4  A    between atoms: C_13  and  N_14
REMARK    5  A    between atoms: N_14  and  C_15
REMARK    6  A    between atoms: C_19  and  C_20
REMARK    7  A    between atoms: C_21  and  C_22
REMARK    8  A    between atoms: N_32  and  C_33
REMARK                            x       y       z     vdW  Elec       q    Type
REMARK                         _______ _______ _______ _____ _____    ______ ____
ROOT
ATOM      1  N   UNL     1       2.572   6.763  19.818  0.00  0.00    +0.000 N 
ATOM      2  H   UNL     1       3.378   6.840  20.446  0.00  0.00    +0.000 HD
ENDROOT
BRANCH   1   3
ATOM      3  C   UNL     1       1.727   7.894  20.005  0.00  0.00    +0.000 A 
ATOM      4  C   UNL     1       1.249   8.156  21.296  0.00  0.00    +0.000 A 
ATOM      5  C   UNL     1       0.627   9.367  21.617  0.00  0.00    +0.000 A 
ATOM      6  C   UNL     1       0.528  10.365  20.631  0.00  0.00    +0.000 A 
ATOM      7  C   UNL     1       0.212  11.760  20.596  0.00  0.00    +0.000 A 
ATOM      8  N   UNL     1       0.165  12.212  19.338  0.00  0.00    +0.000 NA
ATOM      9  N   UNL     1       0.566  11.164  18.595  0.00  0.00    +0.000 N 
ATOM     10  C   UNL     1       0.885  10.048  19.326  0.00  0.00    +0.000 A 
ATOM     11  C   UNL     1       1.485   8.826  18.977  0.00  0.00    +0.000 A 
ATOM     12  H   UNL     1       0.647  11.297  17.593  0.00  0.00    +0.000 HD
BRANCH   7  13
ATOM     13  C   UNL     1       0.074  12.622  21.740  0.00  0.00    +0.000 C 
ATOM     14  C   UNL     1      -0.295  13.912  21.651  0.00  0.00    +0.000 C 
BRANCH  14  15
ATOM     15  C   UNL     1      -0.517  14.899  22.714  0.00  0.00    +0.000 A 
ATOM     16  C   UNL     1      -0.119  16.229  22.651  0.00  0.00    +0.000 A 
ATOM     17  C   UNL     1      -0.474  17.081  23.696  0.00  0.00    +0.000 A 
ATOM     18  C   UNL     1      -1.206  16.585  24.769  0.00  0.00    +0.000 A 
ATOM     19  C   UNL     1      -1.555  15.249  24.755  0.00  0.00    +0.000 A 
ATOM     20  N   UNL     1      -1.232  14.404  23.754  0.00  0.00    +0.000 NA
ENDBRANCH  14  15
ENDBRANCH   7  13
ENDBRANCH   1   3
BRANCH   1  26
ATOM     21  C   UNL     1       2.753   4.552  18.746  0.00  0.00    +0.000 A 
ATOM     22  C   UNL     1       2.403   3.190  18.694  0.00  0.00    +0.000 A 
ATOM     23  C   UNL     1       1.513   2.655  19.619  0.00  0.00    +0.000 A 
ATOM     24  C   UNL     1       0.989   3.468  20.615  0.00  0.00    +0.000 A 
ATOM     25  C   UNL     1       1.332   4.824  20.671  0.00  0.00    +0.000 A 
ATOM     26  C   UNL     1       2.189   5.400  19.719  0.00  0.00    +0.000 A 
BRANCH  21  28
ATOM     27  N   UNL     1       4.660   4.030  17.218  0.00  0.00    +0.000 N 
ATOM     28  C   UNL     1       3.741   5.003  17.738  0.00  0.00    +0.000 C 
ATOM     29  O   UNL     1       3.785   6.173  17.387  0.00  0.00    +0.000 OA
ATOM     30  H   UNL     1       4.572   3.077  17.563  0.00  0.00    +0.000 HD
BRANCH  27  34
ATOM     31  C   UNL     1       7.359   4.977  13.109  0.00  0.00    +0.000 C 
ATOM     32  C   UNL     1       6.906   4.758  14.505  0.00  0.00    +0.000 A 
ATOM     33  C   UNL     1       5.669   4.236  14.943  0.00  0.00    +0.000 A 
ATOM     34  C   UNL     1       5.679   4.342  16.318  0.00  0.00    +0.000 A 
ATOM     35  N   UNL     1       6.918   4.862  16.620  0.00  0.00    +0.000 N 
ATOM     36  C   UNL     1       7.421   5.268  17.910  0.00  0.00    +0.000 C 
ATOM     37  N   UNL     1       7.678   5.112  15.536  0.00  0.00    +0.000 NA
ENDBRANCH  27  34
ENDBRANCH  21  28
ENDBRANCH   1  26
TORSDOF 6
ENDMDL
MODEL 5
REMARK VINA RESULT:      -9.2      2.520      3.341
REMARK  Name = 
REMARK  8 active torsions:
REMARK  status: ('A' for Active; 'I' for Inactive)
REMARK    1  A    between atoms: C_1  and  C_2
REMARK    2  A    between atoms: C_4  and  N_5
REMARK    3  A    between atoms: C_6  and  C_8
REMARK    4  A    between atoms: C_13  and  N_14
REMARK    5  A    between atoms: N_14  and  C_15
REMARK    6  A    between atoms: C_19  and  C_20
REMARK    7  A    between atoms: C_21  and  C_22
REMARK    8  A    between atoms: N_32  and  C_33
REMARK                            x       y       z     vdW  Elec       q    Type
REMARK                         _______ _______ _______ _____ _____    ______ ____
ROOT
ATOM      1  N   UNL     1       2.920   6.011  20.103  0.00  0.00    +0.000 N 
ATOM      2  H   UNL     1       3.482   5.826  20.939  0.00  0.00    +0.000 HD
ENDROOT
BRANCH   1   3
ATOM      3  C   UNL     1       2.328   7.302  20.215  0.00  0.00    +0.000 A 
ATOM      4  C   UNL     1       2.030   7.997  19.035  0.00  0.00    +0.000 A 
ATOM      5  C   UNL     1       1.232   9.145  19.042  0.00  0.00    +0.000 A 
ATOM      6  C   UNL     1       0.672   9.579  20.257  0.00  0.00    +0.000 A 
ATOM      7  C   UNL     1      -0.344  10.503  20.659  0.00  0.00    +0.000 A 
ATOM      8  N   UNL     1      -0.403  10.605  21.990  0.00  0.00    +0.000 NA
ATOM      9  N   UNL     1       0.465   9.676  22.432  0.00  0.00    +0.000 N 
ATOM     10  C   UNL     1       1.079   8.963  21.434  0.00  0.00    +0.000 A 
ATOM     11  C   UNL     1       1.903   7.825  21.452  0.00  0.00    +0.000 A 
ATOM     12  H   UNL     1       0.552   9.547  23.434  0.00  0.00    +0.000 HD
BRANCH   7  13
ATOM     13  C   UNL     1      -1.277  11.162  19.783  0.00  0.00    +0.000 C 
ATOM     14  C   UNL     1      -2.032  10.507  18.883  0.00  0.00    +0.000 C 
BRANCH  14  15
ATOM     15  C   UNL     1      -3.047  11.024  17.958  0.00  0.00    +0.000 A 
ATOM     16  C   UNL     1      -3.072  10.767  16.593  0.00  0.00    +0.000 A 
ATOM     17  C   UNL     1      -4.147  11.247  15.844  0.00  0.00    +0.000 A 
ATOM     18  C   UNL     1      -5.154  11.970  16.473  0.00  0.00    +0.000 A 
ATOM     19  C   UNL     1      -5.047  12.186  17.833  0.00  0.00    +0.000 A 
ATOM     20  N   UNL     1      -4.024  11.726  18.583  0.00  0.00    +0.000 NA
ENDBRANCH  14  15
ENDBRANCH   7  13
ENDBRANCH   1   3
BRANCH   1  26
ATOM     21  C   UNL     1       2.623   4.209  18.449  0.00  0.00    +0.000 A 
ATOM     22  C   UNL     1       2.039   2.986  18.071  0.00  0.00    +0.000 A 
ATOM     23  C   UNL     1       1.154   2.333  18.922  0.00  0.00    +0.000 A 
ATOM     24  C   UNL     1       0.867   2.884  20.165  0.00  0.00    +0.000 A 
ATOM     25  C   UNL     1       1.442   4.101  20.546  0.00  0.00    +0.000 A 
ATOM     26  C   UNL     1       2.300   4.805  19.684  0.00  0.00    +0.000 A 
BRANCH  21  28
ATOM     27  N   UNL     1       4.741   4.017  17.137  0.00  0.00    +0.000 N 
ATOM     28  C   UNL     1       3.582   4.791  17.482  0.00  0.00    +0.000 C 
ATOM     29  O   UNL     1       3.402   5.909  17.020  0.00  0.00    +0.000 OA
ATOM     30  H   UNL     1       4.832   3.100  17.568  0.00  0.00    +0.000 HD
BRANCH  27  34
ATOM     31  C   UNL     1       7.705   4.980  13.220  0.00  0.00    +0.000 C 
ATOM     32  C   UNL     1       7.092   4.918  14.570  0.00  0.00    +0.000 A 
ATOM     33  C   UNL     1       6.039   4.083  15.006  0.00  0.00    +0.000 A 
ATOM     34  C   UNL     1       5.751   4.480  16.294  0.00  0.00    +0.000 A 
ATOM     35  N   UNL     1       6.664   5.474  16.568  0.00  0.00    +0.000 N 
ATOM     36  C   UNL     1       6.747   6.306  17.743  0.00  0.00    +0.000 C 
ATOM     37  N   UNL     1       7.491   5.747  15.538  0.00  0.00    +0.000 NA
ENDBRANCH  27  34
ENDBRANCH  21  28
ENDBRANCH   1  26
TORSDOF 6
ENDMDL
MODEL 6
REMARK VINA RESULT:      -9.2      1.446      1.721
REMARK  Name = 
REMARK  8 active torsions:
REMARK  status: ('A' for Active; 'I' for Inactive)
REMARK    1  A    between atoms: C_1  and  C_2
REMARK    2  A    between atoms: C_4  and  N_5
REMARK    3  A    between atoms: C_6  and  C_8
REMARK    4  A    between atoms: C_13  and  N_14
REMARK    5  A    between atoms: N_14  and  C_15
REMARK    6  A    between atoms: C_19  and  C_20
REMARK    7  A    between atoms: C_21  and  C_22
REMARK    8  A    between atoms: N_32  and  C_33
REMARK                            x       y       z     vdW  Elec       q    Type
REMARK                         _______ _______ _______ _____ _____    ______ ____
ROOT
ATOM      1  N   UNL     1       2.892   6.180  19.862  0.00  0.00    +0.000 N 
ATOM      2  H   UNL     1       3.628   6.298  20.565  0.00  0.00    +0.000 HD
ENDROOT
BRANCH   1   3
ATOM      3  C   UNL     1       2.080   7.350  19.835  0.00  0.00    +0.000 A 
ATOM      4  C   UNL     1       1.335   7.664  20.980  0.00  0.00    +0.000 A 
ATOM      5  C   UNL     1       0.714   8.907  21.132  0.00  0.00    +0.000 A 
ATOM      6  C   UNL     1       0.888   9.884  20.135  0.00  0.00    +0.000 A 
ATOM      7  C   UNL     1       0.654  11.290  20.008  0.00  0.00    +0.000 A 
ATOM      8  N   UNL     1       0.914  11.711  18.766  0.00  0.00    +0.000 NA
ATOM      9  N   UNL     1       1.423  10.629  18.150  0.00  0.00    +0.000 N 
ATOM     10  C   UNL     1       1.516   9.519  18.951  0.00  0.00    +0.000 A 
ATOM     11  C   UNL     1       2.122   8.265  18.765  0.00  0.00    +0.000 A 
ATOM     12  H   UNL     1       1.735  10.733  17.190  0.00  0.00    +0.000 HD
BRANCH   7  13
ATOM     13  C   UNL     1       0.301  12.185  21.078  0.00  0.00    +0.000 C 
ATOM     14  C   UNL     1       0.685  13.473  21.119  0.00  0.00    +0.000 C 
BRANCH  14  15
ATOM     15  C   UNL     1       0.377  14.512  22.108  0.00  0.00    +0.000 A 
ATOM     16  C   UNL     1       0.929  15.787  22.109  0.00  0.00    +0.000 A 
ATOM     17  C   UNL     1       0.479  16.707  23.055  0.00  0.00    +0.000 A 
ATOM     18  C   UNL     1      -0.496  16.330  23.971  0.00  0.00    +0.000 A 
ATOM     19  C   UNL     1      -0.986  15.040  23.905  0.00  0.00    +0.000 A 
ATOM     20  N   UNL     1      -0.576  14.133  22.995  0.00  0.00    +0.000 NA
ENDBRANCH  14  15
ENDBRANCH   7  13
ENDBRANCH   1   3
BRANCH   1  26
ATOM     21  C   UNL     1       3.203   3.827  19.196  0.00  0.00    +0.000 A 
ATOM     22  C   UNL     1       2.795   2.482  19.249  0.00  0.00    +0.000 A 
ATOM     23  C   UNL     1       1.671   2.113  19.980  0.00  0.00    +0.000 A 
ATOM     24  C   UNL     1       0.964   3.080  20.683  0.00  0.00    +0.000 A 
ATOM     25  C   UNL     1       1.363   4.420  20.633  0.00  0.00    +0.000 A 
ATOM     26  C   UNL     1       2.465   4.826  19.862  0.00  0.00    +0.000 A 
BRANCH  21  28
ATOM     27  N   UNL     1       4.295   4.604  17.088  0.00  0.00    +0.000 N 
ATOM     28  C   UNL     1       4.437   4.097  18.423  0.00  0.00    +0.000 C 
ATOM     29  O   UNL     1       5.538   3.866  18.903  0.00  0.00    +0.000 OA
ATOM     30  H   UNL     1       3.349   4.764  16.750  0.00  0.00    +0.000 HD
BRANCH  27  34
ATOM     31  C   UNL     1       7.462   4.684  13.212  0.00  0.00    +0.000 C 
ATOM     32  C   UNL     1       6.806   4.878  14.529  0.00  0.00    +0.000 A 
ATOM     33  C   UNL     1       5.655   4.231  15.027  0.00  0.00    +0.000 A 
ATOM     34  C   UNL     1       5.375   4.834  16.235  0.00  0.00    +0.000 A 
ATOM     35  N   UNL     1       6.384   5.754  16.410  0.00  0.00    +0.000 N 
ATOM     36  C   UNL     1       6.525   6.731  17.462  0.00  0.00    +0.000 C 
ATOM     37  N   UNL     1       7.266   5.789  15.391  0.00  0.00    +0.000 NA
ENDBRANCH  27  34
ENDBRANCH  21  28
ENDBRANCH   1  26
TORSDOF 6
ENDMDL
MODEL 7
REMARK VINA RESULT:      -9.2      3.522      8.568
REMARK  Name = 
REMARK  8 active torsions:
REMARK  status: ('A' for Active; 'I' for Inactive)
REMARK    1  A    between atoms: C_1  and  C_2
REMARK    2  A    between atoms: C_4  and  N_5
REMARK    3  A    between atoms: C_6  and  C_8
REMARK    4  A    between atoms: C_13  and  N_14
REMARK    5  A    between atoms: N_14  and  C_15
REMARK    6  A    between atoms: C_19  and  C_20
REMARK    7  A    between atoms: C_21  and  C_22
REMARK    8  A    between atoms: N_32  and  C_33
REMARK                            x       y       z     vdW  Elec       q    Type
REMARK                         _______ _______ _______ _____ _____    ______ ____
ROOT
ATOM      1  N   UNL     1       3.395   4.361  17.648  0.00  0.00    +0.000 N 
ATOM      2  H   UNL     1       3.357   3.628  16.932  0.00  0.00    +0.000 HD
ENDROOT
BRANCH   1   3
ATOM      3  C   UNL     1       4.666   5.001  17.593  0.00  0.00    +0.000 A 
ATOM      4  C   UNL     1       4.846   6.034  16.662  0.00  0.00    +0.000 A 
ATOM      5  C   UNL     1       5.962   6.875  16.706  0.00  0.00    +0.000 A 
ATOM      6  C   UNL     1       6.898   6.712  17.743  0.00  0.00    +0.000 A 
ATOM      7  C   UNL     1       7.989   7.465  18.282  0.00  0.00    +0.000 A 
ATOM      8  N   UNL     1       8.627   6.774  19.233  0.00  0.00    +0.000 NA
ATOM      9  N   UNL     1       7.886   5.661  19.387  0.00  0.00    +0.000 N 
ATOM     10  C   UNL     1       6.779   5.608  18.578  0.00  0.00    +0.000 A 
ATOM     11  C   UNL     1       5.681   4.734  18.532  0.00  0.00    +0.000 A 
ATOM     12  H   UNL     1       8.168   4.999  20.101  0.00  0.00    +0.000 HD
BRANCH   7  13
ATOM     13  C   UNL     1       8.314   8.828  17.957  0.00  0.00    +0.000 C 
ATOM     14  C   UNL     1       8.995   9.642  18.784  0.00  0.00    +0.000 C 
BRANCH  14  15
ATOM     15  C   UNL     1       9.434  11.027  18.585  0.00  0.00    +0.000 A 
ATOM     16  C   UNL     1      10.653  11.537  19.015  0.00  0.00    +0.000 A 
ATOM     17  C   UNL     1      10.982  12.850  18.679  0.00  0.00    +0.000 A 
ATOM     18  C   UNL     1      10.090  13.612  17.933  0.00  0.00    +0.000 A 
ATOM     19  C   UNL     1       8.898  13.030  17.551  0.00  0.00    +0.000 A 
ATOM     20  N   UNL     1       8.558  11.760  17.856  0.00  0.00    +0.000 NA
ENDBRANCH  14  15
ENDBRANCH   7  13
ENDBRANCH   1   3
BRANCH   1  26
ATOM     21  C   UNL     1       1.951   4.818  19.592  0.00  0.00    +0.000 A 
ATOM     22  C   UNL     1       1.219   4.357  20.701  0.00  0.00    +0.000 A 
ATOM     23  C   UNL     1       1.197   3.003  21.019  0.00  0.00    +0.000 A 
ATOM     24  C   UNL     1       1.883   2.100  20.217  0.00  0.00    +0.000 A 
ATOM     25  C   UNL     1       2.615   2.552  19.114  0.00  0.00    +0.000 A 
ATOM     26  C   UNL     1       2.694   3.920  18.800  0.00  0.00    +0.000 A 
BRANCH  21  28
ATOM     27  N   UNL     1       1.576   7.142  20.427  0.00  0.00    +0.000 N 
ATOM     28  C   UNL     1       1.868   6.272  19.323  0.00  0.00    +0.000 C 
ATOM     29  O   UNL     1       2.015   6.708  18.190  0.00  0.00    +0.000 OA
ATOM     30  H   UNL     1       1.455   6.710  21.340  0.00  0.00    +0.000 HD
BRANCH  27  34
ATOM     31  C   UNL     1       0.869  11.779  18.678  0.00  0.00    +0.000 C 
ATOM     32  C   UNL     1       1.100  10.595  19.541  0.00  0.00    +0.000 A 
ATOM     33  C   UNL     1       1.399   9.274  19.140  0.00  0.00    +0.000 A 
ATOM     34  C   UNL     1       1.404   8.520  20.294  0.00  0.00    +0.000 A 
ATOM     35  N   UNL     1       1.163   9.424  21.305  0.00  0.00    +0.000 N 
ATOM     36  C   UNL     1       0.964   9.156  22.708  0.00  0.00    +0.000 C 
ATOM     37  N   UNL     1       0.985  10.687  20.869  0.00  0.00    +0.000 NA
ENDBRANCH  27  34
ENDBRANCH  21  28
ENDBRANCH   1  26
TORSDOF 6
ENDMDL
MODEL 8
REMARK VINA RESULT:      -9.1      2.618      3.163
REMARK  Name = 
REMARK  8 active torsions:
REMARK  status: ('A' for Active; 'I' for Inactive)
REMARK    1  A    between atoms: C_1  and  C_2
REMARK    2  A    between atoms: C_4  and  N_5
REMARK    3  A    between atoms: C_6  and  C_8
REMARK    4  A    between atoms: C_13  and  N_14
REMARK    5  A    between atoms: N_14  and  C_15
REMARK    6  A    between atoms: C_19  and  C_20
REMARK    7  A    between atoms: C_21  and  C_22
REMARK    8  A    between atoms: N_32  and  C_33
REMARK                            x       y       z     vdW  Elec       q    Type
REMARK                         _______ _______ _______ _____ _____    ______ ____
ROOT
ATOM      1  N   UNL     1       3.070   6.446  19.468  0.00  0.00    +0.000 N 
ATOM      2  H   UNL     1       3.913   6.555  20.040  0.00  0.00    +0.000 HD
ENDROOT
BRANCH   1   3
ATOM      3  C   UNL     1       2.328   7.661  19.496  0.00  0.00    +0.000 A 
ATOM      4  C   UNL     1       1.901   8.203  18.276  0.00  0.00    +0.000 A 
ATOM      5  C   UNL     1       0.969   9.244  18.222  0.00  0.00    +0.000 A 
ATOM      6  C   UNL     1       0.405   9.719  19.420  0.00  0.00    +0.000 A 
ATOM      7  C   UNL     1      -0.701  10.547  19.789  0.00  0.00    +0.000 A 
ATOM      8  N   UNL     1      -0.722  10.764  21.108  0.00  0.00    +0.000 NA
ATOM      9  N   UNL     1       0.271   9.990  21.586  0.00  0.00    +0.000 N 
ATOM     10  C   UNL     1       0.930   9.266  20.625  0.00  0.00    +0.000 A 
ATOM     11  C   UNL     1       1.888   8.242  20.702  0.00  0.00    +0.000 A 
ATOM     12  H   UNL     1       0.411   9.966  22.590  0.00  0.00    +0.000 HD
BRANCH   7  13
ATOM     13  C   UNL     1      -1.741  11.006  18.906  0.00  0.00    +0.000 C 
ATOM     14  C   UNL     1      -2.948  11.414  19.338  0.00  0.00    +0.000 C 
BRANCH  14  15
ATOM     15  C   UNL     1      -4.086  11.942  18.577  0.00  0.00    +0.000 A 
ATOM     16  C   UNL     1      -4.314  11.697  17.229  0.00  0.00    +0.000 A 
ATOM     17  C   UNL     1      -5.485  12.187  16.651  0.00  0.00    +0.000 A 
ATOM     18  C   UNL     1      -6.385  12.906  17.428  0.00  0.00    +0.000 A 
ATOM     19  C   UNL     1      -6.078  13.109  18.759  0.00  0.00    +0.000 A 
ATOM     20  N   UNL     1      -4.957  12.640  19.345  0.00  0.00    +0.000 NA
ENDBRANCH  14  15
ENDBRANCH   7  13
ENDBRANCH   1   3
BRANCH   1  26
ATOM     21  C   UNL     1       3.251   4.025  19.047  0.00  0.00    +0.000 A 
ATOM     22  C   UNL     1       2.778   2.715  19.246  0.00  0.00    +0.000 A 
ATOM     23  C   UNL     1       1.653   2.482  20.029  0.00  0.00    +0.000 A 
ATOM     24  C   UNL     1       1.009   3.551  20.638  0.00  0.00    +0.000 A 
ATOM     25  C   UNL     1       1.472   4.857  20.442  0.00  0.00    +0.000 A 
ATOM     26  C   UNL     1       2.577   5.124  19.616  0.00  0.00    +0.000 A 
BRANCH  21  28
ATOM     27  N   UNL     1       4.368   4.766  16.939  0.00  0.00    +0.000 N 
ATOM     28  C   UNL     1       4.480   4.150  18.230  0.00  0.00    +0.000 C 
ATOM     29  O   UNL     1       5.547   3.713  18.638  0.00  0.00    +0.000 OA
ATOM     30  H   UNL     1       3.448   5.097  16.660  0.00  0.00    +0.000 HD
BRANCH  27  34
ATOM     31  C   UNL     1       7.384   4.525  12.950  0.00  0.00    +0.000 C 
ATOM     32  C   UNL     1       6.802   4.780  14.291  0.00  0.00    +0.000 A 
ATOM     33  C   UNL     1       5.604   4.260  14.829  0.00  0.00    +0.000 A 
ATOM     34  C   UNL     1       5.436   4.881  16.048  0.00  0.00    +0.000 A 
ATOM     35  N   UNL     1       6.547   5.681  16.190  0.00  0.00    +0.000 N 
ATOM     36  C   UNL     1       6.833   6.627  17.241  0.00  0.00    +0.000 C 
ATOM     37  N   UNL     1       7.390   5.627  15.140  0.00  0.00    +0.000 NA
ENDBRANCH  27  34
ENDBRANCH  21  28
ENDBRANCH   1  26
TORSDOF 6
ENDMDL
MODEL 9
REMARK VINA RESULT:      -9.1      1.590      2.060
REMARK  Name = 
REMARK  8 active torsions:
REMARK  status: ('A' for Active; 'I' for Inactive)
REMARK    1  A    between atoms: C_1  and  C_2
REMARK    2  A    between atoms: C_4  and  N_5
REMARK    3  A    between atoms: C_6  and  C_8
REMARK    4  A    between atoms: C_13  and  N_14
REMARK    5  A    between atoms: N_14  and  C_15
REMARK    6  A    between atoms: C_19  and  C_20
REMARK    7  A    between atoms: C_21  and  C_22
REMARK    8  A    between atoms: N_32  and  C_33
REMARK                            x       y       z     vdW  Elec       q    Type
REMARK                         _______ _______ _______ _____ _____    ______ ____
ROOT
ATOM      1  N   UNL     1       2.176   7.095  19.120  0.00  0.00    +0.000 N 
ATOM      2  H   UNL     1       3.019   7.377  18.611  0.00  0.00    +0.000 HD
ENDROOT
BRANCH   1   3
ATOM      3  C   UNL     1       1.704   8.198  19.887  0.00  0.00    +0.000 A 
ATOM      4  C   UNL     1       1.177   9.302  19.203  0.00  0.00    +0.000 A 
ATOM      5  C   UNL     1       0.473  10.310  19.868  0.00  0.00    +0.000 A 
ATOM      6  C   UNL     1       0.241  10.182  21.250  0.00  0.00    +0.000 A 
ATOM      7  C   UNL     1      -0.595  10.814  22.224  0.00  0.00    +0.000 A 
ATOM      8  N   UNL     1      -0.332  10.358  23.453  0.00  0.00    +0.000 NA
ATOM      9  N   UNL     1       0.559   9.369  23.255  0.00  0.00    +0.000 N 
ATOM     10  C   UNL     1       0.877   9.156  21.937  0.00  0.00    +0.000 A 
ATOM     11  C   UNL     1       1.614   8.149  21.292  0.00  0.00    +0.000 A 
ATOM     12  H   UNL     1       0.873   8.844  24.064  0.00  0.00    +0.000 HD
BRANCH   7  13
ATOM     13  C   UNL     1      -1.667  11.732  21.945  0.00  0.00    +0.000 C 
ATOM     14  C   UNL     1      -2.444  12.270  22.902  0.00  0.00    +0.000 C 
BRANCH  14  15
ATOM     15  C   UNL     1      -3.538  13.241  22.785  0.00  0.00    +0.000 A 
ATOM     16  C   UNL     1      -3.827  14.220  23.727  0.00  0.00    +0.000 A 
ATOM     17  C   UNL     1      -4.840  15.137  23.447  0.00  0.00    +0.000 A 
ATOM     18  C   UNL     1      -5.535  15.047  22.246  0.00  0.00    +0.000 A 
ATOM     19  C   UNL     1      -5.187  14.040  21.367  0.00  0.00    +0.000 A 
ATOM     20  N   UNL     1      -4.207  13.145  21.609  0.00  0.00    +0.000 NA
ENDBRANCH  14  15
ENDBRANCH   7  13
ENDBRANCH   1   3
BRANCH   1  26
ATOM     21  C   UNL     1       3.202   4.867  18.881  0.00  0.00    +0.000 A 
ATOM     22  C   UNL     1       3.366   3.546  19.336  0.00  0.00    +0.000 A 
ATOM     23  C   UNL     1       2.673   3.093  20.454  0.00  0.00    +0.000 A 
ATOM     24  C   UNL     1       1.834   3.963  21.138  0.00  0.00    +0.000 A 
ATOM     25  C   UNL     1       1.664   5.277  20.689  0.00  0.00    +0.000 A 
ATOM     26  C   UNL     1       2.314   5.745  19.534  0.00  0.00    +0.000 A 
BRANCH  21  28
ATOM     27  N   UNL     1       5.019   4.325  17.254  0.00  0.00    +0.000 N 
ATOM     28  C   UNL     1       4.021   5.252  17.709  0.00  0.00    +0.000 C 
ATOM     29  O   UNL     1       3.867   6.338  17.169  0.00  0.00    +0.000 OA
ATOM     30  H   UNL     1       5.098   3.445  17.757  0.00  0.00    +0.000 HD
BRANCH  27  34
ATOM     31  C   UNL     1       7.278   4.647  12.798  0.00  0.00    +0.000 C 
ATOM     32  C   UNL     1       6.930   4.747  14.238  0.00  0.00    +0.000 A 
ATOM     33  C   UNL     1       5.885   4.090  14.924  0.00  0.00    +0.000 A 
ATOM     34  C   UNL     1       5.899   4.597  16.206  0.00  0.00    +0.000 A 
ATOM     35  N   UNL     1       6.962   5.471  16.227  0.00  0.00    +0.000 N 
ATOM     36  C   UNL     1       7.370   6.351  17.295  0.00  0.00    +0.000 C 
ATOM     37  N   UNL     1       7.605   5.568  15.046  0.00  0.00    +0.000 NA
ENDBRANCH  27  34
ENDBRANCH  21  28
ENDBRANCH   1  26
TORSDOF 6
ENDMDL
