MODEL 1
REMARK VINA RESULT:      -7.9      0.000      0.000
REMARK  Name = 
REMARK  13 active torsions:
REMARK  status: ('A' for Active; 'I' for Inactive)
REMARK    1  A    between atoms: C_1  and  C_2
REMARK    2  A    between atoms: N_4  and  C_5
REMARK    3  A    between atoms: C_5  and  C_6
REMARK    4  A    between atoms: C_5  and  C_13
REMARK    5  A    between atoms: C_6  and  C_7
REMARK    6  A    between atoms: C_19  and  P_20
REMARK    7  A    between atoms: P_20  and  O_22
REMARK    8  A    between atoms: P_20  and  C_23
REMARK    9  A    between atoms: C_23  and  C_24
REMARK   10  A    between atoms: C_24  and  C_25
REMARK   11  A    between atoms: C_24  and  C_32
REMARK   12  A    between atoms: C_25  and  C_26
REMARK   13  A    between atoms: C_32  and  O_34
REMARK                            x       y       z     vdW  Elec       q    Type
REMARK                         _______ _______ _______ _____ _____    ______ ____
ROOT
ATOM      1  C   UNL     1       2.434   6.996  18.902  0.00  0.00    +0.000 C 
ATOM      2  O   UNL     1       3.214   7.190  17.967  0.00  0.00    +0.000 OA
ATOM      3  N   UNL     1       2.309   5.745  19.486  0.00  0.00    +0.000 N 
ATOM      4  C   UNL     1       1.496   5.430  20.653  0.00  0.00    +0.000 C 
ATOM      5  C   UNL     1       1.967   4.061  21.082  0.00  0.00    +0.000 C 
ATOM      6  C   UNL     1       2.206   3.401  19.734  0.00  0.00    +0.000 C 
ATOM      7  C   UNL     1       2.894   4.503  18.906  0.00  0.00    +0.000 C 
ENDROOT
BRANCH   7   8
ATOM      8  P   UNL     1       4.705   4.434  18.929  0.00  0.00    +0.000 P 
ATOM      9  O   UNL     1       5.435   5.469  19.729  0.00  0.00    +0.000 OA
BRANCH   8  10
ATOM     10  O   UNL     1       5.063   2.955  19.467  0.00  0.00    +0.000 OA
ATOM     11  H   UNL     1       5.880   2.951  19.999  0.00  0.00    +0.000 HD
ENDBRANCH   8  10
BRANCH   8  12
ATOM     12  C   UNL     1       5.289   4.388  17.231  0.00  0.00    +0.000 C 
BRANCH  12  13
ATOM     13  C   UNL     1       6.452   5.301  16.823  0.00  0.00    +0.000 C 
BRANCH  13  14
ATOM     14  C   UNL     1       5.880   6.630  16.343  0.00  0.00    +0.000 C 
ATOM     15  O   UNL     1       5.107   6.754  15.398  0.00  0.00    +0.000 OA
BRANCH  14  16
ATOM     16  O   UNL     1       6.250   7.700  17.081  0.00  0.00    +0.000 OA
ATOM     17  H   UNL     1       5.550   8.353  17.259  0.00  0.00    +0.000 HD
ENDBRANCH  14  16
ENDBRANCH  13  14
BRANCH  13  18
ATOM     18  C   UNL     1       7.454   4.672  15.838  0.00  0.00    +0.000 C 
BRANCH  18  19
ATOM     19  C   UNL     1       7.043   4.481  14.395  0.00  0.00    +0.000 A 
ATOM     20  C   UNL     1       7.753   5.054  13.331  0.00  0.00    +0.000 A 
ATOM     21  C   UNL     1       7.385   4.809  12.005  0.00  0.00    +0.000 A 
ATOM     22  C   UNL     1       6.305   3.977  11.720  0.00  0.00    +0.000 A 
ATOM     23  C   UNL     1       5.607   3.376  12.760  0.00  0.00    +0.000 A 
ATOM     24  C   UNL     1       5.982   3.614  14.083  0.00  0.00    +0.000 A 
ENDBRANCH  18  19
ENDBRANCH  13  18
ENDBRANCH  12  13
ENDBRANCH   8  12
ENDBRANCH   7   8
BRANCH   1  25
ATOM     25  C   UNL     1       1.542   8.161  19.446  0.00  0.00    +0.000 C 
BRANCH  25  29
ATOM     26  C   UNL     1       1.399   9.261  23.103  0.00  0.00    +0.000 C 
ATOM     27  C   UNL     1       0.889   8.860  21.745  0.00  0.00    +0.000 C 
ATOM     28  O   UNL     1      -0.309   8.898  21.474  0.00  0.00    +0.000 OA
ATOM     29  N   UNL     1       1.855   8.459  20.853  0.00  0.00    +0.000 N 
ATOM     30  H   UNL     1       2.828   8.381  21.132  0.00  0.00    +0.000 HD
ENDBRANCH  25  29
BRANCH  25  31
ATOM     31  C   UNL     1       1.626   9.431  18.569  0.00  0.00    +0.000 C 
BRANCH  31  32
ATOM     32  C   UNL     1       0.349  10.217  18.388  0.00  0.00    +0.000 A 
ATOM     33  C   UNL     1       0.251  11.544  18.828  0.00  0.00    +0.000 A 
ATOM     34  C   UNL     1      -0.897  12.291  18.561  0.00  0.00    +0.000 A 
ATOM     35  C   UNL     1      -1.958  11.715  17.865  0.00  0.00    +0.000 A 
ATOM     36  C   UNL     1      -1.882  10.388  17.448  0.00  0.00    +0.000 A 
ATOM     37  C   UNL     1      -0.734   9.643  17.709  0.00  0.00    +0.000 A 
ENDBRANCH  31  32
ENDBRANCH  25  31
ENDBRANCH   1  25
TORSDOF 12
ENDMDL
MODEL 2
REMARK VINA RESULT:      -7.9      1.030      1.670
REMARK  Name = 
REMARK  13 active torsions:
REMARK  status: ('A' for Active; 'I' for Inactive)
REMARK    1  A    between atoms: C_1  and  C_2
REMARK    2  A    between atoms: N_4  and  C_5
REMARK    3  A    between atoms: C_5  and  C_6
REMARK    4  A    between atoms: C_5  and  C_13
REMARK    5  A    between atoms: C_6  and  C_7
REMARK    6  A    between atoms: C_19  and  P_20
REMARK    7  A    between atoms: P_20  and  O_22
REMARK    8  A    between atoms: P_20  and  C_23
REMARK    9  A    between atoms: C_23  and  C_24
REMARK   10  A    between atoms: C_24  and  C_25
REMARK   11  A    between atoms: C_24  and  C_32
REMARK   12  A    between atoms: C_25  and  C_26
REMARK   13  A    between atoms: C_32  and  O_34
REMARK                            x       y       z     vdW  Elec       q    Type
REMARK                         _______ _______ _______ _____ _____    ______ ____
ROOT
ATOM      1  C   UNL     1       2.340   7.155  18.698  0.00  0.00    +0.000 C 
ATOM      2  O   UNL     1       3.041   7.414  17.718  0.00  0.00    +0.000 OA
ATOM      3  N   UNL     1       2.294   5.877  19.233  0.00  0.00    +0.000 N 
ATOM      4  C   UNL     1       1.582   5.487  20.442  0.00  0.00    +0.000 C 
ATOM      5  C   UNL     1       2.122   4.116  20.772  0.00  0.00    +0.000 C 
ATOM      6  C   UNL     1       2.275   3.522  19.381  0.00  0.00    +0.000 C 
ATOM      7  C   UNL     1       2.868   4.680  18.555  0.00  0.00    +0.000 C 
ENDROOT
BRANCH   7   8
ATOM      8  P   UNL     1       4.677   4.666  18.439  0.00  0.00    +0.000 P 
ATOM      9  O   UNL     1       5.448   5.474  19.436  0.00  0.00    +0.000 OA
BRANCH   8  10
ATOM     10  O   UNL     1       5.092   3.110  18.537  0.00  0.00    +0.000 OA
ATOM     11  H   UNL     1       6.022   3.000  18.811  0.00  0.00    +0.000 HD
ENDBRANCH   8  10
BRANCH   8  12
ATOM     12  C   UNL     1       5.136   5.091  16.756  0.00  0.00    +0.000 C 
BRANCH  12  13
ATOM     13  C   UNL     1       6.462   4.561  16.193  0.00  0.00    +0.000 C 
BRANCH  13  14
ATOM     14  C   UNL     1       7.575   4.892  17.180  0.00  0.00    +0.000 C 
ATOM     15  O   UNL     1       8.305   4.060  17.709  0.00  0.00    +0.000 OA
BRANCH  14  16
ATOM     16  O   UNL     1       7.749   6.213  17.409  0.00  0.00    +0.000 OA
ATOM     17  H   UNL     1       7.139   6.614  18.053  0.00  0.00    +0.000 HD
ENDBRANCH  14  16
ENDBRANCH  13  14
BRANCH  13  18
ATOM     18  C   UNL     1       6.771   4.996  14.749  0.00  0.00    +0.000 C 
BRANCH  18  19
ATOM     19  C   UNL     1       6.299   4.128  13.604  0.00  0.00    +0.000 A 
ATOM     20  C   UNL     1       4.941   3.961  13.301  0.00  0.00    +0.000 A 
ATOM     21  C   UNL     1       4.538   3.201  12.198  0.00  0.00    +0.000 A 
ATOM     22  C   UNL     1       5.488   2.604  11.374  0.00  0.00    +0.000 A 
ATOM     23  C   UNL     1       6.840   2.783  11.641  0.00  0.00    +0.000 A 
ATOM     24  C   UNL     1       7.241   3.550  12.736  0.00  0.00    +0.000 A 
ENDBRANCH  18  19
ENDBRANCH  13  18
ENDBRANCH  12  13
ENDBRANCH   8  12
ENDBRANCH   7   8
BRANCH   1  25
ATOM     25  C   UNL     1       1.461   8.268  19.361  0.00  0.00    +0.000 C 
BRANCH  25  29
ATOM     26  C   UNL     1       1.585   9.200  23.064  0.00  0.00    +0.000 C 
ATOM     27  C   UNL     1       0.978   8.825  21.739  0.00  0.00    +0.000 C 
ATOM     28  O   UNL     1      -0.240   8.799  21.577  0.00  0.00    +0.000 OA
ATOM     29  N   UNL     1       1.882   8.525  20.747  0.00  0.00    +0.000 N 
ATOM     30  H   UNL     1       2.879   8.498  20.936  0.00  0.00    +0.000 HD
ENDBRANCH  25  29
BRANCH  25  31
ATOM     31  C   UNL     1       1.429   9.571  18.530  0.00  0.00    +0.000 C 
BRANCH  31  32
ATOM     32  C   UNL     1       0.105  10.294  18.451  0.00  0.00    +0.000 A 
ATOM     33  C   UNL     1      -0.963   9.764  17.713  0.00  0.00    +0.000 A 
ATOM     34  C   UNL     1      -2.211  10.388  17.735  0.00  0.00    +0.000 A 
ATOM     35  C   UNL     1      -2.397  11.550  18.481  0.00  0.00    +0.000 A 
ATOM     36  C   UNL     1      -1.334  12.100  19.195  0.00  0.00    +0.000 A 
ATOM     37  C   UNL     1      -0.090  11.474  19.179  0.00  0.00    +0.000 A 
ENDBRANCH  31  32
ENDBRANCH  25  31
ENDBRANCH   1  25
TORSDOF 12
ENDMDL
MODEL 3
REMARK VINA RESULT:      -7.5      0.777      1.101
REMARK  Name = 
REMARK  13 active torsions:
REMARK  status: ('A' for Active; 'I' for Inactive)
REMARK    1  A    between atoms: C_1  and  C_2
REMARK    2  A    between atoms: N_4  and  C_5
REMARK    3  A    between atoms: C_5  and  C_6
REMARK    4  A    between atoms: C_5  and  C_13
REMARK    5  A    between atoms: C_6  and  C_7
REMARK    6  A    between atoms: C_19  and  P_20
REMARK    7  A    between atoms: P_20  and  O_22
REMARK    8  A    between atoms: P_20  and  C_23
REMARK    9  A    between atoms: C_23  and  C_24
REMARK   10  A    between atoms: C_24  and  C_25
REMARK   11  A    between atoms: C_24  and  C_32
REMARK   12  A    between atoms: C_25  and  C_26
REMARK   13  A    between atoms: C_32  and  O_34
REMARK                            x       y       z     vdW  Elec       q    Type
REMARK                         _______ _______ _______ _____ _____    ______ ____
ROOT
ATOM      1  C   UNL     1       2.500   6.862  18.764  0.00  0.00    +0.000 C 
ATOM      2  O   UNL     1       3.224   7.009  17.777  0.00  0.00    +0.000 OA
ATOM      3  N   UNL     1       2.474   5.666  19.465  0.00  0.00    +0.000 N 
ATOM      4  C   UNL     1       1.736   5.419  20.696  0.00  0.00    +0.000 C 
ATOM      5  C   UNL     1       2.303   4.122  21.222  0.00  0.00    +0.000 C 
ATOM      6  C   UNL     1       2.515   3.353  19.928  0.00  0.00    +0.000 C 
ATOM      7  C   UNL     1       3.101   4.408  18.970  0.00  0.00    +0.000 C 
ENDROOT
BRANCH   7   8
ATOM      8  P   UNL     1       4.912   4.435  18.905  0.00  0.00    +0.000 P 
ATOM      9  O   UNL     1       5.620   5.558  19.599  0.00  0.00    +0.000 OA
BRANCH   8  10
ATOM     10  O   UNL     1       5.376   3.016  19.519  0.00  0.00    +0.000 OA
ATOM     11  H   UNL     1       5.493   3.062  20.486  0.00  0.00    +0.000 HD
ENDBRANCH   8  10
BRANCH   8  12
ATOM     12  C   UNL     1       5.416   4.306  17.187  0.00  0.00    +0.000 C 
BRANCH  12  13
ATOM     13  C   UNL     1       6.856   4.677  16.807  0.00  0.00    +0.000 C 
BRANCH  13  14
ATOM     14  C   UNL     1       7.536   5.290  18.025  0.00  0.00    +0.000 C 
ATOM     15  O   UNL     1       8.096   4.646  18.906  0.00  0.00    +0.000 OA
BRANCH  14  16
ATOM     16  O   UNL     1       7.531   6.641  18.051  0.00  0.00    +0.000 OA
ATOM     17  H   UNL     1       6.775   7.052  18.506  0.00  0.00    +0.000 HD
ENDBRANCH  14  16
ENDBRANCH  13  14
BRANCH  13  18
ATOM     18  C   UNL     1       6.989   5.532  15.533  0.00  0.00    +0.000 C 
BRANCH  18  19
ATOM     19  C   UNL     1       6.788   4.877  14.185  0.00  0.00    +0.000 A 
ATOM     20  C   UNL     1       7.698   5.038  13.131  0.00  0.00    +0.000 A 
ATOM     21  C   UNL     1       7.518   4.370  11.916  0.00  0.00    +0.000 A 
ATOM     22  C   UNL     1       6.429   3.520  11.739  0.00  0.00    +0.000 A 
ATOM     23  C   UNL     1       5.533   3.324  12.782  0.00  0.00    +0.000 A 
ATOM     24  C   UNL     1       5.720   3.984  13.998  0.00  0.00    +0.000 A 
ENDBRANCH  18  19
ENDBRANCH  13  18
ENDBRANCH  12  13
ENDBRANCH   8  12
ENDBRANCH   7   8
BRANCH   1  25
ATOM     25  C   UNL     1       1.571   8.025  19.247  0.00  0.00    +0.000 C 
BRANCH  25  29
ATOM     26  C   UNL     1       1.422   9.234  22.869  0.00  0.00    +0.000 C 
ATOM     27  C   UNL     1       0.923   8.692  21.557  0.00  0.00    +0.000 C 
ATOM     28  O   UNL     1      -0.275   8.504  21.356  0.00  0.00    +0.000 OA
ATOM     29  N   UNL     1       1.898   8.433  20.622  0.00  0.00    +0.000 N 
ATOM     30  H   UNL     1       2.882   8.542  20.847  0.00  0.00    +0.000 HD
ENDBRANCH  25  29
BRANCH  25  31
ATOM     31  C   UNL     1       1.584   9.233  18.283  0.00  0.00    +0.000 C 
BRANCH  31  32
ATOM     32  C   UNL     1       0.385  10.151  18.328  0.00  0.00    +0.000 A 
ATOM     33  C   UNL     1       0.469  11.417  18.922  0.00  0.00    +0.000 A 
ATOM     34  C   UNL     1      -0.614  12.295  18.863  0.00  0.00    +0.000 A 
ATOM     35  C   UNL     1      -1.790  11.910  18.223  0.00  0.00    +0.000 A 
ATOM     36  C   UNL     1      -1.893  10.643  17.654  0.00  0.00    +0.000 A 
ATOM     37  C   UNL     1      -0.811   9.768  17.707  0.00  0.00    +0.000 A 
ENDBRANCH  31  32
ENDBRANCH  25  31
ENDBRANCH   1  25
TORSDOF 12
ENDMDL
MODEL 4
REMARK VINA RESULT:      -7.4      2.246      4.509
REMARK  Name = 
REMARK  13 active torsions:
REMARK  status: ('A' for Active; 'I' for Inactive)
REMARK    1  A    between atoms: C_1  and  C_2
REMARK    2  A    between atoms: N_4  and  C_5
REMARK    3  A    between atoms: C_5  and  C_6
REMARK    4  A    between atoms: C_5  and  C_13
REMARK    5  A    between atoms: C_6  and  C_7
REMARK    6  A    between atoms: C_19  and  P_20
REMARK    7  A    between atoms: P_20  and  O_22
REMARK    8  A    between atoms: P_20  and  C_23
REMARK    9  A    between atoms: C_23  and  C_24
REMARK   10  A    between atoms: C_24  and  C_25
REMARK   11  A    between atoms: C_24  and  C_32
REMARK   12  A    between atoms: C_25  and  C_26
REMARK   13  A    between atoms: C_32  and  O_34
REMARK                            x       y       z     vdW  Elec       q    Type
REMARK                         _______ _______ _______ _____ _____    ______ ____
ROOT
ATOM      1  C   UNL     1       1.999   9.175  18.180  0.00  0.00    +0.000 C 
ATOM      2  O   UNL     1       2.490   9.145  17.049  0.00  0.00    +0.000 OA
ATOM      3  N   UNL     1       2.021   8.059  19.003  0.00  0.00    +0.000 N 
ATOM      4  C   UNL     1       1.562   8.014  20.385  0.00  0.00    +0.000 C 
ATOM      5  C   UNL     1       2.111   6.714  20.922  0.00  0.00    +0.000 C 
ATOM      6  C   UNL     1       1.951   5.810  19.711  0.00  0.00    +0.000 C 
ATOM      7  C   UNL     1       2.399   6.697  18.533  0.00  0.00    +0.000 C 
ENDROOT
BRANCH   7   8
ATOM      8  P   UNL     1       4.143   6.507  18.076  0.00  0.00    +0.000 P 
ATOM      9  O   UNL     1       4.906   7.741  17.700  0.00  0.00    +0.000 OA
BRANCH   8  10
ATOM     10  O   UNL     1       4.834   5.786  19.343  0.00  0.00    +0.000 OA
ATOM     11  H   UNL     1       4.456   6.097  20.187  0.00  0.00    +0.000 HD
ENDBRANCH   8  10
BRANCH   8  12
ATOM     12  C   UNL     1       4.257   5.252  16.797  0.00  0.00    +0.000 C 
BRANCH  12  13
ATOM     13  C   UNL     1       5.159   4.034  17.032  0.00  0.00    +0.000 C 
BRANCH  13  14
ATOM     14  C   UNL     1       6.231   4.007  15.948  0.00  0.00    +0.000 C 
ATOM     15  O   UNL     1       6.057   3.587  14.809  0.00  0.00    +0.000 OA
BRANCH  14  16
ATOM     16  O   UNL     1       7.416   4.543  16.317  0.00  0.00    +0.000 OA
ATOM     17  H   UNL     1       7.913   4.994  15.612  0.00  0.00    +0.000 HD
ENDBRANCH  14  16
ENDBRANCH  13  14
BRANCH  13  18
ATOM     18  C   UNL     1       4.413   2.697  17.192  0.00  0.00    +0.000 C 
BRANCH  18  19
ATOM     19  C   UNL     1       3.420   2.541  18.321  0.00  0.00    +0.000 A 
ATOM     20  C   UNL     1       3.803   2.586  19.668  0.00  0.00    +0.000 A 
ATOM     21  C   UNL     1       2.852   2.500  20.690  0.00  0.00    +0.000 A 
ATOM     22  C   UNL     1       1.500   2.380  20.380  0.00  0.00    +0.000 A 
ATOM     23  C   UNL     1       1.098   2.363  19.051  0.00  0.00    +0.000 A 
ATOM     24  C   UNL     1       2.047   2.459  18.032  0.00  0.00    +0.000 A 
ENDBRANCH  18  19
ENDBRANCH  13  18
ENDBRANCH  12  13
ENDBRANCH   8  12
ENDBRANCH   7   8
BRANCH   1  25
ATOM     25  C   UNL     1       1.315  10.477  18.714  0.00  0.00    +0.000 C 
BRANCH  25  29
ATOM     26  C   UNL     1       2.689  13.981  18.052  0.00  0.00    +0.000 C 
ATOM     27  C   UNL     1       2.225  12.791  18.849  0.00  0.00    +0.000 C 
ATOM     28  O   UNL     1       2.140  12.835  20.074  0.00  0.00    +0.000 OA
ATOM     29  N   UNL     1       1.908  11.679  18.106  0.00  0.00    +0.000 N 
ATOM     30  H   UNL     1       2.050  11.661  17.100  0.00  0.00    +0.000 HD
ENDBRANCH  25  29
BRANCH  25  31
ATOM     31  C   UNL     1      -0.220  10.456  18.540  0.00  0.00    +0.000 C 
BRANCH  31  32
ATOM     32  C   UNL     1      -1.036  11.122  19.622  0.00  0.00    +0.000 A 
ATOM     33  C   UNL     1      -0.666  11.020  20.970  0.00  0.00    +0.000 A 
ATOM     34  C   UNL     1      -1.368  11.726  21.948  0.00  0.00    +0.000 A 
ATOM     35  C   UNL     1      -2.450  12.527  21.588  0.00  0.00    +0.000 A 
ATOM     36  C   UNL     1      -2.844  12.612  20.255  0.00  0.00    +0.000 A 
ATOM     37  C   UNL     1      -2.140  11.912  19.277  0.00  0.00    +0.000 A 
ENDBRANCH  31  32
ENDBRANCH  25  31
ENDBRANCH   1  25
TORSDOF 12
ENDMDL
MODEL 5
REMARK VINA RESULT:      -7.3      2.442      4.331
REMARK  Name = 
REMARK  13 active torsions:
REMARK  status: ('A' for Active; 'I' for Inactive)
REMARK    1  A    between atoms: C_1  and  C_2
REMARK    2  A    between atoms: N_4  and  C_5
REMARK    3  A    between atoms: C_5  and  C_6
REMARK    4  A    between atoms: C_5  and  C_13
REMARK    5  A    between atoms: C_6  and  C_7
REMARK    6  A    between atoms: C_19  and  P_20
REMARK    7  A    between atoms: P_20  and  O_22
REMARK    8  A    between atoms: P_20  and  C_23
REMARK    9  A    between atoms: C_23  and  C_24
REMARK   10  A    between atoms: C_24  and  C_25
REMARK   11  A    between atoms: C_24  and  C_32
REMARK   12  A    between atoms: C_25  and  C_26
REMARK   13  A    between atoms: C_32  and  O_34
REMARK                            x       y       z     vdW  Elec       q    Type
REMARK                         _______ _______ _______ _____ _____    ______ ____
ROOT
ATOM      1  C   UNL     1       1.070   8.578  20.539  0.00  0.00    +0.000 C 
ATOM      2  O   UNL     1       1.037   7.892  21.563  0.00  0.00    +0.000 OA
ATOM      3  N   UNL     1       1.833   8.201  19.445  0.00  0.00    +0.000 N 
ATOM      4  C   UNL     1       1.865   8.881  18.157  0.00  0.00    +0.000 C 
ATOM      5  C   UNL     1       2.552   7.905  17.232  0.00  0.00    +0.000 C 
ATOM      6  C   UNL     1       3.604   7.319  18.160  0.00  0.00    +0.000 C 
ATOM      7  C   UNL     1       2.844   7.108  19.483  0.00  0.00    +0.000 C 
ENDROOT
BRANCH   7   8
ATOM      8  P   UNL     1       2.157   5.443  19.693  0.00  0.00    +0.000 P 
ATOM      9  O   UNL     1       0.967   5.286  20.589  0.00  0.00    +0.000 OA
BRANCH   8  10
ATOM     10  O   UNL     1       1.805   4.943  18.200  0.00  0.00    +0.000 OA
ATOM     11  H   UNL     1       1.314   5.620  17.698  0.00  0.00    +0.000 HD
ENDBRANCH   8  10
BRANCH   8  12
ATOM     12  C   UNL     1       3.490   4.340  20.175  0.00  0.00    +0.000 C 
BRANCH  12  13
ATOM     13  C   UNL     1       4.283   3.614  19.081  0.00  0.00    +0.000 C 
BRANCH  13  14
ATOM     14  C   UNL     1       4.472   2.161  19.502  0.00  0.00    +0.000 C 
ATOM     15  O   UNL     1       4.964   1.805  20.567  0.00  0.00    +0.000 OA
BRANCH  14  16
ATOM     16  O   UNL     1       4.000   1.254  18.617  0.00  0.00    +0.000 OA
ATOM     17  H   UNL     1       4.671   0.812  18.068  0.00  0.00    +0.000 HD
ENDBRANCH  14  16
ENDBRANCH  13  14
BRANCH  13  18
ATOM     18  C   UNL     1       5.592   4.308  18.661  0.00  0.00    +0.000 C 
BRANCH  18  19
ATOM     19  C   UNL     1       5.891   4.482  17.189  0.00  0.00    +0.000 A 
ATOM     20  C   UNL     1       7.185   4.734  16.712  0.00  0.00    +0.000 A 
ATOM     21  C   UNL     1       7.440   4.830  15.341  0.00  0.00    +0.000 A 
ATOM     22  C   UNL     1       6.407   4.662  14.423  0.00  0.00    +0.000 A 
ATOM     23  C   UNL     1       5.123   4.382  14.875  0.00  0.00    +0.000 A 
ATOM     24  C   UNL     1       4.872   4.277  16.244  0.00  0.00    +0.000 A 
ENDBRANCH  18  19
ENDBRANCH  13  18
ENDBRANCH  12  13
ENDBRANCH   8  12
ENDBRANCH   7   8
BRANCH   1  25
ATOM     25  C   UNL     1       0.258   9.914  20.452  0.00  0.00    +0.000 C 
BRANCH  25  29
ATOM     26  C   UNL     1      -2.481  10.532  17.860  0.00  0.00    +0.000 C 
ATOM     27  C   UNL     1      -1.199  10.755  18.617  0.00  0.00    +0.000 C 
ATOM     28  O   UNL     1      -0.498  11.743  18.411  0.00  0.00    +0.000 OA
ATOM     29  N   UNL     1      -0.888   9.784  19.539  0.00  0.00    +0.000 N 
ATOM     30  H   UNL     1      -1.459   8.950  19.637  0.00  0.00    +0.000 HD
ENDBRANCH  25  29
BRANCH  25  31
ATOM     31  C   UNL     1      -0.183  10.429  21.840  0.00  0.00    +0.000 C 
BRANCH  31  32
ATOM     32  C   UNL     1      -0.256  11.928  22.017  0.00  0.00    +0.000 A 
ATOM     33  C   UNL     1      -1.177  12.506  22.902  0.00  0.00    +0.000 A 
ATOM     34  C   UNL     1      -1.162  13.882  23.133  0.00  0.00    +0.000 A 
ATOM     35  C   UNL     1      -0.237  14.690  22.476  0.00  0.00    +0.000 A 
ATOM     36  C   UNL     1       0.664  14.129  21.573  0.00  0.00    +0.000 A 
ATOM     37  C   UNL     1       0.654  12.755  21.346  0.00  0.00    +0.000 A 
ENDBRANCH  31  32
ENDBRANCH  25  31
ENDBRANCH   1  25
TORSDOF 12
ENDMDL
MODEL 6
REMARK VINA RESULT:      -7.2      2.303      4.625
REMARK  Name = 
REMARK  13 active torsions:
REMARK  status: ('A' for Active; 'I' for Inactive)
REMARK    1  A    between atoms: C_1  and  C_2
REMARK    2  A    between atoms: N_4  and  C_5
REMARK    3  A    between atoms: C_5  and  C_6
REMARK    4  A    between atoms: C_5  and  C_13
REMARK    5  A    between atoms: C_6  and  C_7
REMARK    6  A    between atoms: C_19  and  P_20
REMARK    7  A    between atoms: P_20  and  O_22
REMARK    8  A    between atoms: P_20  and  C_23
REMARK    9  A    between atoms: C_23  and  C_24
REMARK   10  A    between atoms: C_24  and  C_25
REMARK   11  A    between atoms: C_24  and  C_32
REMARK   12  A    between atoms: C_25  and  C_26
REMARK   13  A    between atoms: C_32  and  O_34
REMARK                            x       y       z     vdW  Elec       q    Type
REMARK                         _______ _______ _______ _____ _____    ______ ____
ROOT
ATOM      1  C   UNL     1       2.001   9.251  18.318  0.00  0.00    +0.000 C 
ATOM      2  O   UNL     1       2.473   9.322  17.181  0.00  0.00    +0.000 OA
ATOM      3  N   UNL     1       2.014   8.062  19.030  0.00  0.00    +0.000 N 
ATOM      4  C   UNL     1       1.576   7.893  20.409  0.00  0.00    +0.000 C 
ATOM      5  C   UNL     1       2.108   6.538  20.810  0.00  0.00    +0.000 C 
ATOM      6  C   UNL     1       1.912   5.756  19.521  0.00  0.00    +0.000 C 
ATOM      7  C   UNL     1       2.359   6.744  18.426  0.00  0.00    +0.000 C 
ENDROOT
BRANCH   7   8
ATOM      8  P   UNL     1       4.091   6.568  17.922  0.00  0.00    +0.000 P 
ATOM      9  O   UNL     1       4.798   7.786  17.411  0.00  0.00    +0.000 OA
BRANCH   8  10
ATOM     10  O   UNL     1       4.849   5.983  19.221  0.00  0.00    +0.000 OA
ATOM     11  H   UNL     1       5.582   6.562  19.503  0.00  0.00    +0.000 HD
ENDBRANCH   8  10
BRANCH   8  12
ATOM     12  C   UNL     1       4.203   5.209  16.754  0.00  0.00    +0.000 C 
BRANCH  12  13
ATOM     13  C   UNL     1       5.185   4.065  17.040  0.00  0.00    +0.000 C 
BRANCH  13  14
ATOM     14  C   UNL     1       6.226   4.031  15.927  0.00  0.00    +0.000 C 
ATOM     15  O   UNL     1       6.011   3.638  14.786  0.00  0.00    +0.000 OA
BRANCH  14  16
ATOM     16  O   UNL     1       7.435   4.527  16.274  0.00  0.00    +0.000 OA
ATOM     17  H   UNL     1       7.984   3.948  16.833  0.00  0.00    +0.000 HD
ENDBRANCH  14  16
ENDBRANCH  13  14
BRANCH  13  18
ATOM     18  C   UNL     1       4.527   2.699  17.308  0.00  0.00    +0.000 C 
BRANCH  18  19
ATOM     19  C   UNL     1       3.440   2.601  18.355  0.00  0.00    +0.000 A 
ATOM     20  C   UNL     1       2.097   2.379  18.023  0.00  0.00    +0.000 A 
ATOM     21  C   UNL     1       1.124   2.232  19.016  0.00  0.00    +0.000 A 
ATOM     22  C   UNL     1       1.482   2.294  20.361  0.00  0.00    +0.000 A 
ATOM     23  C   UNL     1       2.813   2.484  20.711  0.00  0.00    +0.000 A 
ATOM     24  C   UNL     1       3.784   2.621  19.718  0.00  0.00    +0.000 A 
ENDBRANCH  18  19
ENDBRANCH  13  18
ENDBRANCH  12  13
ENDBRANCH   8  12
ENDBRANCH   7   8
BRANCH   1  25
ATOM     25  C   UNL     1       1.351  10.509  18.986  0.00  0.00    +0.000 C 
BRANCH  25  29
ATOM     26  C   UNL     1       2.355  14.099  18.150  0.00  0.00    +0.000 C 
ATOM     27  C   UNL     1       2.100  12.884  18.999  0.00  0.00    +0.000 C 
ATOM     28  O   UNL     1       2.191  12.927  20.223  0.00  0.00    +0.000 OA
ATOM     29  N   UNL     1       1.760  11.746  18.304  0.00  0.00    +0.000 N 
ATOM     30  H   UNL     1       1.756  11.733  17.289  0.00  0.00    +0.000 HD
ENDBRANCH  25  29
BRANCH  25  31
ATOM     31  C   UNL     1      -0.187  10.400  19.083  0.00  0.00    +0.000 C 
BRANCH  31  32
ATOM     32  C   UNL     1      -0.847  11.108  20.243  0.00  0.00    +0.000 A 
ATOM     33  C   UNL     1      -1.827  12.086  20.028  0.00  0.00    +0.000 A 
ATOM     34  C   UNL     1      -2.502  12.655  21.109  0.00  0.00    +0.000 A 
ATOM     35  C   UNL     1      -2.194  12.261  22.409  0.00  0.00    +0.000 A 
ATOM     36  C   UNL     1      -1.201  11.311  22.635  0.00  0.00    +0.000 A 
ATOM     37  C   UNL     1      -0.531  10.738  21.557  0.00  0.00    +0.000 A 
ENDBRANCH  31  32
ENDBRANCH  25  31
ENDBRANCH   1  25
TORSDOF 12
ENDMDL
MODEL 7
REMARK VINA RESULT:      -7.2      2.411      4.326
REMARK  Name = 
REMARK  13 active torsions:
REMARK  status: ('A' for Active; 'I' for Inactive)
REMARK    1  A    between atoms: C_1  and  C_2
REMARK    2  A    between atoms: N_4  and  C_5
REMARK    3  A    between atoms: C_5  and  C_6
REMARK    4  A    between atoms: C_5  and  C_13
REMARK    5  A    between atoms: C_6  and  C_7
REMARK    6  A    between atoms: C_19  and  P_20
REMARK    7  A    between atoms: P_20  and  O_22
REMARK    8  A    between atoms: P_20  and  C_23
REMARK    9  A    between atoms: C_23  and  C_24
REMARK   10  A    between atoms: C_24  and  C_25
REMARK   11  A    between atoms: C_24  and  C_32
REMARK   12  A    between atoms: C_25  and  C_26
REMARK   13  A    between atoms: C_32  and  O_34
REMARK                            x       y       z     vdW  Elec       q    Type
REMARK                         _______ _______ _______ _____ _____    ______ ____
ROOT
ATOM      1  C   UNL     1       1.306   8.658  20.390  0.00  0.00    +0.000 C 
ATOM      2  O   UNL     1       1.219   8.026  21.446  0.00  0.00    +0.000 OA
ATOM      3  N   UNL     1       2.039   8.171  19.319  0.00  0.00    +0.000 N 
ATOM      4  C   UNL     1       2.126   8.783  18.001  0.00  0.00    +0.000 C 
ATOM      5  C   UNL     1       2.737   7.714  17.127  0.00  0.00    +0.000 C 
ATOM      6  C   UNL     1       3.739   7.093  18.087  0.00  0.00    +0.000 C 
ATOM      7  C   UNL     1       2.963   7.005  19.415  0.00  0.00    +0.000 C 
ENDROOT
BRANCH   7   8
ATOM      8  P   UNL     1       2.148   5.411  19.700  0.00  0.00    +0.000 P 
ATOM      9  O   UNL     1       0.977   5.381  20.634  0.00  0.00    +0.000 OA
BRANCH   8  10
ATOM     10  O   UNL     1       1.711   4.894  18.235  0.00  0.00    +0.000 OA
ATOM     11  H   UNL     1       0.770   4.640  18.208  0.00  0.00    +0.000 HD
ENDBRANCH   8  10
BRANCH   8  12
ATOM     12  C   UNL     1       3.400   4.217  20.183  0.00  0.00    +0.000 C 
BRANCH  12  13
ATOM     13  C   UNL     1       4.220   3.520  19.089  0.00  0.00    +0.000 C 
BRANCH  13  14
ATOM     14  C   UNL     1       4.457   2.074  19.509  0.00  0.00    +0.000 C 
ATOM     15  O   UNL     1       4.971   1.733  20.569  0.00  0.00    +0.000 OA
BRANCH  14  16
ATOM     16  O   UNL     1       4.005   1.152  18.629  0.00  0.00    +0.000 OA
ATOM     17  H   UNL     1       3.386   1.482  17.954  0.00  0.00    +0.000 HD
ENDBRANCH  14  16
ENDBRANCH  13  14
BRANCH  13  18
ATOM     18  C   UNL     1       5.505   4.259  18.674  0.00  0.00    +0.000 C 
BRANCH  18  19
ATOM     19  C   UNL     1       5.847   4.367  17.205  0.00  0.00    +0.000 A 
ATOM     20  C   UNL     1       4.892   4.172  16.196  0.00  0.00    +0.000 A 
ATOM     21  C   UNL     1       5.225   4.339  14.849  0.00  0.00    +0.000 A 
ATOM     22  C   UNL     1       6.516   4.714  14.487  0.00  0.00    +0.000 A 
ATOM     23  C   UNL     1       7.468   4.940  15.473  0.00  0.00    +0.000 A 
ATOM     24  C   UNL     1       7.132   4.783  16.819  0.00  0.00    +0.000 A 
ENDBRANCH  18  19
ENDBRANCH  13  18
ENDBRANCH  12  13
ENDBRANCH   8  12
ENDBRANCH   7   8
BRANCH   1  25
ATOM     25  C   UNL     1       0.601  10.046  20.236  0.00  0.00    +0.000 C 
BRANCH  25  29
ATOM     26  C   UNL     1      -2.742  10.363  18.413  0.00  0.00    +0.000 C 
ATOM     27  C   UNL     1      -1.264  10.512  18.653  0.00  0.00    +0.000 C 
ATOM     28  O   UNL     1      -0.551  11.149  17.882  0.00  0.00    +0.000 OA
ATOM     29  N   UNL     1      -0.791   9.890  19.785  0.00  0.00    +0.000 N 
ATOM     30  H   UNL     1      -1.399   9.320  20.365  0.00  0.00    +0.000 HD
ENDBRANCH  25  29
BRANCH  25  31
ATOM     31  C   UNL     1       0.685  10.899  21.522  0.00  0.00    +0.000 C 
BRANCH  31  32
ATOM     32  C   UNL     1      -0.576  11.616  21.945  0.00  0.00    +0.000 A 
ATOM     33  C   UNL     1      -1.401  11.092  22.950  0.00  0.00    +0.000 A 
ATOM     34  C   UNL     1      -2.504  11.817  23.403  0.00  0.00    +0.000 A 
ATOM     35  C   UNL     1      -2.797  13.061  22.848  0.00  0.00    +0.000 A 
ATOM     36  C   UNL     1      -2.000  13.577  21.829  0.00  0.00    +0.000 A 
ATOM     37  C   UNL     1      -0.895  12.858  21.380  0.00  0.00    +0.000 A 
ENDBRANCH  31  32
ENDBRANCH  25  31
ENDBRANCH   1  25
TORSDOF 12
ENDMDL
MODEL 8
REMARK VINA RESULT:      -7.2      3.243      8.891
REMARK  Name = 
REMARK  13 active torsions:
REMARK  status: ('A' for Active; 'I' for Inactive)
REMARK    1  A    between atoms: C_1  and  C_2
REMARK    2  A    between atoms: N_4  and  C_5
REMARK    3  A    between atoms: C_5  and  C_6
REMARK    4  A    between atoms: C_5  and  C_13
REMARK    5  A    between atoms: C_6  and  C_7
REMARK    6  A    between atoms: C_19  and  P_20
REMARK    7  A    between atoms: P_20  and  O_22
REMARK    8  A    between atoms: P_20  and  C_23
REMARK    9  A    between atoms: C_23  and  C_24
REMARK   10  A    between atoms: C_24  and  C_25
REMARK   11  A    between atoms: C_24  and  C_32
REMARK   12  A    between atoms: C_25  and  C_26
REMARK   13  A    between atoms: C_32  and  O_34
REMARK                            x       y       z     vdW  Elec       q    Type
REMARK                         _______ _______ _______ _____ _____    ______ ____
ROOT
ATOM      1  C   UNL     1       2.549   7.480  18.619  0.00  0.00    +0.000 C 
ATOM      2  O   UNL     1       2.783   8.252  17.686  0.00  0.00    +0.000 OA
ATOM      3  N   UNL     1       1.859   7.902  19.745  0.00  0.00    +0.000 N 
ATOM      4  C   UNL     1       1.444   7.053  20.854  0.00  0.00    +0.000 C 
ATOM      5  C   UNL     1       0.456   7.895  21.625  0.00  0.00    +0.000 C 
ATOM      6  C   UNL     1       1.095   9.270  21.509  0.00  0.00    +0.000 C 
ATOM      7  C   UNL     1       1.562   9.331  20.042  0.00  0.00    +0.000 C 
ENDROOT
BRANCH   7   8
ATOM      8  P   UNL     1       0.378  10.112  18.913  0.00  0.00    +0.000 P 
ATOM      9  O   UNL     1       0.079   9.414  17.621  0.00  0.00    +0.000 OA
BRANCH   8  10
ATOM     10  O   UNL     1      -0.972  10.293  19.778  0.00  0.00    +0.000 OA
ATOM     11  H   UNL     1      -1.321  11.202  19.718  0.00  0.00    +0.000 HD
ENDBRANCH   8  10
BRANCH   8  12
ATOM     12  C   UNL     1       0.898  11.808  18.635  0.00  0.00    +0.000 C 
BRANCH  12  13
ATOM     13  C   UNL     1       0.554  12.871  19.687  0.00  0.00    +0.000 C 
BRANCH  13  14
ATOM     14  C   UNL     1      -0.729  13.576  19.263  0.00  0.00    +0.000 C 
ATOM     15  O   UNL     1      -1.410  14.283  19.998  0.00  0.00    +0.000 OA
BRANCH  14  16
ATOM     16  O   UNL     1      -1.057  13.409  17.962  0.00  0.00    +0.000 OA
ATOM     17  H   UNL     1      -0.696  14.072  17.347  0.00  0.00    +0.000 HD
ENDBRANCH  14  16
ENDBRANCH  13  14
BRANCH  13  18
ATOM     18  C   UNL     1       1.702  13.837  20.030  0.00  0.00    +0.000 C 
BRANCH  18  19
ATOM     19  C   UNL     1       2.096  14.895  19.024  0.00  0.00    +0.000 A 
ATOM     20  C   UNL     1       1.526  16.175  19.019  0.00  0.00    +0.000 A 
ATOM     21  C   UNL     1       1.955  17.151  18.114  0.00  0.00    +0.000 A 
ATOM     22  C   UNL     1       2.972  16.865  17.206  0.00  0.00    +0.000 A 
ATOM     23  C   UNL     1       3.570  15.612  17.216  0.00  0.00    +0.000 A 
ATOM     24  C   UNL     1       3.148  14.642  18.126  0.00  0.00    +0.000 A 
ENDBRANCH  18  19
ENDBRANCH  13  18
ENDBRANCH  12  13
ENDBRANCH   8  12
ENDBRANCH   7   8
BRANCH   1  25
ATOM     25  C   UNL     1       3.044   5.997  18.565  0.00  0.00    +0.000 C 
BRANCH  25  29
ATOM     26  C   UNL     1       0.767   2.931  18.669  0.00  0.00    +0.000 C 
ATOM     27  C   UNL     1       1.938   3.811  19.011  0.00  0.00    +0.000 C 
ATOM     28  O   UNL     1       2.840   3.419  19.747  0.00  0.00    +0.000 OA
ATOM     29  N   UNL     1       1.916   5.062  18.440  0.00  0.00    +0.000 N 
ATOM     30  H   UNL     1       1.123   5.372  17.887  0.00  0.00    +0.000 HD
ENDBRANCH  25  29
BRANCH  25  31
ATOM     31  C   UNL     1       4.095   5.763  17.456  0.00  0.00    +0.000 C 
BRANCH  31  32
ATOM     32  C   UNL     1       5.536   6.036  17.817  0.00  0.00    +0.000 A 
ATOM     33  C   UNL     1       6.258   7.056  17.182  0.00  0.00    +0.000 A 
ATOM     34  C   UNL     1       7.554   7.365  17.599  0.00  0.00    +0.000 A 
ATOM     35  C   UNL     1       8.140   6.652  18.642  0.00  0.00    +0.000 A 
ATOM     36  C   UNL     1       7.441   5.617  19.260  0.00  0.00    +0.000 A 
ATOM     37  C   UNL     1       6.146   5.311  18.849  0.00  0.00    +0.000 A 
ENDBRANCH  31  32
ENDBRANCH  25  31
ENDBRANCH   1  25
TORSDOF 12
ENDMDL
MODEL 9
REMARK VINA RESULT:      -7.2      3.353      8.793
REMARK  Name = 
REMARK  13 active torsions:
REMARK  status: ('A' for Active; 'I' for Inactive)
REMARK    1  A    between atoms: C_1  and  C_2
REMARK    2  A    between atoms: N_4  and  C_5
REMARK    3  A    between atoms: C_5  and  C_6
REMARK    4  A    between atoms: C_5  and  C_13
REMARK    5  A    between atoms: C_6  and  C_7
REMARK    6  A    between atoms: C_19  and  P_20
REMARK    7  A    between atoms: P_20  and  O_22
REMARK    8  A    between atoms: P_20  and  C_23
REMARK    9  A    between atoms: C_23  and  C_24
REMARK   10  A    between atoms: C_24  and  C_25
REMARK   11  A    between atoms: C_24  and  C_32
REMARK   12  A    between atoms: C_25  and  C_26
REMARK   13  A    between atoms: C_32  and  O_34
REMARK                            x       y       z     vdW  Elec       q    Type
REMARK                         _______ _______ _______ _____ _____    ______ ____
ROOT
ATOM      1  C   UNL     1       2.326   8.532  18.255  0.00  0.00    +0.000 C 
ATOM      2  O   UNL     1       2.318   9.394  17.373  0.00  0.00    +0.000 OA
ATOM      3  N   UNL     1       1.679   8.735  19.464  0.00  0.00    +0.000 N 
ATOM      4  C   UNL     1       1.541   7.750  20.529  0.00  0.00    +0.000 C 
ATOM      5  C   UNL     1       0.488   8.329  21.444  0.00  0.00    +0.000 C 
ATOM      6  C   UNL     1       0.839   9.807  21.391  0.00  0.00    +0.000 C 
ATOM      7  C   UNL     1       1.144  10.055  19.902  0.00  0.00    +0.000 C 
ENDROOT
BRANCH   7   8
ATOM      8  P   UNL     1      -0.269  10.659  18.940  0.00  0.00    +0.000 P 
ATOM      9  O   UNL     1      -0.694   9.863  17.745  0.00  0.00    +0.000 OA
BRANCH   8  10
ATOM     10  O   UNL     1      -1.481  10.771  19.999  0.00  0.00    +0.000 OA
ATOM     11  H   UNL     1      -2.320  10.440  19.626  0.00  0.00    +0.000 HD
ENDBRANCH   8  10
BRANCH   8  12
ATOM     12  C   UNL     1       0.036  12.375  18.508  0.00  0.00    +0.000 C 
BRANCH  12  13
ATOM     13  C   UNL     1       0.886  13.237  19.451  0.00  0.00    +0.000 C 
BRANCH  13  14
ATOM     14  C   UNL     1       0.060  13.558  20.691  0.00  0.00    +0.000 C 
ATOM     15  O   UNL     1      -1.132  13.847  20.677  0.00  0.00    +0.000 OA
BRANCH  14  16
ATOM     16  O   UNL     1       0.735  13.452  21.858  0.00  0.00    +0.000 OA
ATOM     17  H   UNL     1       0.664  12.593  22.310  0.00  0.00    +0.000 HD
ENDBRANCH  14  16
ENDBRANCH  13  14
BRANCH  13  18
ATOM     18  C   UNL     1       1.521  14.478  18.797  0.00  0.00    +0.000 C 
BRANCH  18  19
ATOM     19  C   UNL     1       3.016  14.681  18.906  0.00  0.00    +0.000 A 
ATOM     20  C   UNL     1       3.835  14.837  17.779  0.00  0.00    +0.000 A 
ATOM     21  C   UNL     1       5.204  15.084  17.914  0.00  0.00    +0.000 A 
ATOM     22  C   UNL     1       5.776  15.190  19.180  0.00  0.00    +0.000 A 
ATOM     23  C   UNL     1       4.975  15.068  20.309  0.00  0.00    +0.000 A 
ATOM     24  C   UNL     1       3.606  14.832  20.172  0.00  0.00    +0.000 A 
ENDBRANCH  18  19
ENDBRANCH  13  18
ENDBRANCH  12  13
ENDBRANCH   8  12
ENDBRANCH   7   8
BRANCH   1  25
ATOM     25  C   UNL     1       3.087   7.182  18.038  0.00  0.00    +0.000 C 
BRANCH  25  29
ATOM     26  C   UNL     1       1.390   3.759  18.104  0.00  0.00    +0.000 C 
ATOM     27  C   UNL     1       2.370   4.838  18.477  0.00  0.00    +0.000 C 
ATOM     28  O   UNL     1       3.297   4.620  19.254  0.00  0.00    +0.000 OA
ATOM     29  N   UNL     1       2.149   6.059  17.885  0.00  0.00    +0.000 N 
ATOM     30  H   UNL     1       1.337   6.218  17.296  0.00  0.00    +0.000 HD
ENDBRANCH  25  29
BRANCH  25  31
ATOM     31  C   UNL     1       4.085   7.248  16.860  0.00  0.00    +0.000 C 
BRANCH  31  32
ATOM     32  C   UNL     1       5.298   6.352  16.947  0.00  0.00    +0.000 A 
ATOM     33  C   UNL     1       6.372   6.672  17.789  0.00  0.00    +0.000 A 
ATOM     34  C   UNL     1       7.438   5.784  17.938  0.00  0.00    +0.000 A 
ATOM     35  C   UNL     1       7.444   4.578  17.240  0.00  0.00    +0.000 A 
ATOM     36  C   UNL     1       6.395   4.263  16.379  0.00  0.00    +0.000 A 
ATOM     37  C   UNL     1       5.328   5.147  16.234  0.00  0.00    +0.000 A 
ENDBRANCH  31  32
ENDBRANCH  25  31
ENDBRANCH   1  25
TORSDOF 12
ENDMDL
