MODEL 1
REMARK VINA RESULT:      -7.5      0.000      0.000
REMARK  Name = 
REMARK  6 active torsions:
REMARK  status: ('A' for Active; 'I' for Inactive)
REMARK    1  A    between atoms: N_1  and  C_2
REMARK    2  A    between atoms: C_2  and  C_3
REMARK    3  A    between atoms: C_2  and  C_19
REMARK    4  A    between atoms: C_3  and  C_4
REMARK    5  A    between atoms: C_4  and  C_5
REMARK    6  A    between atoms: C_5  and  N_6
REMARK                            x       y       z     vdW  Elec       q    Type
REMARK                         _______ _______ _______ _____ _____    ______ ____
ROOT
ATOM      1  C   UNL     1       7.456   8.112  17.318  0.00  0.00    +0.000 C 
ENDROOT
BRANCH   1   2
ATOM      2  N   UNL     1       7.425   6.657  17.090  0.00  0.00    +0.000 NA
ATOM      3  C   UNL     1       7.621   5.850  18.322  0.00  0.00    +0.000 C 
ATOM      4  C   UNL     1       6.456   5.862  19.348  0.00  0.00    +0.000 C 
ATOM      5  N   UNL     1       5.141   5.681  18.710  0.00  0.00    +0.000 N 
ATOM      6  C   UNL     1       4.586   4.413  18.673  0.00  0.00    +0.000 A 
ATOM      7  N   UNL     1       5.069   3.436  19.461  0.00  0.00    +0.000 NA
ATOM      8  C   UNL     1       4.453   2.232  19.416  0.00  0.00    +0.000 A 
ATOM      9  C   UNL     1       3.374   1.964  18.617  0.00  0.00    +0.000 A 
ATOM     10  F   UNL     1       2.786   0.761  18.585  0.00  0.00    +0.000 F 
ATOM     11  C   UNL     1       2.935   3.000  17.851  0.00  0.00    +0.000 A 
ATOM     12  N   UNL     1       3.523   4.216  17.865  0.00  0.00    +0.000 NA
ATOM     13  C   UNL     1       4.927   6.478  17.495  0.00  0.00    +0.000 C 
ATOM     14  C   UNL     1       6.106   6.275  16.515  0.00  0.00    +0.000 C 
ENDBRANCH   1   2
BRANCH   1  15
ATOM     15  C   UNL     1       8.471   8.576  18.368  0.00  0.00    +0.000 C 
BRANCH  15  16
ATOM     16  C   UNL     1       8.726  10.080  18.202  0.00  0.00    +0.000 C 
BRANCH  16  17
ATOM     17  C   UNL     1       9.633  10.723  19.265  0.00  0.00    +0.000 C 
BRANCH  17  18
ATOM     18  C   UNL     1       9.702  12.280  19.255  0.00  0.00    +0.000 C 
ATOM     19  C   UNL     1      10.868  12.800  20.128  0.00  0.00    +0.000 C 
ATOM     20  C   UNL     1      12.235  12.535  19.496  0.00  0.00    +0.000 C 
ATOM     21  C   UNL     1      12.330  13.173  18.115  0.00  0.00    +0.000 C 
ATOM     22  C   UNL     1      11.189  12.731  17.202  0.00  0.00    +0.000 C 
ATOM     23  C   UNL     1       9.819  12.919  17.854  0.00  0.00    +0.000 C 
ENDBRANCH  17  18
BRANCH  17  24
ATOM     24  N   UNL     1       9.237  10.259  20.602  0.00  0.00    +0.000 NA
ATOM     25  H   UNL     1       8.838   9.324  20.539  0.00  0.00    +0.000 HD
ATOM     26  H   UNL     1       8.498  10.857  20.971  0.00  0.00    +0.000 HD
ENDBRANCH  17  24
ENDBRANCH  16  17
ENDBRANCH  15  16
ENDBRANCH   1  15
TORSDOF 6
ENDMDL
MODEL 2
REMARK VINA RESULT:      -7.2      7.569     10.679
REMARK  Name = 
REMARK  6 active torsions:
REMARK  status: ('A' for Active; 'I' for Inactive)
REMARK    1  A    between atoms: N_1  and  C_2
REMARK    2  A    between atoms: C_2  and  C_3
REMARK    3  A    between atoms: C_2  and  C_19
REMARK    4  A    between atoms: C_3  and  C_4
REMARK    5  A    between atoms: C_4  and  C_5
REMARK    6  A    between atoms: C_5  and  N_6
REMARK                            x       y       z     vdW  Elec       q    Type
REMARK                         _______ _______ _______ _____ _____    ______ ____
ROOT
ATOM      1  C   UNL     1       1.660  10.210  18.373  0.00  0.00    +0.000 C 
ENDROOT
BRANCH   1   2
ATOM      2  N   UNL     1       0.381  10.903  18.605  0.00  0.00    +0.000 NA
ATOM      3  C   UNL     1      -0.570  10.144  19.459  0.00  0.00    +0.000 C 
ATOM      4  C   UNL     1      -0.198  10.016  20.961  0.00  0.00    +0.000 C 
ATOM      5  N   UNL     1       0.248  11.294  21.542  0.00  0.00    +0.000 N 
ATOM      6  C   UNL     1      -0.669  12.070  22.230  0.00  0.00    +0.000 A 
ATOM      7  N   UNL     1      -1.840  11.545  22.630  0.00  0.00    +0.000 NA
ATOM      8  C   UNL     1      -2.673  12.340  23.342  0.00  0.00    +0.000 A 
ATOM      9  C   UNL     1      -2.385  13.638  23.670  0.00  0.00    +0.000 A 
ATOM     10  F   UNL     1      -3.229  14.407  24.369  0.00  0.00    +0.000 F 
ATOM     11  C   UNL     1      -1.179  14.101  23.237  0.00  0.00    +0.000 A 
ATOM     12  N   UNL     1      -0.321  13.342  22.523  0.00  0.00    +0.000 NA
ATOM     13  C   UNL     1       1.195  12.054  20.715  0.00  0.00    +0.000 C 
ATOM     14  C   UNL     1       0.640  12.205  19.280  0.00  0.00    +0.000 C 
ENDBRANCH   1   2
BRANCH   1  15
ATOM     15  C   UNL     1       1.531   8.814  17.756  0.00  0.00    +0.000 C 
BRANCH  15  16
ATOM     16  C   UNL     1       2.619   7.898  18.333  0.00  0.00    +0.000 C 
BRANCH  16  17
ATOM     17  C   UNL     1       2.148   6.898  19.403  0.00  0.00    +0.000 C 
BRANCH  17  18
ATOM     18  C   UNL     1       2.931   5.552  19.472  0.00  0.00    +0.000 C 
ATOM     19  C   UNL     1       2.407   4.652  20.616  0.00  0.00    +0.000 C 
ATOM     20  C   UNL     1       1.027   4.066  20.313  0.00  0.00    +0.000 C 
ATOM     21  C   UNL     1       1.048   3.259  19.020  0.00  0.00    +0.000 C 
ATOM     22  C   UNL     1       1.587   4.075  17.847  0.00  0.00    +0.000 C 
ATOM     23  C   UNL     1       2.932   4.729  18.166  0.00  0.00    +0.000 C 
ENDBRANCH  17  18
BRANCH  17  24
ATOM     24  N   UNL     1       2.164   7.542  20.725  0.00  0.00    +0.000 NA
ATOM     25  H   UNL     1       2.808   8.331  20.717  0.00  0.00    +0.000 HD
ATOM     26  H   UNL     1       2.522   6.891  21.423  0.00  0.00    +0.000 HD
ENDBRANCH  17  24
ENDBRANCH  16  17
ENDBRANCH  15  16
ENDBRANCH   1  15
TORSDOF 6
ENDMDL
MODEL 3
REMARK VINA RESULT:      -7.2      1.460      1.918
REMARK  Name = 
REMARK  6 active torsions:
REMARK  status: ('A' for Active; 'I' for Inactive)
REMARK    1  A    between atoms: N_1  and  C_2
REMARK    2  A    between atoms: C_2  and  C_3
REMARK    3  A    between atoms: C_2  and  C_19
REMARK    4  A    between atoms: C_3  and  C_4
REMARK    5  A    between atoms: C_4  and  C_5
REMARK    6  A    between atoms: C_5  and  N_6
REMARK                            x       y       z     vdW  Elec       q    Type
REMARK                         _______ _______ _______ _____ _____    ______ ____
ROOT
ATOM      1  C   UNL     1       7.679   7.431  17.509  0.00  0.00    +0.000 C 
ENDROOT
BRANCH   1   2
ATOM      2  N   UNL     1       6.578   6.778  16.780  0.00  0.00    +0.000 NA
ATOM      3  C   UNL     1       6.749   5.310  16.619  0.00  0.00    +0.000 C 
ATOM      4  C   UNL     1       6.602   4.452  17.905  0.00  0.00    +0.000 C 
ATOM      5  N   UNL     1       5.432   4.840  18.710  0.00  0.00    +0.000 N 
ATOM      6  C   UNL     1       4.255   4.126  18.562  0.00  0.00    +0.000 A 
ATOM      7  N   UNL     1       4.257   2.930  17.946  0.00  0.00    +0.000 NA
ATOM      8  C   UNL     1       3.084   2.259  17.877  0.00  0.00    +0.000 A 
ATOM      9  C   UNL     1       1.909   2.732  18.396  0.00  0.00    +0.000 A 
ATOM     10  F   UNL     1       0.759   2.051  18.308  0.00  0.00    +0.000 F 
ATOM     11  C   UNL     1       1.982   3.945  19.009  0.00  0.00    +0.000 A 
ATOM     12  N   UNL     1       3.132   4.648  19.099  0.00  0.00    +0.000 NA
ATOM     13  C   UNL     1       5.252   6.287  18.887  0.00  0.00    +0.000 C 
ATOM     14  C   UNL     1       5.301   6.997  17.514  0.00  0.00    +0.000 C 
ENDBRANCH   1   2
BRANCH   1  15
ATOM     15  C   UNL     1       7.581   8.958  17.583  0.00  0.00    +0.000 C 
BRANCH  15  16
ATOM     16  C   UNL     1       8.763   9.506  18.395  0.00  0.00    +0.000 C 
BRANCH  16  17
ATOM     17  C   UNL     1       8.973  11.028  18.321  0.00  0.00    +0.000 C 
BRANCH  17  18
ATOM     18  C   UNL     1      10.387  11.502  17.865  0.00  0.00    +0.000 C 
ATOM     19  C   UNL     1      10.394  13.009  17.521  0.00  0.00    +0.000 C 
ATOM     20  C   UNL     1      10.277  13.893  18.764  0.00  0.00    +0.000 C 
ATOM     21  C   UNL     1      11.407  13.607  19.745  0.00  0.00    +0.000 C 
ATOM     22  C   UNL     1      11.484  12.125  20.109  0.00  0.00    +0.000 C 
ATOM     23  C   UNL     1      11.524  11.226  18.873  0.00  0.00    +0.000 C 
ENDBRANCH  17  18
BRANCH  17  24
ATOM     24  N   UNL     1       7.951  11.628  17.451  0.00  0.00    +0.000 NA
ATOM     25  H   UNL     1       8.031  11.245  16.510  0.00  0.00    +0.000 HD
ATOM     26  H   UNL     1       8.117  12.630  17.364  0.00  0.00    +0.000 HD
ENDBRANCH  17  24
ENDBRANCH  16  17
ENDBRANCH  15  16
ENDBRANCH   1  15
TORSDOF 6
ENDMDL
MODEL 4
REMARK VINA RESULT:      -7.1      1.117      1.183
REMARK  Name = 
REMARK  6 active torsions:
REMARK  status: ('A' for Active; 'I' for Inactive)
REMARK    1  A    between atoms: N_1  and  C_2
REMARK    2  A    between atoms: C_2  and  C_3
REMARK    3  A    between atoms: C_2  and  C_19
REMARK    4  A    between atoms: C_3  and  C_4
REMARK    5  A    between atoms: C_4  and  C_5
REMARK    6  A    between atoms: C_5  and  N_6
REMARK                            x       y       z     vdW  Elec       q    Type
REMARK                         _______ _______ _______ _____ _____    ______ ____
ROOT
ATOM      1  C   UNL     1       6.606   7.987  17.540  0.00  0.00    +0.000 C 
ENDROOT
BRANCH   1   2
ATOM      2  N   UNL     1       6.258   6.621  17.113  0.00  0.00    +0.000 NA
ATOM      3  C   UNL     1       6.469   5.589  18.161  0.00  0.00    +0.000 C 
ATOM      4  C   UNL     1       5.489   5.620  19.366  0.00  0.00    +0.000 C 
ATOM      5  N   UNL     1       4.086   5.779  18.948  0.00  0.00    +0.000 N 
ATOM      6  C   UNL     1       3.294   4.649  18.825  0.00  0.00    +0.000 A 
ATOM      7  N   UNL     1       3.686   3.482  19.366  0.00  0.00    +0.000 NA
ATOM      8  C   UNL     1       2.845   2.427  19.255  0.00  0.00    +0.000 A 
ATOM      9  C   UNL     1       1.631   2.489  18.627  0.00  0.00    +0.000 A 
ATOM     10  F   UNL     1       0.820   1.429  18.524  0.00  0.00    +0.000 F 
ATOM     11  C   UNL     1       1.298   3.703  18.107  0.00  0.00    +0.000 A 
ATOM     12  N   UNL     1       2.108   4.780  18.194  0.00  0.00    +0.000 NA
ATOM     13  C   UNL     1       3.859   6.801  17.917  0.00  0.00    +0.000 C 
ATOM     14  C   UNL     1       4.821   6.574  16.727  0.00  0.00    +0.000 C 
ENDBRANCH   1   2
BRANCH   1  15
ATOM     15  C   UNL     1       8.099   8.220  17.793  0.00  0.00    +0.000 C 
BRANCH  15  16
ATOM     16  C   UNL     1       8.395   9.726  17.756  0.00  0.00    +0.000 C 
BRANCH  16  17
ATOM     17  C   UNL     1       9.370  10.239  18.829  0.00  0.00    +0.000 C 
BRANCH  17  18
ATOM     18  C   UNL     1       9.460  11.787  18.986  0.00  0.00    +0.000 C 
ATOM     19  C   UNL     1      10.343  12.182  20.193  0.00  0.00    +0.000 C 
ATOM     20  C   UNL     1      11.828  11.919  19.941  0.00  0.00    +0.000 C 
ATOM     21  C   UNL     1      12.313  12.672  18.708  0.00  0.00    +0.000 C 
ATOM     22  C   UNL     1      11.466  12.357  17.477  0.00  0.00    +0.000 C 
ATOM     23  C   UNL     1       9.971  12.542  17.740  0.00  0.00    +0.000 C 
ENDBRANCH  17  18
BRANCH  17  24
ATOM     24  N   UNL     1       9.043   9.633  20.127  0.00  0.00    +0.000 NA
ATOM     25  H   UNL     1       8.690  10.346  20.762  0.00  0.00    +0.000 HD
ATOM     26  H   UNL     1       9.890   9.263  20.560  0.00  0.00    +0.000 HD
ENDBRANCH  17  24
ENDBRANCH  16  17
ENDBRANCH  15  16
ENDBRANCH   1  15
TORSDOF 6
ENDMDL
MODEL 5
REMARK VINA RESULT:      -7.0      1.207      1.729
REMARK  Name = 
REMARK  6 active torsions:
REMARK  status: ('A' for Active; 'I' for Inactive)
REMARK    1  A    between atoms: N_1  and  C_2
REMARK    2  A    between atoms: C_2  and  C_3
REMARK    3  A    between atoms: C_2  and  C_19
REMARK    4  A    between atoms: C_3  and  C_4
REMARK    5  A    between atoms: C_4  and  C_5
REMARK    6  A    between atoms: C_5  and  N_6
REMARK                            x       y       z     vdW  Elec       q    Type
REMARK                         _______ _______ _______ _____ _____    ______ ____
ROOT
ATOM      1  C   UNL     1       7.556   7.141  16.945  0.00  0.00    +0.000 C 
ENDROOT
BRANCH   1   2
ATOM      2  N   UNL     1       6.112   6.922  16.754  0.00  0.00    +0.000 NA
ATOM      3  C   UNL     1       5.787   5.728  15.931  0.00  0.00    +0.000 C 
ATOM      4  C   UNL     1       6.060   4.345  16.582  0.00  0.00    +0.000 C 
ATOM      5  N   UNL     1       5.578   4.271  17.971  0.00  0.00    +0.000 N 
ATOM      6  C   UNL     1       4.334   3.712  18.216  0.00  0.00    +0.000 A 
ATOM      7  N   UNL     1       3.721   2.977  17.272  0.00  0.00    +0.000 NA
ATOM      8  C   UNL     1       2.531   2.416  17.589  0.00  0.00    +0.000 A 
ATOM      9  C   UNL     1       1.928   2.558  18.810  0.00  0.00    +0.000 A 
ATOM     10  F   UNL     1       0.747   1.998  19.097  0.00  0.00    +0.000 F 
ATOM     11  C   UNL     1       2.609   3.310  19.719  0.00  0.00    +0.000 A 
ATOM     12  N   UNL     1       3.797   3.889  19.442  0.00  0.00    +0.000 NA
ATOM     13  C   UNL     1       5.897   5.440  18.802  0.00  0.00    +0.000 C 
ATOM     14  C   UNL     1       5.461   6.736  18.080  0.00  0.00    +0.000 C 
ENDBRANCH   1   2
BRANCH   1  15
ATOM     15  C   UNL     1       7.922   7.970  18.180  0.00  0.00    +0.000 C 
BRANCH  15  16
ATOM     16  C   UNL     1       8.314   9.389  17.745  0.00  0.00    +0.000 C 
BRANCH  16  17
ATOM     17  C   UNL     1       9.284  10.129  18.682  0.00  0.00    +0.000 C 
BRANCH  17  18
ATOM     18  C   UNL     1       9.291  11.684  18.570  0.00  0.00    +0.000 C 
ATOM     19  C   UNL     1       9.677  12.345  19.914  0.00  0.00    +0.000 C 
ATOM     20  C   UNL     1      11.158  12.161  20.251  0.00  0.00    +0.000 C 
ATOM     21  C   UNL     1      12.043  12.731  19.149  0.00  0.00    +0.000 C 
ATOM     22  C   UNL     1      11.697  12.146  17.781  0.00  0.00    +0.000 C 
ATOM     23  C   UNL     1      10.205  12.254  17.465  0.00  0.00    +0.000 C 
ENDBRANCH  17  18
BRANCH  17  24
ATOM     24  N   UNL     1       9.021   9.739  20.075  0.00  0.00    +0.000 NA
ATOM     25  H   UNL     1       9.881   9.797  20.618  0.00  0.00    +0.000 HD
ATOM     26  H   UNL     1       8.728   8.763  20.112  0.00  0.00    +0.000 HD
ENDBRANCH  17  24
ENDBRANCH  16  17
ENDBRANCH  15  16
ENDBRANCH   1  15
TORSDOF 6
ENDMDL
MODEL 6
REMARK VINA RESULT:      -7.0      1.534      2.217
REMARK  Name = 
REMARK  6 active torsions:
REMARK  status: ('A' for Active; 'I' for Inactive)
REMARK    1  A    between atoms: N_1  and  C_2
REMARK    2  A    between atoms: C_2  and  C_3
REMARK    3  A    between atoms: C_2  and  C_19
REMARK    4  A    between atoms: C_3  and  C_4
REMARK    5  A    between atoms: C_4  and  C_5
REMARK    6  A    between atoms: C_5  and  N_6
REMARK                            x       y       z     vdW  Elec       q    Type
REMARK                         _______ _______ _______ _____ _____    ______ ____
ROOT
ATOM      1  C   UNL     1       7.613   7.312  17.509  0.00  0.00    +0.000 C 
ENDROOT
BRANCH   1   2
ATOM      2  N   UNL     1       6.294   6.941  16.967  0.00  0.00    +0.000 NA
ATOM      3  C   UNL     1       6.266   5.610  16.307  0.00  0.00    +0.000 C 
ATOM      4  C   UNL     1       6.395   4.374  17.238  0.00  0.00    +0.000 C 
ATOM      5  N   UNL     1       5.537   4.475  18.431  0.00  0.00    +0.000 N 
ATOM      6  C   UNL     1       4.299   3.855  18.416  0.00  0.00    +0.000 A 
ATOM      7  N   UNL     1       4.012   2.931  17.481  0.00  0.00    +0.000 NA
ATOM      8  C   UNL     1       2.804   2.325  17.550  0.00  0.00    +0.000 A 
ATOM      9  C   UNL     1       1.871   2.602  18.513  0.00  0.00    +0.000 A 
ATOM     10  F   UNL     1       0.680   1.993  18.555  0.00  0.00    +0.000 F 
ATOM     11  C   UNL     1       2.232   3.543  19.429  0.00  0.00    +0.000 A 
ATOM     12  N   UNL     1       3.426   4.173  19.395  0.00  0.00    +0.000 NA
ATOM     13  C   UNL     1       5.559   5.782  19.101  0.00  0.00    +0.000 C 
ATOM     14  C   UNL     1       5.298   6.908  18.073  0.00  0.00    +0.000 C 
ENDBRANCH   1   2
BRANCH   1  15
ATOM     15  C   UNL     1       7.863   8.820  17.611  0.00  0.00    +0.000 C 
BRANCH  15  16
ATOM     16  C   UNL     1       8.777   9.106  18.811  0.00  0.00    +0.000 C 
BRANCH  16  17
ATOM     17  C   UNL     1       9.198  10.574  18.993  0.00  0.00    +0.000 C 
BRANCH  17  18
ATOM     18  C   UNL     1       9.953  10.910  20.314  0.00  0.00    +0.000 C 
ATOM     19  C   UNL     1      11.171  11.826  20.052  0.00  0.00    +0.000 C 
ATOM     20  C   UNL     1      10.761  13.253  19.686  0.00  0.00    +0.000 C 
ATOM     21  C   UNL     1       9.906  13.874  20.784  0.00  0.00    +0.000 C 
ATOM     22  C   UNL     1       8.695  13.006  21.123  0.00  0.00    +0.000 C 
ATOM     23  C   UNL     1       9.085  11.557  21.415  0.00  0.00    +0.000 C 
ENDBRANCH  17  18
BRANCH  17  24
ATOM     24  N   UNL     1      10.007  11.004  17.843  0.00  0.00    +0.000 NA
ATOM     25  H   UNL     1      10.024  10.270  17.138  0.00  0.00    +0.000 HD
ATOM     26  H   UNL     1      10.975  11.140  18.133  0.00  0.00    +0.000 HD
ENDBRANCH  17  24
ENDBRANCH  16  17
ENDBRANCH  15  16
ENDBRANCH   1  15
TORSDOF 6
ENDMDL
MODEL 7
REMARK VINA RESULT:      -7.0      4.996      8.767
REMARK  Name = 
REMARK  6 active torsions:
REMARK  status: ('A' for Active; 'I' for Inactive)
REMARK    1  A    between atoms: N_1  and  C_2
REMARK    2  A    between atoms: C_2  and  C_3
REMARK    3  A    between atoms: C_2  and  C_19
REMARK    4  A    between atoms: C_3  and  C_4
REMARK    5  A    between atoms: C_4  and  C_5
REMARK    6  A    between atoms: C_5  and  N_6
REMARK                            x       y       z     vdW  Elec       q    Type
REMARK                         _______ _______ _______ _____ _____    ______ ____
ROOT
ATOM      1  C   UNL     1       4.890   5.949  19.122  0.00  0.00    +0.000 C 
ENDROOT
BRANCH   1   2
ATOM      2  N   UNL     1       4.894   6.491  17.752  0.00  0.00    +0.000 NA
ATOM      3  C   UNL     1       6.232   6.941  17.286  0.00  0.00    +0.000 C 
ATOM      4  C   UNL     1       7.275   5.825  17.005  0.00  0.00    +0.000 C 
ATOM      5  N   UNL     1       6.710   4.707  16.232  0.00  0.00    +0.000 N 
ATOM      6  C   UNL     1       6.888   4.687  14.859  0.00  0.00    +0.000 A 
ATOM      7  N   UNL     1       7.806   5.482  14.281  0.00  0.00    +0.000 NA
ATOM      8  C   UNL     1       7.967   5.381  12.940  0.00  0.00    +0.000 A 
ATOM      9  C   UNL     1       7.251   4.519  12.154  0.00  0.00    +0.000 A 
ATOM     10  F   UNL     1       7.424   4.443  10.829  0.00  0.00    +0.000 F 
ATOM     11  C   UNL     1       6.344   3.741  12.808  0.00  0.00    +0.000 A 
ATOM     12  N   UNL     1       6.150   3.812  14.142  0.00  0.00    +0.000 NA
ATOM     13  C   UNL     1       5.391   4.244  16.685  0.00  0.00    +0.000 C 
ATOM     14  C   UNL     1       4.423   5.444  16.804  0.00  0.00    +0.000 C 
ENDBRANCH   1   2
BRANCH   1  15
ATOM     15  C   UNL     1       3.499   5.641  19.686  0.00  0.00    +0.000 C 
BRANCH  15  16
ATOM     16  C   UNL     1       3.489   4.224  20.276  0.00  0.00    +0.000 C 
BRANCH  16  17
ATOM     17  C   UNL     1       2.147   3.757  20.864  0.00  0.00    +0.000 C 
BRANCH  17  18
ATOM     18  C   UNL     1       1.442   2.586  20.115  0.00  0.00    +0.000 C 
ATOM     19  C   UNL     1       0.550   3.106  18.964  0.00  0.00    +0.000 C 
ATOM     20  C   UNL     1       1.368   3.635  17.785  0.00  0.00    +0.000 C 
ATOM     21  C   UNL     1       2.298   2.559  17.239  0.00  0.00    +0.000 C 
ATOM     22  C   UNL     1       3.192   1.971  18.329  0.00  0.00    +0.000 C 
ATOM     23  C   UNL     1       2.392   1.509  19.547  0.00  0.00    +0.000 C 
ENDBRANCH  17  18
BRANCH  17  24
ATOM     24  N   UNL     1       2.323   3.399  22.279  0.00  0.00    +0.000 NA
ATOM     25  H   UNL     1       1.635   3.888  22.847  0.00  0.00    +0.000 HD
ATOM     26  H   UNL     1       3.236   3.715  22.605  0.00  0.00    +0.000 HD
ENDBRANCH  17  24
ENDBRANCH  16  17
ENDBRANCH  15  16
ENDBRANCH   1  15
TORSDOF 6
ENDMDL
MODEL 8
REMARK VINA RESULT:      -6.9      0.728      1.342
REMARK  Name = 
REMARK  6 active torsions:
REMARK  status: ('A' for Active; 'I' for Inactive)
REMARK    1  A    between atoms: N_1  and  C_2
REMARK    2  A    between atoms: C_2  and  C_3
REMARK    3  A    between atoms: C_2  and  C_19
REMARK    4  A    between atoms: C_3  and  C_4
REMARK    5  A    between atoms: C_4  and  C_5
REMARK    6  A    between atoms: C_5  and  N_6
REMARK                            x       y       z     vdW  Elec       q    Type
REMARK                         _______ _______ _______ _____ _____    ______ ____
ROOT
ATOM      1  C   UNL     1       7.374   8.151  17.428  0.00  0.00    +0.000 C 
ENDROOT
BRANCH   1   2
ATOM      2  N   UNL     1       7.213   6.731  17.068  0.00  0.00    +0.000 NA
ATOM      3  C   UNL     1       7.521   5.790  18.177  0.00  0.00    +0.000 C 
ATOM      4  C   UNL     1       6.511   5.758  19.356  0.00  0.00    +0.000 C 
ATOM      5  N   UNL     1       5.112   5.716  18.898  0.00  0.00    +0.000 N 
ATOM      6  C   UNL     1       4.472   4.490  18.820  0.00  0.00    +0.000 A 
ATOM      7  N   UNL     1       4.991   3.412  19.434  0.00  0.00    +0.000 NA
ATOM      8  C   UNL     1       4.293   2.254  19.362  0.00  0.00    +0.000 A 
ATOM      9  C   UNL     1       3.099   2.129  18.704  0.00  0.00    +0.000 A 
ATOM     10  F   UNL     1       2.432   0.970  18.642  0.00  0.00    +0.000 F 
ATOM     11  C   UNL     1       2.631   3.262  18.111  0.00  0.00    +0.000 A 
ATOM     12  N   UNL     1       3.297   4.436  18.157  0.00  0.00    +0.000 NA
ATOM     13  C   UNL     1       4.788   6.646  17.808  0.00  0.00    +0.000 C 
ATOM     14  C   UNL     1       5.805   6.482  16.654  0.00  0.00    +0.000 C 
ENDBRANCH   1   2
BRANCH   1  15
ATOM     15  C   UNL     1       8.575   8.452  18.330  0.00  0.00    +0.000 C 
BRANCH  15  16
ATOM     16  C   UNL     1       8.763   9.971  18.438  0.00  0.00    +0.000 C 
BRANCH  16  17
ATOM     17  C   UNL     1       9.725  10.446  19.541  0.00  0.00    +0.000 C 
BRANCH  17  18
ATOM     18  C   UNL     1      11.023  11.160  19.056  0.00  0.00    +0.000 C 
ATOM     19  C   UNL     1      10.833  11.787  17.655  0.00  0.00    +0.000 C 
ATOM     20  C   UNL     1       9.926  13.018  17.684  0.00  0.00    +0.000 C 
ATOM     21  C   UNL     1      10.477  14.080  18.629  0.00  0.00    +0.000 C 
ATOM     22  C   UNL     1      10.722  13.524  20.030  0.00  0.00    +0.000 C 
ATOM     23  C   UNL     1      11.564  12.248  20.009  0.00  0.00    +0.000 C 
ENDBRANCH  17  18
BRANCH  17  24
ATOM     24  N   UNL     1       9.008  11.319  20.482  0.00  0.00    +0.000 NA
ATOM     25  H   UNL     1       8.962  10.875  21.398  0.00  0.00    +0.000 HD
ATOM     26  H   UNL     1       8.042  11.438  20.177  0.00  0.00    +0.000 HD
ENDBRANCH  17  24
ENDBRANCH  16  17
ENDBRANCH  15  16
ENDBRANCH   1  15
TORSDOF 6
ENDMDL
MODEL 9
REMARK VINA RESULT:      -6.8      4.521     10.171
REMARK  Name = 
REMARK  6 active torsions:
REMARK  status: ('A' for Active; 'I' for Inactive)
REMARK    1  A    between atoms: N_1  and  C_2
REMARK    2  A    between atoms: C_2  and  C_3
REMARK    3  A    between atoms: C_2  and  C_19
REMARK    4  A    between atoms: C_3  and  C_4
REMARK    5  A    between atoms: C_4  and  C_5
REMARK    6  A    between atoms: C_5  and  N_6
REMARK                            x       y       z     vdW  Elec       q    Type
REMARK                         _______ _______ _______ _____ _____    ______ ____
ROOT
ATOM      1  C   UNL     1       8.981   9.399  18.937  0.00  0.00    +0.000 C 
ENDROOT
BRANCH   1   2
ATOM      2  N   UNL     1       8.763  10.815  19.277  0.00  0.00    +0.000 NA
ATOM      3  C   UNL     1       9.677  11.330  20.330  0.00  0.00    +0.000 C 
ATOM      4  C   UNL     1      11.167  11.503  19.926  0.00  0.00    +0.000 C 
ATOM      5  N   UNL     1      11.323  12.159  18.617  0.00  0.00    +0.000 N 
ATOM      6  C   UNL     1      11.552  13.524  18.578  0.00  0.00    +0.000 A 
ATOM      7  N   UNL     1      11.933  14.182  19.687  0.00  0.00    +0.000 NA
ATOM      8  C   UNL     1      12.189  15.506  19.573  0.00  0.00    +0.000 A 
ATOM      9  C   UNL     1      12.081  16.200  18.398  0.00  0.00    +0.000 A 
ATOM     10  F   UNL     1      12.333  17.512  18.313  0.00  0.00    +0.000 F 
ATOM     11  C   UNL     1      11.696  15.469  17.315  0.00  0.00    +0.000 A 
ATOM     12  N   UNL     1      11.429  14.147  17.386  0.00  0.00    +0.000 NA
ATOM     13  C   UNL     1      10.432  11.657  17.562  0.00  0.00    +0.000 C 
ATOM     14  C   UNL     1       8.969  11.653  18.064  0.00  0.00    +0.000 C 
ENDBRANCH   1   2
BRANCH   1  15
ATOM     15  C   UNL     1       7.929   8.795  18.001  0.00  0.00    +0.000 C 
BRANCH  15  16
ATOM     16  C   UNL     1       8.200   7.294  17.829  0.00  0.00    +0.000 C 
BRANCH  16  17
ATOM     17  C   UNL     1       7.269   6.356  18.616  0.00  0.00    +0.000 C 
BRANCH  17  18
ATOM     18  C   UNL     1       6.393   5.388  17.763  0.00  0.00    +0.000 C 
ATOM     19  C   UNL     1       5.439   4.557  18.653  0.00  0.00    +0.000 C 
ATOM     20  C   UNL     1       4.302   5.398  19.235  0.00  0.00    +0.000 C 
ATOM     21  C   UNL     1       3.491   6.061  18.127  0.00  0.00    +0.000 C 
ATOM     22  C   UNL     1       4.373   6.876  17.184  0.00  0.00    +0.000 C 
ATOM     23  C   UNL     1       5.559   6.068  16.656  0.00  0.00    +0.000 C 
ENDBRANCH  17  18
BRANCH  17  24
ATOM     24  N   UNL     1       8.053   5.578  19.587  0.00  0.00    +0.000 NA
ATOM     25  H   UNL     1       8.063   4.597  19.316  0.00  0.00    +0.000 HD
ATOM     26  H   UNL     1       7.605   5.615  20.502  0.00  0.00    +0.000 HD
ENDBRANCH  17  24
ENDBRANCH  16  17
ENDBRANCH  15  16
ENDBRANCH   1  15
TORSDOF 6
ENDMDL
