MODEL 1
REMARK VINA RESULT:      -7.9      0.000      0.000
REMARK  Name = 
REMARK  6 active torsions:
REMARK  status: ('A' for Active; 'I' for Inactive)
REMARK    1  A    between atoms: C_1  and  C_2
REMARK    2  A    between atoms: C_5  and  C_6
REMARK    3  A    between atoms: C_7  and  N_8
REMARK    4  A    between atoms: C_12  and  C_14
REMARK    5  A    between atoms: C_14  and  C_15
REMARK    6  A    between atoms: C_15  and  C_16
REMARK                            x       y       z     vdW  Elec       q    Type
REMARK                         _______ _______ _______ _____ _____    ______ ____
ROOT
ATOM      1  N   UNL     1       0.812   9.318  19.238  0.00  0.00    +0.000 N 
ATOM      2  C   UNL     1       1.329   8.511  20.365  0.00  0.00    +0.000 C 
ATOM      3  C   UNL     1       1.793   7.144  19.831  0.00  0.00    +0.000 C 
ATOM      4  N   UNL     1       2.780   7.297  18.752  0.00  0.00    +0.000 N 
ATOM      5  C   UNL     1       3.903   6.489  18.753  0.00  0.00    +0.000 C 
ATOM      6  O   UNL     1       4.147   5.720  19.685  0.00  0.00    +0.000 OA
ATOM      7  C   UNL     1       2.356   8.202  17.669  0.00  0.00    +0.000 C 
ATOM      8  C   UNL     1       1.858   9.557  18.217  0.00  0.00    +0.000 C 
ENDROOT
BRANCH   1  15
ATOM      9  C   UNL     1      -0.397  13.089  22.243  0.00  0.00    +0.000 C 
ATOM     10  C   UNL     1      -0.636  12.299  20.991  0.00  0.00    +0.000 A 
ATOM     11  C   UNL     1      -1.685  12.619  20.133  0.00  0.00    +0.000 A 
ATOM     12  C   UNL     1      -1.910  11.853  18.992  0.00  0.00    +0.000 A 
ATOM     13  C   UNL     1      -1.097  10.745  18.691  0.00  0.00    +0.000 A 
ATOM     14  C   UNL     1      -1.470   9.907  17.494  0.00  0.00    +0.000 C 
ATOM     15  C   UNL     1      -0.001  10.422  19.526  0.00  0.00    +0.000 A 
ATOM     16  C   UNL     1       0.197  11.213  20.675  0.00  0.00    +0.000 A 
ENDBRANCH   1  15
BRANCH   5  17
ATOM     17  C   UNL     1       4.873   6.626  17.598  0.00  0.00    +0.000 C 
BRANCH  17  18
ATOM     18  C   UNL     1       5.767   5.392  17.503  0.00  0.00    +0.000 C 
BRANCH  18  19
ATOM     19  C   UNL     1       6.004   4.992  16.087  0.00  0.00    +0.000 A 
ATOM     20  N   UNL     1       5.316   4.123  15.377  0.00  0.00    +0.000 NA
ATOM     21  C   UNL     1       5.925   4.088  14.146  0.00  0.00    +0.000 A 
ATOM     22  C   UNL     1       5.606   3.335  13.009  0.00  0.00    +0.000 A 
ATOM     23  C   UNL     1       6.397   3.489  11.860  0.00  0.00    +0.000 A 
ATOM     24  C   UNL     1       7.481   4.365  11.851  0.00  0.00    +0.000 A 
ATOM     25  C   UNL     1       7.821   5.121  12.980  0.00  0.00    +0.000 A 
ATOM     26  C   UNL     1       7.012   4.952  14.105  0.00  0.00    +0.000 A 
ATOM     27  N   UNL     1       7.043   5.513  15.355  0.00  0.00    +0.000 N 
ATOM     28  H   UNL     1       7.713   6.192  15.683  0.00  0.00    +0.000 HD
ENDBRANCH  18  19
ENDBRANCH  17  18
ENDBRANCH   5  17
TORSDOF 4
ENDMDL
MODEL 2
REMARK VINA RESULT:      -7.8      2.967     11.056
REMARK  Name = 
REMARK  6 active torsions:
REMARK  status: ('A' for Active; 'I' for Inactive)
REMARK    1  A    between atoms: C_1  and  C_2
REMARK    2  A    between atoms: C_5  and  C_6
REMARK    3  A    between atoms: C_7  and  N_8
REMARK    4  A    between atoms: C_12  and  C_14
REMARK    5  A    between atoms: C_14  and  C_15
REMARK    6  A    between atoms: C_15  and  C_16
REMARK                            x       y       z     vdW  Elec       q    Type
REMARK                         _______ _______ _______ _____ _____    ______ ____
ROOT
ATOM      1  N   UNL     1       2.557   6.980  18.420  0.00  0.00    +0.000 N 
ATOM      2  C   UNL     1       2.539   8.330  17.815  0.00  0.00    +0.000 C 
ATOM      3  C   UNL     1       1.281   9.076  18.293  0.00  0.00    +0.000 C 
ATOM      4  N   UNL     1       1.207   9.119  19.761  0.00  0.00    +0.000 N 
ATOM      5  C   UNL     1       0.854  10.304  20.379  0.00  0.00    +0.000 C 
ATOM      6  O   UNL     1       0.700  11.348  19.740  0.00  0.00    +0.000 OA
ATOM      7  C   UNL     1       1.355   7.804  20.411  0.00  0.00    +0.000 C 
ATOM      8  C   UNL     1       2.600   7.048  19.899  0.00  0.00    +0.000 C 
ENDROOT
BRANCH   1  15
ATOM      9  C   UNL     1       6.881   5.704  16.324  0.00  0.00    +0.000 C 
ATOM     10  C   UNL     1       5.507   5.330  16.797  0.00  0.00    +0.000 A 
ATOM     11  C   UNL     1       5.022   4.036  16.632  0.00  0.00    +0.000 A 
ATOM     12  C   UNL     1       3.731   3.718  17.049  0.00  0.00    +0.000 A 
ATOM     13  C   UNL     1       2.897   4.690  17.631  0.00  0.00    +0.000 A 
ATOM     14  C   UNL     1       1.481   4.292  17.960  0.00  0.00    +0.000 C 
ATOM     15  C   UNL     1       3.381   6.003  17.845  0.00  0.00    +0.000 A 
ATOM     16  C   UNL     1       4.688   6.294  17.408  0.00  0.00    +0.000 A 
ENDBRANCH   1  15
BRANCH   5  17
ATOM     17  C   UNL     1       0.729  10.304  21.888  0.00  0.00    +0.000 C 
BRANCH  17  18
ATOM     18  C   UNL     1      -0.741  10.251  22.302  0.00  0.00    +0.000 C 
BRANCH  18  19
ATOM     19  C   UNL     1      -1.218  11.570  22.806  0.00  0.00    +0.000 A 
ATOM     20  N   UNL     1      -0.515  12.675  22.942  0.00  0.00    +0.000 NA
ATOM     21  C   UNL     1      -1.386  13.605  23.454  0.00  0.00    +0.000 A 
ATOM     22  C   UNL     1      -1.169  14.947  23.793  0.00  0.00    +0.000 A 
ATOM     23  C   UNL     1      -2.243  15.693  24.301  0.00  0.00    +0.000 A 
ATOM     24  C   UNL     1      -3.498  15.110  24.474  0.00  0.00    +0.000 A 
ATOM     25  C   UNL     1      -3.734  13.770  24.148  0.00  0.00    +0.000 A 
ATOM     26  C   UNL     1      -2.648  13.055  23.639  0.00  0.00    +0.000 A 
ATOM     27  N   UNL     1      -2.513  11.757  23.222  0.00  0.00    +0.000 N 
ATOM     28  H   UNL     1      -3.240  11.056  23.220  0.00  0.00    +0.000 HD
ENDBRANCH  18  19
ENDBRANCH  17  18
ENDBRANCH   5  17
TORSDOF 4
ENDMDL
MODEL 3
REMARK VINA RESULT:      -7.8      4.239      8.925
REMARK  Name = 
REMARK  6 active torsions:
REMARK  status: ('A' for Active; 'I' for Inactive)
REMARK    1  A    between atoms: C_1  and  C_2
REMARK    2  A    between atoms: C_5  and  C_6
REMARK    3  A    between atoms: C_7  and  N_8
REMARK    4  A    between atoms: C_12  and  C_14
REMARK    5  A    between atoms: C_14  and  C_15
REMARK    6  A    between atoms: C_15  and  C_16
REMARK                            x       y       z     vdW  Elec       q    Type
REMARK                         _______ _______ _______ _____ _____    ______ ____
ROOT
ATOM      1  N   UNL     1       1.652   8.014  20.358  0.00  0.00    +0.000 N 
ATOM      2  C   UNL     1       0.991   8.030  21.682  0.00  0.00    +0.000 C 
ATOM      3  C   UNL     1       1.146   9.430  22.302  0.00  0.00    +0.000 C 
ATOM      4  N   UNL     1       0.629  10.474  21.404  0.00  0.00    +0.000 N 
ATOM      5  C   UNL     1      -0.150  11.486  21.934  0.00  0.00    +0.000 C 
ATOM      6  O   UNL     1      -0.507  11.480  23.114  0.00  0.00    +0.000 OA
ATOM      7  C   UNL     1       1.165  10.411  20.032  0.00  0.00    +0.000 C 
ATOM      8  C   UNL     1       1.038   8.994  19.433  0.00  0.00    +0.000 C 
ENDROOT
BRANCH   1  15
ATOM      9  C   UNL     1       1.707   3.050  20.632  0.00  0.00    +0.000 C 
ATOM     10  C   UNL     1       2.021   4.313  19.885  0.00  0.00    +0.000 A 
ATOM     11  C   UNL     1       2.666   4.272  18.652  0.00  0.00    +0.000 A 
ATOM     12  C   UNL     1       2.977   5.458  17.990  0.00  0.00    +0.000 A 
ATOM     13  C   UNL     1       2.659   6.707  18.553  0.00  0.00    +0.000 A 
ATOM     14  C   UNL     1       3.122   7.942  17.823  0.00  0.00    +0.000 C 
ATOM     15  C   UNL     1       1.970   6.774  19.787  0.00  0.00    +0.000 A 
ATOM     16  C   UNL     1       1.674   5.558  20.434  0.00  0.00    +0.000 A 
ENDBRANCH   1  15
BRANCH   5  17
ATOM     17  C   UNL     1      -0.620  12.580  20.998  0.00  0.00    +0.000 C 
BRANCH  17  18
ATOM     18  C   UNL     1      -2.124  12.469  20.758  0.00  0.00    +0.000 C 
BRANCH  18  19
ATOM     19  C   UNL     1      -2.426  11.850  19.436  0.00  0.00    +0.000 A 
ATOM     20  N   UNL     1      -1.754  10.896  18.829  0.00  0.00    +0.000 NA
ATOM     21  C   UNL     1      -2.408  10.681  17.641  0.00  0.00    +0.000 A 
ATOM     22  C   UNL     1      -2.123   9.777  16.609  0.00  0.00    +0.000 A 
ATOM     23  C   UNL     1      -2.964   9.754  15.486  0.00  0.00    +0.000 A 
ATOM     24  C   UNL     1      -4.056  10.616  15.394  0.00  0.00    +0.000 A 
ATOM     25  C   UNL     1      -4.354  11.531  16.411  0.00  0.00    +0.000 A 
ATOM     26  C   UNL     1      -3.504  11.527  17.518  0.00  0.00    +0.000 A 
ATOM     27  N   UNL     1      -3.491  12.264  18.673  0.00  0.00    +0.000 N 
ATOM     28  H   UNL     1      -4.149  12.987  18.922  0.00  0.00    +0.000 HD
ENDBRANCH  18  19
ENDBRANCH  17  18
ENDBRANCH   5  17
TORSDOF 4
ENDMDL
MODEL 4
REMARK VINA RESULT:      -7.8      3.097     10.283
REMARK  Name = 
REMARK  6 active torsions:
REMARK  status: ('A' for Active; 'I' for Inactive)
REMARK    1  A    between atoms: C_1  and  C_2
REMARK    2  A    between atoms: C_5  and  C_6
REMARK    3  A    between atoms: C_7  and  N_8
REMARK    4  A    between atoms: C_12  and  C_14
REMARK    5  A    between atoms: C_14  and  C_15
REMARK    6  A    between atoms: C_15  and  C_16
REMARK                            x       y       z     vdW  Elec       q    Type
REMARK                         _______ _______ _______ _____ _____    ______ ____
ROOT
ATOM      1  N   UNL     1       2.641   7.084  18.548  0.00  0.00    +0.000 N 
ATOM      2  C   UNL     1       1.824   6.980  19.777  0.00  0.00    +0.000 C 
ATOM      3  C   UNL     1       1.668   8.381  20.394  0.00  0.00    +0.000 C 
ATOM      4  N   UNL     1       1.106   9.335  19.426  0.00  0.00    +0.000 N 
ATOM      5  C   UNL     1       0.111  10.201  19.841  0.00  0.00    +0.000 C 
ATOM      6  O   UNL     1      -0.387  10.126  20.967  0.00  0.00    +0.000 OA
ATOM      7  C   UNL     1       1.815   9.373  18.134  0.00  0.00    +0.000 C 
ATOM      8  C   UNL     1       1.998   7.959  17.541  0.00  0.00    +0.000 C 
ENDROOT
BRANCH   1  15
ATOM      9  C   UNL     1       2.472   2.174  17.788  0.00  0.00    +0.000 C 
ATOM     10  C   UNL     1       3.185   3.486  17.644  0.00  0.00    +0.000 A 
ATOM     11  C   UNL     1       4.442   3.555  17.050  0.00  0.00    +0.000 A 
ATOM     12  C   UNL     1       5.100   4.779  16.956  0.00  0.00    +0.000 A 
ATOM     13  C   UNL     1       4.521   5.956  17.463  0.00  0.00    +0.000 A 
ATOM     14  C   UNL     1       5.342   7.219  17.414  0.00  0.00    +0.000 C 
ATOM     15  C   UNL     1       3.227   5.918  18.036  0.00  0.00    +0.000 A 
ATOM     16  C   UNL     1       2.589   4.665  18.121  0.00  0.00    +0.000 A 
ENDBRANCH   1  15
BRANCH   5  17
ATOM     17  C   UNL     1      -0.408  11.212  18.840  0.00  0.00    +0.000 C 
BRANCH  17  18
ATOM     18  C   UNL     1      -1.415  10.560  17.895  0.00  0.00    +0.000 C 
BRANCH  18  19
ATOM     19  C   UNL     1      -2.813  10.966  18.216  0.00  0.00    +0.000 A 
ATOM     20  N   UNL     1      -3.925  10.408  17.787  0.00  0.00    +0.000 NA
ATOM     21  C   UNL     1      -4.944  11.142  18.340  0.00  0.00    +0.000 A 
ATOM     22  C   UNL     1      -6.331  10.988  18.217  0.00  0.00    +0.000 A 
ATOM     23  C   UNL     1      -7.169  11.883  18.899  0.00  0.00    +0.000 A 
ATOM     24  C   UNL     1      -6.634  12.911  19.677  0.00  0.00    +0.000 A 
ATOM     25  C   UNL     1      -5.251  13.086  19.806  0.00  0.00    +0.000 A 
ATOM     26  C   UNL     1      -4.443  12.176  19.122  0.00  0.00    +0.000 A 
ATOM     27  N   UNL     1      -3.083  12.044  19.023  0.00  0.00    +0.000 N 
ATOM     28  H   UNL     1      -2.397  12.636  19.466  0.00  0.00    +0.000 HD
ENDBRANCH  18  19
ENDBRANCH  17  18
ENDBRANCH   5  17
TORSDOF 4
ENDMDL
MODEL 5
REMARK VINA RESULT:      -7.8      3.094     10.930
REMARK  Name = 
REMARK  6 active torsions:
REMARK  status: ('A' for Active; 'I' for Inactive)
REMARK    1  A    between atoms: C_1  and  C_2
REMARK    2  A    between atoms: C_5  and  C_6
REMARK    3  A    between atoms: C_7  and  N_8
REMARK    4  A    between atoms: C_12  and  C_14
REMARK    5  A    between atoms: C_14  and  C_15
REMARK    6  A    between atoms: C_15  and  C_16
REMARK                            x       y       z     vdW  Elec       q    Type
REMARK                         _______ _______ _______ _____ _____    ______ ____
ROOT
ATOM      1  N   UNL     1       2.545   7.083  18.401  0.00  0.00    +0.000 N 
ATOM      2  C   UNL     1       2.629   8.370  17.675  0.00  0.00    +0.000 C 
ATOM      3  C   UNL     1       1.340   9.172  17.929  0.00  0.00    +0.000 C 
ATOM      4  N   UNL     1       1.095   9.355  19.367  0.00  0.00    +0.000 N 
ATOM      5  C   UNL     1       0.699  10.597  19.826  0.00  0.00    +0.000 C 
ATOM      6  O   UNL     1       0.645  11.578  19.079  0.00  0.00    +0.000 OA
ATOM      7  C   UNL     1       1.135   8.107  20.150  0.00  0.00    +0.000 C 
ATOM      8  C   UNL     1       2.415   7.291  19.862  0.00  0.00    +0.000 C 
ENDROOT
BRANCH   1  15
ATOM      9  C   UNL     1       7.129   5.500  17.307  0.00  0.00    +0.000 C 
ATOM     10  C   UNL     1       5.664   5.223  17.468  0.00  0.00    +0.000 A 
ATOM     11  C   UNL     1       5.142   3.960  17.201  0.00  0.00    +0.000 A 
ATOM     12  C   UNL     1       3.774   3.733  17.324  0.00  0.00    +0.000 A 
ATOM     13  C   UNL     1       2.898   4.764  17.708  0.00  0.00    +0.000 A 
ATOM     14  C   UNL     1       1.421   4.463  17.718  0.00  0.00    +0.000 C 
ATOM     15  C   UNL     1       3.409   6.047  18.022  0.00  0.00    +0.000 A 
ATOM     16  C   UNL     1       4.796   6.247  17.883  0.00  0.00    +0.000 A 
ENDBRANCH   1  15
BRANCH   5  17
ATOM     17  C   UNL     1       0.396  10.742  21.303  0.00  0.00    +0.000 C 
BRANCH  17  18
ATOM     18  C   UNL     1       0.044  12.190  21.636  0.00  0.00    +0.000 C 
BRANCH  18  19
ATOM     19  C   UNL     1      -1.391  12.336  22.009  0.00  0.00    +0.000 A 
ATOM     20  N   UNL     1      -2.404  12.579  21.206  0.00  0.00    +0.000 NA
ATOM     21  C   UNL     1      -3.512  12.639  22.015  0.00  0.00    +0.000 A 
ATOM     22  C   UNL     1      -4.853  12.871  21.686  0.00  0.00    +0.000 A 
ATOM     23  C   UNL     1      -5.806  12.878  22.716  0.00  0.00    +0.000 A 
ATOM     24  C   UNL     1      -5.426  12.666  24.041  0.00  0.00    +0.000 A 
ATOM     25  C   UNL     1      -4.090  12.440  24.392  0.00  0.00    +0.000 A 
ATOM     26  C   UNL     1      -3.166  12.432  23.345  0.00  0.00    +0.000 A 
ATOM     27  N   UNL     1      -1.809  12.245  23.315  0.00  0.00    +0.000 N 
ATOM     28  H   UNL     1      -1.217  12.071  24.113  0.00  0.00    +0.000 HD
ENDBRANCH  18  19
ENDBRANCH  17  18
ENDBRANCH   5  17
TORSDOF 4
ENDMDL
MODEL 6
REMARK VINA RESULT:      -7.7      3.037     10.963
REMARK  Name = 
REMARK  6 active torsions:
REMARK  status: ('A' for Active; 'I' for Inactive)
REMARK    1  A    between atoms: C_1  and  C_2
REMARK    2  A    between atoms: C_5  and  C_6
REMARK    3  A    between atoms: C_7  and  N_8
REMARK    4  A    between atoms: C_12  and  C_14
REMARK    5  A    between atoms: C_14  and  C_15
REMARK    6  A    between atoms: C_15  and  C_16
REMARK                            x       y       z     vdW  Elec       q    Type
REMARK                         _______ _______ _______ _____ _____    ______ ____
ROOT
ATOM      1  N   UNL     1       2.519   7.149  18.343  0.00  0.00    +0.000 N 
ATOM      2  C   UNL     1       2.574   8.459  17.656  0.00  0.00    +0.000 C 
ATOM      3  C   UNL     1       1.269   9.226  17.934  0.00  0.00    +0.000 C 
ATOM      4  N   UNL     1       1.023   9.360  19.378  0.00  0.00    +0.000 N 
ATOM      5  C   UNL     1       0.601  10.580  19.874  0.00  0.00    +0.000 C 
ATOM      6  O   UNL     1       0.525  11.580  19.157  0.00  0.00    +0.000 OA
ATOM      7  C   UNL     1       1.091   8.090  20.123  0.00  0.00    +0.000 C 
ATOM      8  C   UNL     1       2.387   7.311  19.809  0.00  0.00    +0.000 C 
ENDROOT
BRANCH   1  15
ATOM      9  C   UNL     1       7.094   5.745  16.998  0.00  0.00    +0.000 C 
ATOM     10  C   UNL     1       5.655   5.407  17.255  0.00  0.00    +0.000 A 
ATOM     11  C   UNL     1       5.176   4.116  17.047  0.00  0.00    +0.000 A 
ATOM     12  C   UNL     1       3.829   3.832  17.260  0.00  0.00    +0.000 A 
ATOM     13  C   UNL     1       2.933   4.833  17.676  0.00  0.00    +0.000 A 
ATOM     14  C   UNL     1       1.475   4.467  17.785  0.00  0.00    +0.000 C 
ATOM     15  C   UNL     1       3.404   6.143  17.932  0.00  0.00    +0.000 A 
ATOM     16  C   UNL     1       4.769   6.401  17.702  0.00  0.00    +0.000 A 
ENDBRANCH   1  15
BRANCH   5  17
ATOM     17  C   UNL     1       0.298  10.674  21.355  0.00  0.00    +0.000 C 
BRANCH  17  18
ATOM     18  C   UNL     1       0.020  12.122  21.752  0.00  0.00    +0.000 C 
BRANCH  18  19
ATOM     19  C   UNL     1      -1.379  12.303  22.229  0.00  0.00    +0.000 A 
ATOM     20  N   UNL     1      -1.815  12.240  23.470  0.00  0.00    +0.000 NA
ATOM     21  C   UNL     1      -3.169  12.457  23.398  0.00  0.00    +0.000 A 
ATOM     22  C   UNL     1      -4.127  12.498  24.418  0.00  0.00    +0.000 A 
ATOM     23  C   UNL     1      -5.465  12.745  24.073  0.00  0.00    +0.000 A 
ATOM     24  C   UNL     1      -5.835  12.938  22.743  0.00  0.00    +0.000 A 
ATOM     25  C   UNL     1      -4.894  12.894  21.708  0.00  0.00    +0.000 A 
ATOM     26  C   UNL     1      -3.570  12.653  22.082  0.00  0.00    +0.000 A 
ATOM     27  N   UNL     1      -2.413  12.546  21.357  0.00  0.00    +0.000 N 
ATOM     28  H   UNL     1      -2.331  12.631  20.355  0.00  0.00    +0.000 HD
ENDBRANCH  18  19
ENDBRANCH  17  18
ENDBRANCH   5  17
TORSDOF 4
ENDMDL
MODEL 7
REMARK VINA RESULT:      -7.7      3.082     10.364
REMARK  Name = 
REMARK  6 active torsions:
REMARK  status: ('A' for Active; 'I' for Inactive)
REMARK    1  A    between atoms: C_1  and  C_2
REMARK    2  A    between atoms: C_5  and  C_6
REMARK    3  A    between atoms: C_7  and  N_8
REMARK    4  A    between atoms: C_12  and  C_14
REMARK    5  A    between atoms: C_14  and  C_15
REMARK    6  A    between atoms: C_15  and  C_16
REMARK                            x       y       z     vdW  Elec       q    Type
REMARK                         _______ _______ _______ _____ _____    ______ ____
ROOT
ATOM      1  N   UNL     1       2.640   7.050  18.570  0.00  0.00    +0.000 N 
ATOM      2  C   UNL     1       1.835   6.942  19.807  0.00  0.00    +0.000 C 
ATOM      3  C   UNL     1       1.701   8.339  20.440  0.00  0.00    +0.000 C 
ATOM      4  N   UNL     1       1.140   9.309  19.488  0.00  0.00    +0.000 N 
ATOM      5  C   UNL     1       0.160  10.181  19.922  0.00  0.00    +0.000 C 
ATOM      6  O   UNL     1      -0.327  10.100  21.052  0.00  0.00    +0.000 OA
ATOM      7  C   UNL     1       1.836   9.352  18.189  0.00  0.00    +0.000 C 
ATOM      8  C   UNL     1       1.996   7.942  17.579  0.00  0.00    +0.000 C 
ENDROOT
BRANCH   1  15
ATOM      9  C   UNL     1       2.426   2.143  17.798  0.00  0.00    +0.000 C 
ATOM     10  C   UNL     1       3.142   3.452  17.642  0.00  0.00    +0.000 A 
ATOM     11  C   UNL     1       4.385   3.517  17.017  0.00  0.00    +0.000 A 
ATOM     12  C   UNL     1       5.047   4.737  16.911  0.00  0.00    +0.000 A 
ATOM     13  C   UNL     1       4.486   5.916  17.436  0.00  0.00    +0.000 A 
ATOM     14  C   UNL     1       5.313   7.175  17.372  0.00  0.00    +0.000 C 
ATOM     15  C   UNL     1       3.207   5.882  18.041  0.00  0.00    +0.000 A 
ATOM     16  C   UNL     1       2.565   4.633  18.137  0.00  0.00    +0.000 A 
ENDBRANCH   1  15
BRANCH   5  17
ATOM     17  C   UNL     1      -0.358  11.209  18.937  0.00  0.00    +0.000 C 
BRANCH  17  18
ATOM     18  C   UNL     1      -1.438  10.598  18.046  0.00  0.00    +0.000 C 
BRANCH  18  19
ATOM     19  C   UNL     1      -2.793  11.111  18.393  0.00  0.00    +0.000 A 
ATOM     20  N   UNL     1      -3.091  12.059  19.256  0.00  0.00    +0.000 NA
ATOM     21  C   UNL     1      -4.461  12.159  19.236  0.00  0.00    +0.000 A 
ATOM     22  C   UNL     1      -5.309  13.007  19.959  0.00  0.00    +0.000 A 
ATOM     23  C   UNL     1      -6.693  12.911  19.748  0.00  0.00    +0.000 A 
ATOM     24  C   UNL     1      -7.214  11.987  18.843  0.00  0.00    +0.000 A 
ATOM     25  C   UNL     1      -6.384  11.126  18.116  0.00  0.00    +0.000 A 
ATOM     26  C   UNL     1      -5.012  11.249  18.343  0.00  0.00    +0.000 A 
ATOM     27  N   UNL     1      -3.929  10.591  17.822  0.00  0.00    +0.000 N 
ATOM     28  H   UNL     1      -3.958   9.851  17.136  0.00  0.00    +0.000 HD
ENDBRANCH  18  19
ENDBRANCH  17  18
ENDBRANCH   5  17
TORSDOF 4
ENDMDL
MODEL 8
REMARK VINA RESULT:      -7.6      2.953     10.859
REMARK  Name = 
REMARK  6 active torsions:
REMARK  status: ('A' for Active; 'I' for Inactive)
REMARK    1  A    between atoms: C_1  and  C_2
REMARK    2  A    between atoms: C_5  and  C_6
REMARK    3  A    between atoms: C_7  and  N_8
REMARK    4  A    between atoms: C_12  and  C_14
REMARK    5  A    between atoms: C_14  and  C_15
REMARK    6  A    between atoms: C_15  and  C_16
REMARK                            x       y       z     vdW  Elec       q    Type
REMARK                         _______ _______ _______ _____ _____    ______ ____
ROOT
ATOM      1  N   UNL     1       2.579   6.859  18.435  0.00  0.00    +0.000 N 
ATOM      2  C   UNL     1       2.622   8.243  17.914  0.00  0.00    +0.000 C 
ATOM      3  C   UNL     1       1.373   9.000  18.398  0.00  0.00    +0.000 C 
ATOM      4  N   UNL     1       1.252   8.956  19.863  0.00  0.00    +0.000 N 
ATOM      5  C   UNL     1       0.916  10.112  20.542  0.00  0.00    +0.000 C 
ATOM      6  O   UNL     1       0.815  11.197  19.964  0.00  0.00    +0.000 OA
ATOM      7  C   UNL     1       1.337   7.600  20.435  0.00  0.00    +0.000 C 
ATOM      8  C   UNL     1       2.575   6.836  19.916  0.00  0.00    +0.000 C 
ENDROOT
BRANCH   1  15
ATOM      9  C   UNL     1       6.872   5.612  16.260  0.00  0.00    +0.000 C 
ATOM     10  C   UNL     1       5.501   5.234  16.739  0.00  0.00    +0.000 A 
ATOM     11  C   UNL     1       5.007   3.947  16.547  0.00  0.00    +0.000 A 
ATOM     12  C   UNL     1       3.719   3.626  16.971  0.00  0.00    +0.000 A 
ATOM     13  C   UNL     1       2.897   4.587  17.586  0.00  0.00    +0.000 A 
ATOM     14  C   UNL     1       1.482   4.189  17.920  0.00  0.00    +0.000 C 
ATOM     15  C   UNL     1       3.391   5.892  17.827  0.00  0.00    +0.000 A 
ATOM     16  C   UNL     1       4.694   6.187  17.382  0.00  0.00    +0.000 A 
ENDBRANCH   1  15
BRANCH   5  17
ATOM     17  C   UNL     1       0.740  10.025  22.043  0.00  0.00    +0.000 C 
BRANCH  17  18
ATOM     18  C   UNL     1      -0.743   9.986  22.407  0.00  0.00    +0.000 C 
BRANCH  18  19
ATOM     19  C   UNL     1      -1.245  11.330  22.808  0.00  0.00    +0.000 A 
ATOM     20  N   UNL     1      -2.390  11.612  23.394  0.00  0.00    +0.000 NA
ATOM     21  C   UNL     1      -2.402  12.977  23.543  0.00  0.00    +0.000 A 
ATOM     22  C   UNL     1      -3.378  13.810  24.105  0.00  0.00    +0.000 A 
ATOM     23  C   UNL     1      -3.141  15.193  24.140  0.00  0.00    +0.000 A 
ATOM     24  C   UNL     1      -1.963  15.728  23.620  0.00  0.00    +0.000 A 
ATOM     25  C   UNL     1      -0.979  14.914  23.048  0.00  0.00    +0.000 A 
ATOM     26  C   UNL     1      -1.240  13.542  23.034  0.00  0.00    +0.000 A 
ATOM     27  N   UNL     1      -0.522  12.473  22.568  0.00  0.00    +0.000 N 
ATOM     28  H   UNL     1       0.384  12.514  22.124  0.00  0.00    +0.000 HD
ENDBRANCH  18  19
ENDBRANCH  17  18
ENDBRANCH   5  17
TORSDOF 4
ENDMDL
MODEL 9
REMARK VINA RESULT:      -7.6      4.228      5.698
REMARK  Name = 
REMARK  6 active torsions:
REMARK  status: ('A' for Active; 'I' for Inactive)
REMARK    1  A    between atoms: C_1  and  C_2
REMARK    2  A    between atoms: C_5  and  C_6
REMARK    3  A    between atoms: C_7  and  N_8
REMARK    4  A    between atoms: C_12  and  C_14
REMARK    5  A    between atoms: C_14  and  C_15
REMARK    6  A    between atoms: C_15  and  C_16
REMARK                            x       y       z     vdW  Elec       q    Type
REMARK                         _______ _______ _______ _____ _____    ______ ____
ROOT
ATOM      1  N   UNL     1      -0.926  11.871  20.629  0.00  0.00    +0.000 N 
ATOM      2  C   UNL     1      -0.097  12.699  19.725  0.00  0.00    +0.000 C 
ATOM      3  C   UNL     1       1.269  12.018  19.534  0.00  0.00    +0.000 C 
ATOM      4  N   UNL     1       1.118  10.638  19.049  0.00  0.00    +0.000 N 
ATOM      5  C   UNL     1       1.942  10.192  18.032  0.00  0.00    +0.000 C 
ATOM      6  O   UNL     1       2.727  10.948  17.455  0.00  0.00    +0.000 OA
ATOM      7  C   UNL     1       0.193   9.814  19.848  0.00  0.00    +0.000 C 
ATOM      8  C   UNL     1      -1.163  10.522  20.064  0.00  0.00    +0.000 C 
ENDROOT
BRANCH   1  15
ATOM      9  C   UNL     1      -4.681  15.127  20.483  0.00  0.00    +0.000 C 
ATOM     10  C   UNL     1      -3.908  14.068  21.212  0.00  0.00    +0.000 A 
ATOM     11  C   UNL     1      -4.254  13.697  22.509  0.00  0.00    +0.000 A 
ATOM     12  C   UNL     1      -3.503  12.735  23.180  0.00  0.00    +0.000 A 
ATOM     13  C   UNL     1      -2.387  12.131  22.573  0.00  0.00    +0.000 A 
ATOM     14  C   UNL     1      -1.568  11.176  23.404  0.00  0.00    +0.000 C 
ATOM     15  C   UNL     1      -2.039  12.463  21.242  0.00  0.00    +0.000 A 
ATOM     16  C   UNL     1      -2.814  13.443  20.591  0.00  0.00    +0.000 A 
ENDBRANCH   1  15
BRANCH   5  17
ATOM     17  C   UNL     1       1.805   8.749  17.593  0.00  0.00    +0.000 C 
BRANCH  17  18
ATOM     18  C   UNL     1       3.018   7.937  18.040  0.00  0.00    +0.000 C 
BRANCH  18  19
ATOM     19  C   UNL     1       2.619   6.617  18.605  0.00  0.00    +0.000 A 
ATOM     20  N   UNL     1       2.139   5.581  17.950  0.00  0.00    +0.000 NA
ATOM     21  C   UNL     1       1.911   4.616  18.901  0.00  0.00    +0.000 A 
ATOM     22  C   UNL     1       1.405   3.318  18.760  0.00  0.00    +0.000 A 
ATOM     23  C   UNL     1       1.272   2.521  19.907  0.00  0.00    +0.000 A 
ATOM     24  C   UNL     1       1.629   3.012  21.163  0.00  0.00    +0.000 A 
ATOM     25  C   UNL     1       2.129   4.309  21.326  0.00  0.00    +0.000 A 
ATOM     26  C   UNL     1       2.257   5.076  20.166  0.00  0.00    +0.000 A 
ATOM     27  N   UNL     1       2.701   6.354  19.950  0.00  0.00    +0.000 N 
ATOM     28  H   UNL     1       3.032   6.994  20.657  0.00  0.00    +0.000 HD
ENDBRANCH  18  19
ENDBRANCH  17  18
ENDBRANCH   5  17
TORSDOF 4
ENDMDL
