MODEL 1
REMARK VINA RESULT:      -7.1      0.000      0.000
REMARK  Name = 
REMARK  14 active torsions:
REMARK  status: ('A' for Active; 'I' for Inactive)
REMARK    1  A    between atoms: C_1  and  N_2
REMARK    2  A    between atoms: N_2  and  C_3
REMARK    3  A    between atoms: N_2  and  C_12
REMARK    4  A    between atoms: C_3  and  C_4
REMARK    5  A    between atoms: C_4  and  C_5
REMARK    6  A    between atoms: C_5  and  C_6
REMARK    7  A    between atoms: C_12  and  C_13
REMARK    8  A    between atoms: C_13  and  O_14
REMARK    9  A    between atoms: C_13  and  C_15
REMARK   10  A    between atoms: C_15  and  O_16
REMARK   11  A    between atoms: O_16  and  C_17
REMARK   12  A    between atoms: C_20  and  N_21
REMARK   13  A    between atoms: N_21  and  S_22
REMARK   14  A    between atoms: S_22  and  C_23
REMARK                            x       y       z     vdW  Elec       q    Type
REMARK                         _______ _______ _______ _____ _____    ______ ____
ROOT
ATOM      1  C   UNL     1       1.422   4.028  19.672  0.00  0.00    +0.000 C 
ENDROOT
BRANCH   1   2
ATOM      2  O   UNL     1       0.080   3.649  20.003  0.00  0.00    +0.000 OA
ATOM      3  H   UNL     1      -0.515   4.195  19.462  0.00  0.00    +0.000 HD
ENDBRANCH   1   2
BRANCH   1   4
ATOM      4  C   UNL     1       2.348   2.790  19.669  0.00  0.00    +0.000 C 
BRANCH   4   6
ATOM      5  C   UNL     1       4.688   2.129  19.988  0.00  0.00    +0.000 C 
ATOM      6  N   UNL     1       3.761   3.012  19.264  0.00  0.00    +0.000 NA
BRANCH   6   7
ATOM      7  C   UNL     1       3.944   2.771  17.817  0.00  0.00    +0.000 C 
BRANCH   7   8
ATOM      8  C   UNL     1       4.072   4.037  16.963  0.00  0.00    +0.000 C 
BRANCH   8   9
ATOM      9  C   UNL     1       5.459   4.175  16.330  0.00  0.00    +0.000 C 
BRANCH   9  10
ATOM     10  C   UNL     1       6.304   5.162  17.094  0.00  0.00    +0.000 A 
ATOM     11  C   UNL     1       6.359   6.505  16.696  0.00  0.00    +0.000 A 
ATOM     12  C   UNL     1       7.170   7.409  17.382  0.00  0.00    +0.000 A 
ATOM     13  C   UNL     1       7.936   6.978  18.464  0.00  0.00    +0.000 A 
ATOM     14  C   UNL     1       7.888   5.645  18.864  0.00  0.00    +0.000 A 
ATOM     15  C   UNL     1       7.077   4.739  18.181  0.00  0.00    +0.000 A 
ENDBRANCH   9  10
ENDBRANCH   8   9
ENDBRANCH   7   8
ENDBRANCH   6   7
ENDBRANCH   4   6
ENDBRANCH   1   4
BRANCH   1  16
ATOM     16  C   UNL     1       1.967   5.125  20.600  0.00  0.00    +0.000 C 
BRANCH  16  17
ATOM     17  O   UNL     1       2.895   5.931  19.868  0.00  0.00    +0.000 OA
BRANCH  17  18
ATOM     18  C   UNL     1       2.396   7.101  19.373  0.00  0.00    +0.000 A 
ATOM     19  C   UNL     1       1.744   7.904  20.321  0.00  0.00    +0.000 A 
ATOM     20  C   UNL     1       1.214   9.139  19.953  0.00  0.00    +0.000 A 
ATOM     21  C   UNL     1       1.334   9.581  18.638  0.00  0.00    +0.000 A 
ATOM     22  C   UNL     1       1.981   8.796  17.689  0.00  0.00    +0.000 A 
ATOM     23  C   UNL     1       2.513   7.556  18.060  0.00  0.00    +0.000 A 
BRANCH  21  24
ATOM     24  N   UNL     1       0.812  10.862  18.309  0.00  0.00    +0.000 N 
ATOM     25  H   UNL     1       1.375  11.670  18.581  0.00  0.00    +0.000 HD
BRANCH  24  26
ATOM     26  S   UNL     1      -0.831  11.139  18.576  0.00  0.00    +0.000 S 
ATOM     27  C   UNL     1      -1.549   9.974  17.440  0.00  0.00    +0.000 C 
ATOM     28  O   UNL     1      -1.197  10.776  19.925  0.00  0.00    +0.000 OA
ATOM     29  O   UNL     1      -1.087  12.467  18.058  0.00  0.00    +0.000 OA
ENDBRANCH  24  26
ENDBRANCH  21  24
ENDBRANCH  17  18
ENDBRANCH  16  17
ENDBRANCH   1  16
TORSDOF 12
ENDMDL
MODEL 2
REMARK VINA RESULT:      -7.1      1.501      1.785
REMARK  Name = 
REMARK  14 active torsions:
REMARK  status: ('A' for Active; 'I' for Inactive)
REMARK    1  A    between atoms: C_1  and  N_2
REMARK    2  A    between atoms: N_2  and  C_3
REMARK    3  A    between atoms: N_2  and  C_12
REMARK    4  A    between atoms: C_3  and  C_4
REMARK    5  A    between atoms: C_4  and  C_5
REMARK    6  A    between atoms: C_5  and  C_6
REMARK    7  A    between atoms: C_12  and  C_13
REMARK    8  A    between atoms: C_13  and  O_14
REMARK    9  A    between atoms: C_13  and  C_15
REMARK   10  A    between atoms: C_15  and  O_16
REMARK   11  A    between atoms: O_16  and  C_17
REMARK   12  A    between atoms: C_20  and  N_21
REMARK   13  A    between atoms: N_21  and  S_22
REMARK   14  A    between atoms: S_22  and  C_23
REMARK                            x       y       z     vdW  Elec       q    Type
REMARK                         _______ _______ _______ _____ _____    ______ ____
ROOT
ATOM      1  C   UNL     1       1.773   3.988  19.863  0.00  0.00    +0.000 C 
ENDROOT
BRANCH   1   2
ATOM      2  O   UNL     1       0.838   3.026  20.367  0.00  0.00    +0.000 OA
ATOM      3  H   UNL     1       0.138   3.518  20.828  0.00  0.00    +0.000 HD
ENDBRANCH   1   2
BRANCH   1   4
ATOM      4  C   UNL     1       3.216   3.441  19.958  0.00  0.00    +0.000 C 
BRANCH   4   6
ATOM      5  C   UNL     1       3.411   1.367  18.665  0.00  0.00    +0.000 C 
ATOM      6  N   UNL     1       3.767   2.792  18.740  0.00  0.00    +0.000 NA
BRANCH   6   7
ATOM      7  C   UNL     1       3.268   3.448  17.514  0.00  0.00    +0.000 C 
BRANCH   7   8
ATOM      8  C   UNL     1       4.335   4.176  16.690  0.00  0.00    +0.000 C 
BRANCH   8   9
ATOM      9  C   UNL     1       4.365   5.680  16.974  0.00  0.00    +0.000 C 
BRANCH   9  10
ATOM     10  C   UNL     1       5.677   6.085  17.597  0.00  0.00    +0.000 A 
ATOM     11  C   UNL     1       6.410   7.158  17.070  0.00  0.00    +0.000 A 
ATOM     12  C   UNL     1       7.641   7.507  17.625  0.00  0.00    +0.000 A 
ATOM     13  C   UNL     1       8.150   6.787  18.703  0.00  0.00    +0.000 A 
ATOM     14  C   UNL     1       7.429   5.718  19.231  0.00  0.00    +0.000 A 
ATOM     15  C   UNL     1       6.197   5.367  18.679  0.00  0.00    +0.000 A 
ENDBRANCH   9  10
ENDBRANCH   8   9
ENDBRANCH   7   8
ENDBRANCH   6   7
ENDBRANCH   4   6
ENDBRANCH   1   4
BRANCH   1  16
ATOM     16  C   UNL     1       1.649   5.350  20.564  0.00  0.00    +0.000 C 
BRANCH  16  17
ATOM     17  O   UNL     1       2.557   6.270  19.951  0.00  0.00    +0.000 OA
BRANCH  17  18
ATOM     18  C   UNL     1       2.053   7.512  19.695  0.00  0.00    +0.000 A 
ATOM     19  C   UNL     1       2.353   8.011  18.418  0.00  0.00    +0.000 A 
ATOM     20  C   UNL     1       1.874   9.256  18.018  0.00  0.00    +0.000 A 
ATOM     21  C   UNL     1       1.089  10.010  18.887  0.00  0.00    +0.000 A 
ATOM     22  C   UNL     1       0.781   9.526  20.154  0.00  0.00    +0.000 A 
ATOM     23  C   UNL     1       1.263   8.274  20.556  0.00  0.00    +0.000 A 
BRANCH  21  24
ATOM     24  N   UNL     1       0.590  11.260  18.429  0.00  0.00    +0.000 N 
ATOM     25  H   UNL     1       0.583  11.409  17.419  0.00  0.00    +0.000 HD
BRANCH  24  26
ATOM     26  S   UNL     1       1.066  12.652  19.254  0.00  0.00    +0.000 S 
ATOM     27  C   UNL     1      -0.511  13.270  19.797  0.00  0.00    +0.000 C 
ATOM     28  O   UNL     1       1.867  12.313  20.407  0.00  0.00    +0.000 OA
ATOM     29  O   UNL     1       1.560  13.554  18.234  0.00  0.00    +0.000 OA
ENDBRANCH  24  26
ENDBRANCH  21  24
ENDBRANCH  17  18
ENDBRANCH  16  17
ENDBRANCH   1  16
TORSDOF 12
ENDMDL
MODEL 3
REMARK VINA RESULT:      -7.0      2.317      4.799
REMARK  Name = 
REMARK  14 active torsions:
REMARK  status: ('A' for Active; 'I' for Inactive)
REMARK    1  A    between atoms: C_1  and  N_2
REMARK    2  A    between atoms: N_2  and  C_3
REMARK    3  A    between atoms: N_2  and  C_12
REMARK    4  A    between atoms: C_3  and  C_4
REMARK    5  A    between atoms: C_4  and  C_5
REMARK    6  A    between atoms: C_5  and  C_6
REMARK    7  A    between atoms: C_12  and  C_13
REMARK    8  A    between atoms: C_13  and  O_14
REMARK    9  A    between atoms: C_13  and  C_15
REMARK   10  A    between atoms: C_15  and  O_16
REMARK   11  A    between atoms: O_16  and  C_17
REMARK   12  A    between atoms: C_20  and  N_21
REMARK   13  A    between atoms: N_21  and  S_22
REMARK   14  A    between atoms: S_22  and  C_23
REMARK                            x       y       z     vdW  Elec       q    Type
REMARK                         _______ _______ _______ _____ _____    ______ ____
ROOT
ATOM      1  C   UNL     1       6.422   6.656  17.490  0.00  0.00    +0.000 C 
ENDROOT
BRANCH   1   2
ATOM      2  O   UNL     1       7.456   7.638  17.633  0.00  0.00    +0.000 OA
ATOM      3  H   UNL     1       7.230   8.381  17.048  0.00  0.00    +0.000 HD
ENDBRANCH   1   2
BRANCH   1   4
ATOM      4  C   UNL     1       6.893   5.505  16.571  0.00  0.00    +0.000 C 
BRANCH   4   6
ATOM      5  C   UNL     1       6.369   4.624  14.344  0.00  0.00    +0.000 C 
ATOM      6  N   UNL     1       5.863   4.881  15.700  0.00  0.00    +0.000 NA
BRANCH   6   7
ATOM      7  C   UNL     1       5.400   3.594  16.261  0.00  0.00    +0.000 C 
BRANCH   7   8
ATOM      8  C   UNL     1       4.060   3.657  17.002  0.00  0.00    +0.000 C 
BRANCH   8   9
ATOM      9  C   UNL     1       3.755   2.366  17.764  0.00  0.00    +0.000 C 
BRANCH   9  10
ATOM     10  C   UNL     1       2.887   2.642  18.966  0.00  0.00    +0.000 A 
ATOM     11  C   UNL     1       1.542   3.001  18.803  0.00  0.00    +0.000 A 
ATOM     12  C   UNL     1       0.752   3.292  19.914  0.00  0.00    +0.000 A 
ATOM     13  C   UNL     1       1.298   3.232  21.194  0.00  0.00    +0.000 A 
ATOM     14  C   UNL     1       2.635   2.878  21.366  0.00  0.00    +0.000 A 
ATOM     15  C   UNL     1       3.428   2.586  20.256  0.00  0.00    +0.000 A 
ENDBRANCH   9  10
ENDBRANCH   8   9
ENDBRANCH   7   8
ENDBRANCH   6   7
ENDBRANCH   4   6
ENDBRANCH   1   4
BRANCH   1  16
ATOM     16  C   UNL     1       5.102   7.261  16.988  0.00  0.00    +0.000 C 
BRANCH  16  17
ATOM     17  O   UNL     1       4.014   6.487  17.500  0.00  0.00    +0.000 OA
BRANCH  17  18
ATOM     18  C   UNL     1       3.074   7.184  18.202  0.00  0.00    +0.000 A 
ATOM     19  C   UNL     1       2.674   6.577  19.403  0.00  0.00    +0.000 A 
ATOM     20  C   UNL     1       1.742   7.198  20.231  0.00  0.00    +0.000 A 
ATOM     21  C   UNL     1       1.204   8.431  19.868  0.00  0.00    +0.000 A 
ATOM     22  C   UNL     1       1.595   9.046  18.682  0.00  0.00    +0.000 A 
ATOM     23  C   UNL     1       2.532   8.420  17.851  0.00  0.00    +0.000 A 
BRANCH  21  24
ATOM     24  N   UNL     1       0.283   9.050  20.756  0.00  0.00    +0.000 N 
ATOM     25  H   UNL     1      -0.571   9.427  20.341  0.00  0.00    +0.000 HD
BRANCH  24  26
ATOM     26  S   UNL     1       0.898  10.080  21.942  0.00  0.00    +0.000 S 
ATOM     27  C   UNL     1      -0.561  10.365  22.918  0.00  0.00    +0.000 C 
ATOM     28  O   UNL     1       1.884   9.398  22.747  0.00  0.00    +0.000 OA
ATOM     29  O   UNL     1       1.211  11.316  21.255  0.00  0.00    +0.000 OA
ENDBRANCH  24  26
ENDBRANCH  21  24
ENDBRANCH  17  18
ENDBRANCH  16  17
ENDBRANCH   1  16
TORSDOF 12
ENDMDL
MODEL 4
REMARK VINA RESULT:      -6.9      2.316      4.626
REMARK  Name = 
REMARK  14 active torsions:
REMARK  status: ('A' for Active; 'I' for Inactive)
REMARK    1  A    between atoms: C_1  and  N_2
REMARK    2  A    between atoms: N_2  and  C_3
REMARK    3  A    between atoms: N_2  and  C_12
REMARK    4  A    between atoms: C_3  and  C_4
REMARK    5  A    between atoms: C_4  and  C_5
REMARK    6  A    between atoms: C_5  and  C_6
REMARK    7  A    between atoms: C_12  and  C_13
REMARK    8  A    between atoms: C_13  and  O_14
REMARK    9  A    between atoms: C_13  and  C_15
REMARK   10  A    between atoms: C_15  and  O_16
REMARK   11  A    between atoms: O_16  and  C_17
REMARK   12  A    between atoms: C_20  and  N_21
REMARK   13  A    between atoms: N_21  and  S_22
REMARK   14  A    between atoms: S_22  and  C_23
REMARK                            x       y       z     vdW  Elec       q    Type
REMARK                         _______ _______ _______ _____ _____    ______ ____
ROOT
ATOM      1  C   UNL     1       5.158   6.525  17.186  0.00  0.00    +0.000 C 
ENDROOT
BRANCH   1   2
ATOM      2  O   UNL     1       6.375   7.149  17.613  0.00  0.00    +0.000 OA
ATOM      3  H   UNL     1       6.131   7.923  18.148  0.00  0.00    +0.000 HD
ENDBRANCH   1   2
BRANCH   1   4
ATOM      4  C   UNL     1       5.265   6.087  15.706  0.00  0.00    +0.000 C 
BRANCH   4   6
ATOM      5  C   UNL     1       6.483   4.141  14.848  0.00  0.00    +0.000 C 
ATOM      6  N   UNL     1       5.226   4.626  15.436  0.00  0.00    +0.000 NA
BRANCH   6   7
ATOM      7  C   UNL     1       4.982   3.861  16.677  0.00  0.00    +0.000 C 
BRANCH   7   8
ATOM      8  C   UNL     1       3.593   3.223  16.781  0.00  0.00    +0.000 C 
BRANCH   8   9
ATOM      9  C   UNL     1       3.523   2.154  17.874  0.00  0.00    +0.000 C 
BRANCH   9  10
ATOM     10  C   UNL     1       2.803   2.675  19.092  0.00  0.00    +0.000 A 
ATOM     11  C   UNL     1       3.239   2.324  20.377  0.00  0.00    +0.000 A 
ATOM     12  C   UNL     1       2.549   2.777  21.501  0.00  0.00    +0.000 A 
ATOM     13  C   UNL     1       1.418   3.576  21.352  0.00  0.00    +0.000 A 
ATOM     14  C   UNL     1       0.977   3.928  20.077  0.00  0.00    +0.000 A 
ATOM     15  C   UNL     1       1.665   3.478  18.951  0.00  0.00    +0.000 A 
ENDBRANCH   9  10
ENDBRANCH   8   9
ENDBRANCH   7   8
ENDBRANCH   6   7
ENDBRANCH   4   6
ENDBRANCH   1   4
BRANCH   1  16
ATOM     16  C   UNL     1       3.929   7.420  17.411  0.00  0.00    +0.000 C 
BRANCH  16  17
ATOM     17  O   UNL     1       3.134   6.860  18.460  0.00  0.00    +0.000 OA
BRANCH  17  18
ATOM     18  C   UNL     1       2.269   7.722  19.068  0.00  0.00    +0.000 A 
ATOM     19  C   UNL     1       1.804   8.760  18.246  0.00  0.00    +0.000 A 
ATOM     20  C   UNL     1       0.893   9.693  18.735  0.00  0.00    +0.000 A 
ATOM     21  C   UNL     1       0.437   9.595  20.047  0.00  0.00    +0.000 A 
ATOM     22  C   UNL     1       0.886   8.569  20.872  0.00  0.00    +0.000 A 
ATOM     23  C   UNL     1       1.802   7.632  20.380  0.00  0.00    +0.000 A 
BRANCH  21  24
ATOM     24  N   UNL     1      -0.520  10.544  20.499  0.00  0.00    +0.000 N 
ATOM     25  H   UNL     1      -0.963  11.123  19.784  0.00  0.00    +0.000 HD
BRANCH  24  26
ATOM     26  S   UNL     1      -0.152  11.443  21.878  0.00  0.00    +0.000 S 
ATOM     27  C   UNL     1      -1.551  12.540  21.939  0.00  0.00    +0.000 C 
ATOM     28  O   UNL     1      -0.157  10.601  23.051  0.00  0.00    +0.000 OA
ATOM     29  O   UNL     1       1.008  12.235  21.525  0.00  0.00    +0.000 OA
ENDBRANCH  24  26
ENDBRANCH  21  24
ENDBRANCH  17  18
ENDBRANCH  16  17
ENDBRANCH   1  16
TORSDOF 12
ENDMDL
MODEL 5
REMARK VINA RESULT:      -6.7      1.314      1.767
REMARK  Name = 
REMARK  14 active torsions:
REMARK  status: ('A' for Active; 'I' for Inactive)
REMARK    1  A    between atoms: C_1  and  N_2
REMARK    2  A    between atoms: N_2  and  C_3
REMARK    3  A    between atoms: N_2  and  C_12
REMARK    4  A    between atoms: C_3  and  C_4
REMARK    5  A    between atoms: C_4  and  C_5
REMARK    6  A    between atoms: C_5  and  C_6
REMARK    7  A    between atoms: C_12  and  C_13
REMARK    8  A    between atoms: C_13  and  O_14
REMARK    9  A    between atoms: C_13  and  C_15
REMARK   10  A    between atoms: C_15  and  O_16
REMARK   11  A    between atoms: O_16  and  C_17
REMARK   12  A    between atoms: C_20  and  N_21
REMARK   13  A    between atoms: N_21  and  S_22
REMARK   14  A    between atoms: S_22  and  C_23
REMARK                            x       y       z     vdW  Elec       q    Type
REMARK                         _______ _______ _______ _____ _____    ______ ____
ROOT
ATOM      1  C   UNL     1       1.557   4.064  20.078  0.00  0.00    +0.000 C 
ENDROOT
BRANCH   1   2
ATOM      2  O   UNL     1       0.717   3.194  20.848  0.00  0.00    +0.000 OA
ATOM      3  H   UNL     1       1.202   2.360  20.971  0.00  0.00    +0.000 HD
ENDBRANCH   1   2
BRANCH   1   4
ATOM      4  C   UNL     1       2.785   3.294  19.541  0.00  0.00    +0.000 C 
BRANCH   4   6
ATOM      5  C   UNL     1       1.902   3.972  17.357  0.00  0.00    +0.000 C 
ATOM      6  N   UNL     1       3.031   3.364  18.077  0.00  0.00    +0.000 NA
BRANCH   6   7
ATOM      7  C   UNL     1       4.240   4.158  17.776  0.00  0.00    +0.000 C 
BRANCH   7   8
ATOM      8  C   UNL     1       4.704   4.102  16.317  0.00  0.00    +0.000 C 
BRANCH   8   9
ATOM      9  C   UNL     1       6.229   4.079  16.191  0.00  0.00    +0.000 C 
BRANCH   9  10
ATOM     10  C   UNL     1       6.858   5.139  17.060  0.00  0.00    +0.000 A 
ATOM     11  C   UNL     1       6.861   6.480  16.652  0.00  0.00    +0.000 A 
ATOM     12  C   UNL     1       7.475   7.453  17.440  0.00  0.00    +0.000 A 
ATOM     13  C   UNL     1       8.096   7.094  18.634  0.00  0.00    +0.000 A 
ATOM     14  C   UNL     1       8.100   5.763  19.046  0.00  0.00    +0.000 A 
ATOM     15  C   UNL     1       7.485   4.788  18.261  0.00  0.00    +0.000 A 
ENDBRANCH   9  10
ENDBRANCH   8   9
ENDBRANCH   7   8
ENDBRANCH   6   7
ENDBRANCH   4   6
ENDBRANCH   1   4
BRANCH   1  16
ATOM     16  C   UNL     1       1.986   5.312  20.865  0.00  0.00    +0.000 C 
BRANCH  16  17
ATOM     17  O   UNL     1       2.754   6.160  20.005  0.00  0.00    +0.000 OA
BRANCH  17  18
ATOM     18  C   UNL     1       2.155   7.333  19.647  0.00  0.00    +0.000 A 
ATOM     19  C   UNL     1       1.414   7.945  20.669  0.00  0.00    +0.000 A 
ATOM     20  C   UNL     1       0.776   9.163  20.445  0.00  0.00    +0.000 A 
ATOM     21  C   UNL     1       0.877   9.780  19.200  0.00  0.00    +0.000 A 
ATOM     22  C   UNL     1       1.612   9.186  18.179  0.00  0.00    +0.000 A 
ATOM     23  C   UNL     1       2.252   7.962  18.405  0.00  0.00    +0.000 A 
BRANCH  21  24
ATOM     24  N   UNL     1       0.242  11.039  19.021  0.00  0.00    +0.000 N 
ATOM     25  H   UNL     1      -0.166  11.220  18.103  0.00  0.00    +0.000 HD
BRANCH  24  26
ATOM     26  S   UNL     1       1.016  12.409  19.631  0.00  0.00    +0.000 S 
ATOM     27  C   UNL     1       2.359  12.570  18.476  0.00  0.00    +0.000 C 
ATOM     28  O   UNL     1       0.159  13.567  19.528  0.00  0.00    +0.000 OA
ATOM     29  O   UNL     1       1.579  12.000  20.901  0.00  0.00    +0.000 OA
ENDBRANCH  24  26
ENDBRANCH  21  24
ENDBRANCH  17  18
ENDBRANCH  16  17
ENDBRANCH   1  16
TORSDOF 12
ENDMDL
MODEL 6
REMARK VINA RESULT:      -6.7      5.513      7.962
REMARK  Name = 
REMARK  14 active torsions:
REMARK  status: ('A' for Active; 'I' for Inactive)
REMARK    1  A    between atoms: C_1  and  N_2
REMARK    2  A    between atoms: N_2  and  C_3
REMARK    3  A    between atoms: N_2  and  C_12
REMARK    4  A    between atoms: C_3  and  C_4
REMARK    5  A    between atoms: C_4  and  C_5
REMARK    6  A    between atoms: C_5  and  C_6
REMARK    7  A    between atoms: C_12  and  C_13
REMARK    8  A    between atoms: C_13  and  O_14
REMARK    9  A    between atoms: C_13  and  C_15
REMARK   10  A    between atoms: C_15  and  O_16
REMARK   11  A    between atoms: O_16  and  C_17
REMARK   12  A    between atoms: C_20  and  N_21
REMARK   13  A    between atoms: N_21  and  S_22
REMARK   14  A    between atoms: S_22  and  C_23
REMARK                            x       y       z     vdW  Elec       q    Type
REMARK                         _______ _______ _______ _____ _____    ______ ____
ROOT
ATOM      1  C   UNL     1       7.531   7.176  18.176  0.00  0.00    +0.000 C 
ENDROOT
BRANCH   1   2
ATOM      2  O   UNL     1       8.409   6.595  19.148  0.00  0.00    +0.000 OA
ATOM      3  H   UNL     1       8.839   7.326  19.623  0.00  0.00    +0.000 HD
ENDBRANCH   1   2
BRANCH   1   4
ATOM      4  C   UNL     1       7.281   6.188  17.013  0.00  0.00    +0.000 C 
BRANCH   4   6
ATOM      5  C   UNL     1       5.949   4.131  16.957  0.00  0.00    +0.000 C 
ATOM      6  N   UNL     1       5.920   5.601  16.916  0.00  0.00    +0.000 NA
BRANCH   6   7
ATOM      7  C   UNL     1       5.057   6.068  18.021  0.00  0.00    +0.000 C 
BRANCH   7   8
ATOM      8  C   UNL     1       3.824   6.866  17.585  0.00  0.00    +0.000 C 
BRANCH   8   9
ATOM      9  C   UNL     1       2.779   6.979  18.699  0.00  0.00    +0.000 C 
BRANCH   9  10
ATOM     10  C   UNL     1       2.171   5.633  19.004  0.00  0.00    +0.000 A 
ATOM     11  C   UNL     1       1.964   5.234  20.332  0.00  0.00    +0.000 A 
ATOM     12  C   UNL     1       1.436   3.975  20.614  0.00  0.00    +0.000 A 
ATOM     13  C   UNL     1       1.117   3.103  19.575  0.00  0.00    +0.000 A 
ATOM     14  C   UNL     1       1.322   3.491  18.252  0.00  0.00    +0.000 A 
ATOM     15  C   UNL     1       1.849   4.751  17.967  0.00  0.00    +0.000 A 
ENDBRANCH   9  10
ENDBRANCH   8   9
ENDBRANCH   7   8
ENDBRANCH   6   7
ENDBRANCH   4   6
ENDBRANCH   1   4
BRANCH   1  16
ATOM     16  C   UNL     1       8.046   8.527  17.654  0.00  0.00    +0.000 C 
BRANCH  16  17
ATOM     17  O   UNL     1       8.685   9.225  18.727  0.00  0.00    +0.000 OA
BRANCH  17  18
ATOM     18  C   UNL     1       9.108  10.490  18.437  0.00  0.00    +0.000 A 
ATOM     19  C   UNL     1       8.167  11.279  17.759  0.00  0.00    +0.000 A 
ATOM     20  C   UNL     1       8.461  12.600  17.429  0.00  0.00    +0.000 A 
ATOM     21  C   UNL     1       9.695  13.143  17.778  0.00  0.00    +0.000 A 
ATOM     22  C   UNL     1      10.636  12.373  18.454  0.00  0.00    +0.000 A 
ATOM     23  C   UNL     1      10.339  11.046  18.785  0.00  0.00    +0.000 A 
BRANCH  21  24
ATOM     24  N   UNL     1       9.944  14.505  17.456  0.00  0.00    +0.000 N 
ATOM     25  H   UNL     1      10.824  14.711  16.980  0.00  0.00    +0.000 HD
BRANCH  24  26
ATOM     26  S   UNL     1       9.589  15.671  18.622  0.00  0.00    +0.000 S 
ATOM     27  C   UNL     1      11.218  16.022  19.244  0.00  0.00    +0.000 C 
ATOM     28  O   UNL     1       9.048  16.860  18.006  0.00  0.00    +0.000 OA
ATOM     29  O   UNL     1       8.867  14.968  19.663  0.00  0.00    +0.000 OA
ENDBRANCH  24  26
ENDBRANCH  21  24
ENDBRANCH  17  18
ENDBRANCH  16  17
ENDBRANCH   1  16
TORSDOF 12
ENDMDL
MODEL 7
REMARK VINA RESULT:      -6.7      5.033      7.500
REMARK  Name = 
REMARK  14 active torsions:
REMARK  status: ('A' for Active; 'I' for Inactive)
REMARK    1  A    between atoms: C_1  and  N_2
REMARK    2  A    between atoms: N_2  and  C_3
REMARK    3  A    between atoms: N_2  and  C_12
REMARK    4  A    between atoms: C_3  and  C_4
REMARK    5  A    between atoms: C_4  and  C_5
REMARK    6  A    between atoms: C_5  and  C_6
REMARK    7  A    between atoms: C_12  and  C_13
REMARK    8  A    between atoms: C_13  and  O_14
REMARK    9  A    between atoms: C_13  and  C_15
REMARK   10  A    between atoms: C_15  and  O_16
REMARK   11  A    between atoms: O_16  and  C_17
REMARK   12  A    between atoms: C_20  and  N_21
REMARK   13  A    between atoms: N_21  and  S_22
REMARK   14  A    between atoms: S_22  and  C_23
REMARK                            x       y       z     vdW  Elec       q    Type
REMARK                         _______ _______ _______ _____ _____    ______ ____
ROOT
ATOM      1  C   UNL     1       7.100   6.427  17.282  0.00  0.00    +0.000 C 
ENDROOT
BRANCH   1   2
ATOM      2  O   UNL     1       7.590   6.280  15.943  0.00  0.00    +0.000 OA
ATOM      3  H   UNL     1       8.523   6.014  16.005  0.00  0.00    +0.000 HD
ENDBRANCH   1   2
BRANCH   1   4
ATOM      4  C   UNL     1       5.581   6.717  17.273  0.00  0.00    +0.000 C 
BRANCH   4   6
ATOM      5  C   UNL     1       3.312   6.157  18.013  0.00  0.00    +0.000 C 
ATOM      6  N   UNL     1       4.750   5.962  18.247  0.00  0.00    +0.000 NA
BRANCH   6   7
ATOM      7  C   UNL     1       5.028   4.512  18.173  0.00  0.00    +0.000 C 
BRANCH   7   8
ATOM      8  C   UNL     1       4.118   3.727  17.223  0.00  0.00    +0.000 C 
BRANCH   8   9
ATOM      9  C   UNL     1       3.670   2.390  17.817  0.00  0.00    +0.000 C 
BRANCH   9  10
ATOM     10  C   UNL     1       2.812   2.603  19.039  0.00  0.00    +0.000 A 
ATOM     11  C   UNL     1       1.471   2.986  18.905  0.00  0.00    +0.000 A 
ATOM     12  C   UNL     1       0.690   3.219  20.036  0.00  0.00    +0.000 A 
ATOM     13  C   UNL     1       1.242   3.078  21.307  0.00  0.00    +0.000 A 
ATOM     14  C   UNL     1       2.576   2.700  21.449  0.00  0.00    +0.000 A 
ATOM     15  C   UNL     1       3.359   2.465  20.320  0.00  0.00    +0.000 A 
ENDBRANCH   9  10
ENDBRANCH   8   9
ENDBRANCH   7   8
ENDBRANCH   6   7
ENDBRANCH   4   6
ENDBRANCH   1   4
BRANCH   1  16
ATOM     16  C   UNL     1       7.864   7.501  18.072  0.00  0.00    +0.000 C 
BRANCH  16  17
ATOM     17  O   UNL     1       7.927   8.696  17.287  0.00  0.00    +0.000 OA
BRANCH  17  18
ATOM     18  C   UNL     1       8.388   9.804  17.937  0.00  0.00    +0.000 A 
ATOM     19  C   UNL     1       9.056   9.538  19.142  0.00  0.00    +0.000 A 
ATOM     20  C   UNL     1       9.601  10.578  19.891  0.00  0.00    +0.000 A 
ATOM     21  C   UNL     1       9.486  11.891  19.440  0.00  0.00    +0.000 A 
ATOM     22  C   UNL     1       8.830  12.169  18.245  0.00  0.00    +0.000 A 
ATOM     23  C   UNL     1       8.282  11.122  17.494  0.00  0.00    +0.000 A 
BRANCH  21  24
ATOM     24  N   UNL     1      10.087  12.922  20.213  0.00  0.00    +0.000 N 
ATOM     25  H   UNL     1      11.054  12.773  20.503  0.00  0.00    +0.000 HD
BRANCH  24  26
ATOM     26  S   UNL     1       9.174  13.617  21.450  0.00  0.00    +0.000 S 
ATOM     27  C   UNL     1      10.207  14.997  21.887  0.00  0.00    +0.000 C 
ATOM     28  O   UNL     1       7.915  14.109  20.939  0.00  0.00    +0.000 OA
ATOM     29  O   UNL     1       9.223  12.671  22.545  0.00  0.00    +0.000 OA
ENDBRANCH  24  26
ENDBRANCH  21  24
ENDBRANCH  17  18
ENDBRANCH  16  17
ENDBRANCH   1  16
TORSDOF 12
ENDMDL
MODEL 8
REMARK VINA RESULT:      -6.7      1.302      2.182
REMARK  Name = 
REMARK  14 active torsions:
REMARK  status: ('A' for Active; 'I' for Inactive)
REMARK    1  A    between atoms: C_1  and  N_2
REMARK    2  A    between atoms: N_2  and  C_3
REMARK    3  A    between atoms: N_2  and  C_12
REMARK    4  A    between atoms: C_3  and  C_4
REMARK    5  A    between atoms: C_4  and  C_5
REMARK    6  A    between atoms: C_5  and  C_6
REMARK    7  A    between atoms: C_12  and  C_13
REMARK    8  A    between atoms: C_13  and  O_14
REMARK    9  A    between atoms: C_13  and  C_15
REMARK   10  A    between atoms: C_15  and  O_16
REMARK   11  A    between atoms: O_16  and  C_17
REMARK   12  A    between atoms: C_20  and  N_21
REMARK   13  A    between atoms: N_21  and  S_22
REMARK   14  A    between atoms: S_22  and  C_23
REMARK                            x       y       z     vdW  Elec       q    Type
REMARK                         _______ _______ _______ _____ _____    ______ ____
ROOT
ATOM      1  C   UNL     1       1.768   3.808  20.091  0.00  0.00    +0.000 C 
ENDROOT
BRANCH   1   2
ATOM      2  O   UNL     1       0.558   3.134  20.459  0.00  0.00    +0.000 OA
ATOM      3  H   UNL     1       0.072   3.721  21.063  0.00  0.00    +0.000 HD
ENDBRANCH   1   2
BRANCH   1   4
ATOM      4  C   UNL     1       2.997   2.929  20.416  0.00  0.00    +0.000 C 
BRANCH   4   6
ATOM      5  C   UNL     1       2.996   1.822  18.228  0.00  0.00    +0.000 C 
ATOM      6  N   UNL     1       3.815   2.470  19.263  0.00  0.00    +0.000 NA
BRANCH   6   7
ATOM      7  C   UNL     1       4.529   3.600  18.632  0.00  0.00    +0.000 C 
BRANCH   7   8
ATOM      8  C   UNL     1       5.528   4.323  19.542  0.00  0.00    +0.000 C 
BRANCH   8   9
ATOM      9  C   UNL     1       6.129   5.564  18.878  0.00  0.00    +0.000 C 
BRANCH   9  10
ATOM     10  C   UNL     1       6.163   5.410  17.379  0.00  0.00    +0.000 A 
ATOM     11  C   UNL     1       5.223   6.071  16.576  0.00  0.00    +0.000 A 
ATOM     12  C   UNL     1       5.234   5.897  15.192  0.00  0.00    +0.000 A 
ATOM     13  C   UNL     1       6.178   5.060  14.601  0.00  0.00    +0.000 A 
ATOM     14  C   UNL     1       7.114   4.397  15.392  0.00  0.00    +0.000 A 
ATOM     15  C   UNL     1       7.107   4.570  16.776  0.00  0.00    +0.000 A 
ENDBRANCH   9  10
ENDBRANCH   8   9
ENDBRANCH   7   8
ENDBRANCH   6   7
ENDBRANCH   4   6
ENDBRANCH   1   4
BRANCH   1  16
ATOM     16  C   UNL     1       1.889   5.194  20.744  0.00  0.00    +0.000 C 
BRANCH  16  17
ATOM     17  O   UNL     1       2.664   6.041  19.892  0.00  0.00    +0.000 OA
BRANCH  17  18
ATOM     18  C   UNL     1       2.146   7.284  19.668  0.00  0.00    +0.000 A 
ATOM     19  C   UNL     1       2.247   7.727  18.340  0.00  0.00    +0.000 A 
ATOM     20  C   UNL     1       1.731   8.967  17.970  0.00  0.00    +0.000 A 
ATOM     21  C   UNL     1       1.108   9.771  18.922  0.00  0.00    +0.000 A 
ATOM     22  C   UNL     1       0.997   9.342  20.240  0.00  0.00    +0.000 A 
ATOM     23  C   UNL     1       1.516   8.096  20.611  0.00  0.00    +0.000 A 
BRANCH  21  24
ATOM     24  N   UNL     1       0.562  11.014  18.498  0.00  0.00    +0.000 N 
ATOM     25  H   UNL     1       1.013  11.858  18.854  0.00  0.00    +0.000 HD
BRANCH  24  26
ATOM     26  S   UNL     1      -1.117  11.175  18.479  0.00  0.00    +0.000 S 
ATOM     27  C   UNL     1      -1.412  11.748  20.137  0.00  0.00    +0.000 C 
ATOM     28  O   UNL     1      -1.521  12.198  17.543  0.00  0.00    +0.000 OA
ATOM     29  O   UNL     1      -1.633   9.824  18.386  0.00  0.00    +0.000 OA
ENDBRANCH  24  26
ENDBRANCH  21  24
ENDBRANCH  17  18
ENDBRANCH  16  17
ENDBRANCH   1  16
TORSDOF 12
ENDMDL
MODEL 9
REMARK VINA RESULT:      -6.6      2.033      4.408
REMARK  Name = 
REMARK  14 active torsions:
REMARK  status: ('A' for Active; 'I' for Inactive)
REMARK    1  A    between atoms: C_1  and  N_2
REMARK    2  A    between atoms: N_2  and  C_3
REMARK    3  A    between atoms: N_2  and  C_12
REMARK    4  A    between atoms: C_3  and  C_4
REMARK    5  A    between atoms: C_4  and  C_5
REMARK    6  A    between atoms: C_5  and  C_6
REMARK    7  A    between atoms: C_12  and  C_13
REMARK    8  A    between atoms: C_13  and  O_14
REMARK    9  A    between atoms: C_13  and  C_15
REMARK   10  A    between atoms: C_15  and  O_16
REMARK   11  A    between atoms: O_16  and  C_17
REMARK   12  A    between atoms: C_20  and  N_21
REMARK   13  A    between atoms: N_21  and  S_22
REMARK   14  A    between atoms: S_22  and  C_23
REMARK                            x       y       z     vdW  Elec       q    Type
REMARK                         _______ _______ _______ _____ _____    ______ ____
ROOT
ATOM      1  C   UNL     1       5.983   6.106  18.130  0.00  0.00    +0.000 C 
ENDROOT
BRANCH   1   2
ATOM      2  O   UNL     1       7.227   6.805  17.991  0.00  0.00    +0.000 OA
ATOM      3  H   UNL     1       7.327   7.030  17.050  0.00  0.00    +0.000 HD
ENDBRANCH   1   2
BRANCH   1   4
ATOM      4  C   UNL     1       6.070   4.711  17.470  0.00  0.00    +0.000 C 
BRANCH   4   6
ATOM      5  C   UNL     1       6.653   3.988  15.201  0.00  0.00    +0.000 C 
ATOM      6  N   UNL     1       5.630   4.612  16.054  0.00  0.00    +0.000 NA
BRANCH   6   7
ATOM      7  C   UNL     1       4.393   3.813  15.934  0.00  0.00    +0.000 C 
BRANCH   7   8
ATOM      8  C   UNL     1       4.051   2.964  17.164  0.00  0.00    +0.000 C 
BRANCH   8   9
ATOM      9  C   UNL     1       2.543   2.891  17.420  0.00  0.00    +0.000 C 
BRANCH   9  10
ATOM     10  C   UNL     1       2.238   3.039  18.889  0.00  0.00    +0.000 A 
ATOM     11  C   UNL     1       1.223   3.906  19.318  0.00  0.00    +0.000 A 
ATOM     12  C   UNL     1       0.968   4.069  20.679  0.00  0.00    +0.000 A 
ATOM     13  C   UNL     1       1.726   3.376  21.620  0.00  0.00    +0.000 A 
ATOM     14  C   UNL     1       2.739   2.515  21.202  0.00  0.00    +0.000 A 
ATOM     15  C   UNL     1       2.996   2.349  19.841  0.00  0.00    +0.000 A 
ENDBRANCH   9  10
ENDBRANCH   8   9
ENDBRANCH   7   8
ENDBRANCH   6   7
ENDBRANCH   4   6
ENDBRANCH   1   4
BRANCH   1  16
ATOM     16  C   UNL     1       4.795   6.908  17.576  0.00  0.00    +0.000 C 
BRANCH  16  17
ATOM     17  O   UNL     1       3.589   6.413  18.165  0.00  0.00    +0.000 OA
BRANCH  17  18
ATOM     18  C   UNL     1       2.733   7.363  18.642  0.00  0.00    +0.000 A 
ATOM     19  C   UNL     1       2.319   8.307  17.690  0.00  0.00    +0.000 A 
ATOM     20  C   UNL     1       1.423   9.314  18.039  0.00  0.00    +0.000 A 
ATOM     21  C   UNL     1       0.930   9.384  19.340  0.00  0.00    +0.000 A 
ATOM     22  C   UNL     1       1.328   8.451  20.292  0.00  0.00    +0.000 A 
ATOM     23  C   UNL     1       2.230   7.440  19.941  0.00  0.00    +0.000 A 
BRANCH  21  24
ATOM     24  N   UNL     1      -0.011  10.404  19.648  0.00  0.00    +0.000 N 
ATOM     25  H   UNL     1      -0.603  10.728  18.882  0.00  0.00    +0.000 HD
BRANCH  24  26
ATOM     26  S   UNL     1       0.503  11.687  20.615  0.00  0.00    +0.000 S 
ATOM     27  C   UNL     1      -0.808  12.856  20.335  0.00  0.00    +0.000 C 
ATOM     28  O   UNL     1       0.509  11.305  22.008  0.00  0.00    +0.000 OA
ATOM     29  O   UNL     1       1.693  12.203  19.971  0.00  0.00    +0.000 OA
ENDBRANCH  24  26
ENDBRANCH  21  24
ENDBRANCH  17  18
ENDBRANCH  16  17
ENDBRANCH   1  16
TORSDOF 12
ENDMDL
