MODEL 1
REMARK VINA RESULT:      -9.5      0.000      0.000
REMARK  Name = 
REMARK  7 active torsions:
REMARK  status: ('A' for Active; 'I' for Inactive)
REMARK    1  A    between atoms: C_1  and  C_2
REMARK    2  A    between atoms: C_8  and  C_9
REMARK    3  A    between atoms: C_9  and  C_10
REMARK    4  A    between atoms: C_10  and  N_11
REMARK    5  A    between atoms: C_12  and  C_14
REMARK    6  A    between atoms: C_19  and  N_20
REMARK    7  A    between atoms: N_20  and  C_21
REMARK                            x       y       z     vdW  Elec       q    Type
REMARK                         _______ _______ _______ _____ _____    ______ ____
ROOT
ATOM      1  N   UNL     1       4.542   3.031  17.471  0.00  0.00    +0.000 N 
ATOM      2  C   UNL     1       5.231   3.622  18.510  0.00  0.00    +0.000 C 
ATOM      3  O   UNL     1       5.143   3.218  19.668  0.00  0.00    +0.000 OA
ATOM      4  H   UNL     1       4.468   3.517  16.582  0.00  0.00    +0.000 HD
ENDROOT
BRANCH   2   5
ATOM      5  C   UNL     1       6.078   4.810  18.219  0.00  0.00    +0.000 A 
ATOM      6  C   UNL     1       6.766   5.342  19.328  0.00  0.00    +0.000 A 
ATOM      7  C   UNL     1       7.655   6.403  19.181  0.00  0.00    +0.000 A 
ATOM      8  C   UNL     1       7.872   6.940  17.920  0.00  0.00    +0.000 A 
ATOM      9  C   UNL     1       7.181   6.432  16.817  0.00  0.00    +0.000 A 
ATOM     10  C   UNL     1       6.274   5.358  16.935  0.00  0.00    +0.000 A 
BRANCH  10  11
ATOM     11  N   UNL     1       5.587   4.894  15.794  0.00  0.00    +0.000 N 
ATOM     12  H   UNL     1       4.582   4.784  15.910  0.00  0.00    +0.000 HD
BRANCH  11  13
ATOM     13  C   UNL     1       6.063   4.602  14.502  0.00  0.00    +0.000 A 
ATOM     14  C   UNL     1       5.346   3.716  13.687  0.00  0.00    +0.000 A 
ATOM     15  C   UNL     1       5.795   3.399  12.400  0.00  0.00    +0.000 A 
ATOM     16  C   UNL     1       6.971   3.960  11.911  0.00  0.00    +0.000 A 
ATOM     17  C   UNL     1       7.712   4.817  12.720  0.00  0.00    +0.000 A 
ATOM     18  C   UNL     1       7.268   5.122  14.009  0.00  0.00    +0.000 A 
ENDBRANCH  11  13
ENDBRANCH  10  11
ENDBRANCH   2   5
BRANCH   1  19
ATOM     19  C   UNL     1       3.647   1.929  17.780  0.00  0.00    +0.000 C 
BRANCH  19  20
ATOM     20  C   UNL     1       2.163   2.277  17.794  0.00  0.00    +0.000 C 
BRANCH  20  28
ATOM     21  C   UNL     1       3.008   7.936  17.761  0.00  0.00    +0.000 C 
ATOM     22  C   UNL     1       2.476   6.875  18.680  0.00  0.00    +0.000 A 
ATOM     23  C   UNL     1       2.055   7.192  19.972  0.00  0.00    +0.000 A 
ATOM     24  C   UNL     1       1.530   6.215  20.827  0.00  0.00    +0.000 A 
ATOM     25  C   UNL     1       1.452   4.905  20.346  0.00  0.00    +0.000 A 
ATOM     26  N   UNL     1       0.988   3.763  20.956  0.00  0.00    +0.000 N 
ATOM     27  C   UNL     1       1.148   2.686  20.126  0.00  0.00    +0.000 A 
ATOM     28  C   UNL     1       1.720   3.124  18.945  0.00  0.00    +0.000 A 
ATOM     29  C   UNL     1       1.885   4.542  19.071  0.00  0.00    +0.000 A 
ATOM     30  C   UNL     1       2.397   5.548  18.225  0.00  0.00    +0.000 A 
ATOM     31  H   UNL     1       0.614   3.727  21.893  0.00  0.00    +0.000 HD
ENDBRANCH  20  28
ENDBRANCH  19  20
ENDBRANCH   1  19
TORSDOF 6
ENDMDL
MODEL 2
REMARK VINA RESULT:      -9.4      3.666      6.114
REMARK  Name = 
REMARK  7 active torsions:
REMARK  status: ('A' for Active; 'I' for Inactive)
REMARK    1  A    between atoms: C_1  and  C_2
REMARK    2  A    between atoms: C_8  and  C_9
REMARK    3  A    between atoms: C_9  and  C_10
REMARK    4  A    between atoms: C_10  and  N_11
REMARK    5  A    between atoms: C_12  and  C_14
REMARK    6  A    between atoms: C_19  and  N_20
REMARK    7  A    between atoms: N_20  and  C_21
REMARK                            x       y       z     vdW  Elec       q    Type
REMARK                         _______ _______ _______ _____ _____    ______ ____
ROOT
ATOM      1  N   UNL     1       1.955   6.763  20.373  0.00  0.00    +0.000 N 
ATOM      2  C   UNL     1       2.298   6.510  19.060  0.00  0.00    +0.000 C 
ATOM      3  O   UNL     1       2.466   7.413  18.241  0.00  0.00    +0.000 OA
ATOM      4  H   UNL     1       1.616   6.001  20.954  0.00  0.00    +0.000 HD
ENDROOT
BRANCH   2   5
ATOM      5  C   UNL     1       2.433   5.097  18.617  0.00  0.00    +0.000 A 
ATOM      6  C   UNL     1       1.484   4.206  19.158  0.00  0.00    +0.000 A 
ATOM      7  C   UNL     1       1.447   2.870  18.766  0.00  0.00    +0.000 A 
ATOM      8  C   UNL     1       2.354   2.412  17.822  0.00  0.00    +0.000 A 
ATOM      9  C   UNL     1       3.310   3.284  17.293  0.00  0.00    +0.000 A 
ATOM     10  C   UNL     1       3.373   4.641  17.671  0.00  0.00    +0.000 A 
BRANCH  10  11
ATOM     11  N   UNL     1       4.369   5.475  17.122  0.00  0.00    +0.000 N 
ATOM     12  H   UNL     1       4.151   5.867  16.210  0.00  0.00    +0.000 HD
BRANCH  11  13
ATOM     13  C   UNL     1       5.604   5.891  17.658  0.00  0.00    +0.000 A 
ATOM     14  C   UNL     1       6.289   6.957  17.062  0.00  0.00    +0.000 A 
ATOM     15  C   UNL     1       7.520   7.392  17.564  0.00  0.00    +0.000 A 
ATOM     16  C   UNL     1       8.087   6.762  18.669  0.00  0.00    +0.000 A 
ATOM     17  C   UNL     1       7.433   5.681  19.255  0.00  0.00    +0.000 A 
ATOM     18  C   UNL     1       6.210   5.241  18.742  0.00  0.00    +0.000 A 
ENDBRANCH  11  13
ENDBRANCH  10  11
ENDBRANCH   2   5
BRANCH   1  19
ATOM     19  C   UNL     1       1.737   8.143  20.772  0.00  0.00    +0.000 C 
BRANCH  19  20
ATOM     20  C   UNL     1       0.346   8.455  21.311  0.00  0.00    +0.000 C 
BRANCH  20  28
ATOM     21  C   UNL     1      -2.239   9.966  16.435  0.00  0.00    +0.000 C 
ATOM     22  C   UNL     1      -1.757  10.603  17.706  0.00  0.00    +0.000 A 
ATOM     23  C   UNL     1      -1.860  11.980  17.901  0.00  0.00    +0.000 A 
ATOM     24  C   UNL     1      -1.440  12.580  19.095  0.00  0.00    +0.000 A 
ATOM     25  C   UNL     1      -0.903  11.750  20.084  0.00  0.00    +0.000 A 
ATOM     26  N   UNL     1      -0.420  12.061  21.334  0.00  0.00    +0.000 N 
ATOM     27  C   UNL     1       0.059  10.934  21.948  0.00  0.00    +0.000 A 
ATOM     28  C   UNL     1      -0.119   9.861  21.094  0.00  0.00    +0.000 A 
ATOM     29  C   UNL     1      -0.760  10.374  19.920  0.00  0.00    +0.000 A 
ATOM     30  C   UNL     1      -1.203   9.793  18.712  0.00  0.00    +0.000 A 
ATOM     31  H   UNL     1      -0.395  12.993  21.723  0.00  0.00    +0.000 HD
ENDBRANCH  20  28
ENDBRANCH  19  20
ENDBRANCH   1  19
TORSDOF 6
ENDMDL
MODEL 3
REMARK VINA RESULT:      -9.3      4.256      6.143
REMARK  Name = 
REMARK  7 active torsions:
REMARK  status: ('A' for Active; 'I' for Inactive)
REMARK    1  A    between atoms: C_1  and  C_2
REMARK    2  A    between atoms: C_8  and  C_9
REMARK    3  A    between atoms: C_9  and  C_10
REMARK    4  A    between atoms: C_10  and  N_11
REMARK    5  A    between atoms: C_12  and  C_14
REMARK    6  A    between atoms: C_19  and  N_20
REMARK    7  A    between atoms: N_20  and  C_21
REMARK                            x       y       z     vdW  Elec       q    Type
REMARK                         _______ _______ _______ _____ _____    ______ ____
ROOT
ATOM      1  N   UNL     1       1.781   7.750  19.803  0.00  0.00    +0.000 N 
ATOM      2  C   UNL     1       2.634   6.813  19.256  0.00  0.00    +0.000 C 
ATOM      3  O   UNL     1       3.420   7.091  18.350  0.00  0.00    +0.000 OA
ATOM      4  H   UNL     1       1.009   7.440  20.385  0.00  0.00    +0.000 HD
ENDROOT
BRANCH   2   5
ATOM      5  C   UNL     1       2.573   5.414  19.757  0.00  0.00    +0.000 A 
ATOM      6  C   UNL     1       1.320   5.013  20.264  0.00  0.00    +0.000 A 
ATOM      7  C   UNL     1       1.102   3.706  20.691  0.00  0.00    +0.000 A 
ATOM      8  C   UNL     1       2.134   2.782  20.610  0.00  0.00    +0.000 A 
ATOM      9  C   UNL     1       3.385   3.174  20.125  0.00  0.00    +0.000 A 
ATOM     10  C   UNL     1       3.636   4.491  19.686  0.00  0.00    +0.000 A 
BRANCH  10  11
ATOM     11  N   UNL     1       4.921   4.842  19.224  0.00  0.00    +0.000 N 
ATOM     12  H   UNL     1       5.538   5.244  19.925  0.00  0.00    +0.000 HD
BRANCH  11  13
ATOM     13  C   UNL     1       5.506   4.681  17.953  0.00  0.00    +0.000 A 
ATOM     14  C   UNL     1       4.713   4.260  16.877  0.00  0.00    +0.000 A 
ATOM     15  C   UNL     1       5.262   4.083  15.603  0.00  0.00    +0.000 A 
ATOM     16  C   UNL     1       6.617   4.321  15.387  0.00  0.00    +0.000 A 
ATOM     17  C   UNL     1       7.426   4.709  16.451  0.00  0.00    +0.000 A 
ATOM     18  C   UNL     1       6.876   4.872  17.726  0.00  0.00    +0.000 A 
ENDBRANCH  11  13
ENDBRANCH  10  11
ENDBRANCH   2   5
BRANCH   1  19
ATOM     19  C   UNL     1       1.786   9.091  19.243  0.00  0.00    +0.000 C 
BRANCH  19  20
ATOM     20  C   UNL     1       0.760   9.344  18.144  0.00  0.00    +0.000 C 
BRANCH  20  28
ATOM     21  C   UNL     1      -3.701   9.976  14.617  0.00  0.00    +0.000 C 
ATOM     22  C   UNL     1      -3.258  10.433  15.976  0.00  0.00    +0.000 A 
ATOM     23  C   UNL     1      -4.038  11.314  16.725  0.00  0.00    +0.000 A 
ATOM     24  C   UNL     1      -3.647  11.724  18.006  0.00  0.00    +0.000 A 
ATOM     25  C   UNL     1      -2.441  11.226  18.507  0.00  0.00    +0.000 A 
ATOM     26  N   UNL     1      -1.822  11.454  19.715  0.00  0.00    +0.000 N 
ATOM     27  C   UNL     1      -0.622  10.795  19.761  0.00  0.00    +0.000 A 
ATOM     28  C   UNL     1      -0.449  10.116  18.569  0.00  0.00    +0.000 A 
ATOM     29  C   UNL     1      -1.621  10.363  17.783  0.00  0.00    +0.000 A 
ATOM     30  C   UNL     1      -2.044   9.956  16.499  0.00  0.00    +0.000 A 
ATOM     31  H   UNL     1      -2.191  12.048  20.443  0.00  0.00    +0.000 HD
ENDBRANCH  20  28
ENDBRANCH  19  20
ENDBRANCH   1  19
TORSDOF 6
ENDMDL
MODEL 4
REMARK VINA RESULT:      -9.3      4.258      6.216
REMARK  Name = 
REMARK  7 active torsions:
REMARK  status: ('A' for Active; 'I' for Inactive)
REMARK    1  A    between atoms: C_1  and  C_2
REMARK    2  A    between atoms: C_8  and  C_9
REMARK    3  A    between atoms: C_9  and  C_10
REMARK    4  A    between atoms: C_10  and  N_11
REMARK    5  A    between atoms: C_12  and  C_14
REMARK    6  A    between atoms: C_19  and  N_20
REMARK    7  A    between atoms: N_20  and  C_21
REMARK                            x       y       z     vdW  Elec       q    Type
REMARK                         _______ _______ _______ _____ _____    ______ ____
ROOT
ATOM      1  N   UNL     1       2.132   7.495  18.911  0.00  0.00    +0.000 N 
ATOM      2  C   UNL     1       1.916   6.791  20.079  0.00  0.00    +0.000 C 
ATOM      3  O   UNL     1       1.520   7.336  21.108  0.00  0.00    +0.000 OA
ATOM      4  H   UNL     1       2.658   7.061  18.158  0.00  0.00    +0.000 HD
ENDROOT
BRANCH   2   5
ATOM      5  C   UNL     1       2.205   5.332  20.095  0.00  0.00    +0.000 A 
ATOM      6  C   UNL     1       1.176   4.522  20.615  0.00  0.00    +0.000 A 
ATOM      7  C   UNL     1       1.284   3.134  20.616  0.00  0.00    +0.000 A 
ATOM      8  C   UNL     1       2.421   2.540  20.088  0.00  0.00    +0.000 A 
ATOM      9  C   UNL     1       3.455   3.335  19.586  0.00  0.00    +0.000 A 
ATOM     10  C   UNL     1       3.375   4.743  19.574  0.00  0.00    +0.000 A 
BRANCH  10  11
ATOM     11  N   UNL     1       4.454   5.501  19.074  0.00  0.00    +0.000 N 
ATOM     12  H   UNL     1       4.708   6.312  19.633  0.00  0.00    +0.000 HD
BRANCH  11  13
ATOM     13  C   UNL     1       5.271   5.288  17.947  0.00  0.00    +0.000 A 
ATOM     14  C   UNL     1       6.585   4.836  18.123  0.00  0.00    +0.000 A 
ATOM     15  C   UNL     1       7.426   4.620  17.026  0.00  0.00    +0.000 A 
ATOM     16  C   UNL     1       6.964   4.858  15.734  0.00  0.00    +0.000 A 
ATOM     17  C   UNL     1       5.671   5.337  15.543  0.00  0.00    +0.000 A 
ATOM     18  C   UNL     1       4.838   5.563  16.642  0.00  0.00    +0.000 A 
ENDBRANCH  11  13
ENDBRANCH  10  11
ENDBRANCH   2   5
BRANCH   1  19
ATOM     19  C   UNL     1       1.933   8.934  18.931  0.00  0.00    +0.000 C 
BRANCH  19  20
ATOM     20  C   UNL     1       0.955   9.473  17.892  0.00  0.00    +0.000 C 
BRANCH  20  28
ATOM     21  C   UNL     1      -3.786  10.097  14.751  0.00  0.00    +0.000 C 
ATOM     22  C   UNL     1      -3.259  10.498  16.098  0.00  0.00    +0.000 A 
ATOM     23  C   UNL     1      -4.014  11.300  16.954  0.00  0.00    +0.000 A 
ATOM     24  C   UNL     1      -3.543  11.655  18.224  0.00  0.00    +0.000 A 
ATOM     25  C   UNL     1      -2.283  11.185  18.604  0.00  0.00    +0.000 A 
ATOM     26  N   UNL     1      -1.583  11.373  19.773  0.00  0.00    +0.000 N 
ATOM     27  C   UNL     1      -0.357  10.768  19.691  0.00  0.00    +0.000 A 
ATOM     28  C   UNL     1      -0.249  10.164  18.451  0.00  0.00    +0.000 A 
ATOM     29  C   UNL     1      -1.486  10.401  17.770  0.00  0.00    +0.000 A 
ATOM     30  C   UNL     1      -1.990  10.048  16.500  0.00  0.00    +0.000 A 
ATOM     31  H   UNL     1      -1.918  11.908  20.561  0.00  0.00    +0.000 HD
ENDBRANCH  20  28
ENDBRANCH  19  20
ENDBRANCH   1  19
TORSDOF 6
ENDMDL
MODEL 5
REMARK VINA RESULT:      -9.3      4.238      8.038
REMARK  Name = 
REMARK  7 active torsions:
REMARK  status: ('A' for Active; 'I' for Inactive)
REMARK    1  A    between atoms: C_1  and  C_2
REMARK    2  A    between atoms: C_8  and  C_9
REMARK    3  A    between atoms: C_9  and  C_10
REMARK    4  A    between atoms: C_10  and  N_11
REMARK    5  A    between atoms: C_12  and  C_14
REMARK    6  A    between atoms: C_19  and  N_20
REMARK    7  A    between atoms: N_20  and  C_21
REMARK                            x       y       z     vdW  Elec       q    Type
REMARK                         _______ _______ _______ _____ _____    ______ ____
ROOT
ATOM      1  N   UNL     1       2.533   7.808  18.590  0.00  0.00    +0.000 N 
ATOM      2  C   UNL     1       1.791   8.972  18.579  0.00  0.00    +0.000 C 
ATOM      3  O   UNL     1       1.772   9.728  17.608  0.00  0.00    +0.000 OA
ATOM      4  H   UNL     1       2.695   7.330  19.472  0.00  0.00    +0.000 HD
ENDROOT
BRANCH   2   5
ATOM      5  C   UNL     1       1.018   9.337  19.796  0.00  0.00    +0.000 A 
ATOM      6  C   UNL     1       1.410   8.673  20.976  0.00  0.00    +0.000 A 
ATOM      7  C   UNL     1       0.824   8.978  22.201  0.00  0.00    +0.000 A 
ATOM      8  C   UNL     1      -0.156   9.959  22.262  0.00  0.00    +0.000 A 
ATOM      9  C   UNL     1      -0.564  10.611  21.095  0.00  0.00    +0.000 A 
ATOM     10  C   UNL     1       0.011  10.322  19.839  0.00  0.00    +0.000 A 
BRANCH  10  11
ATOM     11  N   UNL     1      -0.449  10.994  18.688  0.00  0.00    +0.000 N 
ATOM     12  H   UNL     1       0.220  11.632  18.263  0.00  0.00    +0.000 HD
BRANCH  11  13
ATOM     13  C   UNL     1      -1.675  10.888  18.002  0.00  0.00    +0.000 A 
ATOM     14  C   UNL     1      -2.767  11.659  18.419  0.00  0.00    +0.000 A 
ATOM     15  C   UNL     1      -4.001  11.573  17.765  0.00  0.00    +0.000 A 
ATOM     16  C   UNL     1      -4.160  10.711  16.684  0.00  0.00    +0.000 A 
ATOM     17  C   UNL     1      -3.094   9.914  16.276  0.00  0.00    +0.000 A 
ATOM     18  C   UNL     1      -1.867   9.993  16.940  0.00  0.00    +0.000 A 
ENDBRANCH  11  13
ENDBRANCH  10  11
ENDBRANCH   2   5
BRANCH   1  19
ATOM     19  C   UNL     1       3.355   7.508  17.430  0.00  0.00    +0.000 C 
BRANCH  19  20
ATOM     20  C   UNL     1       4.624   6.713  17.717  0.00  0.00    +0.000 C 
BRANCH  20  28
ATOM     21  C   UNL     1       0.808   3.404  20.406  0.00  0.00    +0.000 C 
ATOM     22  C   UNL     1       1.932   3.266  19.421  0.00  0.00    +0.000 A 
ATOM     23  C   UNL     1       2.318   2.012  18.946  0.00  0.00    +0.000 A 
ATOM     24  C   UNL     1       3.347   1.876  18.005  0.00  0.00    +0.000 A 
ATOM     25  C   UNL     1       3.982   3.040  17.564  0.00  0.00    +0.000 A 
ATOM     26  N   UNL     1       5.005   3.202  16.659  0.00  0.00    +0.000 N 
ATOM     27  C   UNL     1       5.350   4.525  16.568  0.00  0.00    +0.000 A 
ATOM     28  C   UNL     1       4.536   5.248  17.421  0.00  0.00    +0.000 A 
ATOM     29  C   UNL     1       3.643   4.308  18.031  0.00  0.00    +0.000 A 
ATOM     30  C   UNL     1       2.595   4.419  18.970  0.00  0.00    +0.000 A 
ATOM     31  H   UNL     1       5.454   2.446  16.162  0.00  0.00    +0.000 HD
ENDBRANCH  20  28
ENDBRANCH  19  20
ENDBRANCH   1  19
TORSDOF 6
ENDMDL
MODEL 6
REMARK VINA RESULT:      -9.2      4.713      8.554
REMARK  Name = 
REMARK  7 active torsions:
REMARK  status: ('A' for Active; 'I' for Inactive)
REMARK    1  A    between atoms: C_1  and  C_2
REMARK    2  A    between atoms: C_8  and  C_9
REMARK    3  A    between atoms: C_9  and  C_10
REMARK    4  A    between atoms: C_10  and  N_11
REMARK    5  A    between atoms: C_12  and  C_14
REMARK    6  A    between atoms: C_19  and  N_20
REMARK    7  A    between atoms: N_20  and  C_21
REMARK                            x       y       z     vdW  Elec       q    Type
REMARK                         _______ _______ _______ _____ _____    ______ ____
ROOT
ATOM      1  N   UNL     1       7.703   7.881  17.646  0.00  0.00    +0.000 N 
ATOM      2  C   UNL     1       7.422   6.580  18.012  0.00  0.00    +0.000 C 
ATOM      3  O   UNL     1       7.858   6.082  19.049  0.00  0.00    +0.000 OA
ATOM      4  H   UNL     1       7.511   8.183  16.696  0.00  0.00    +0.000 HD
ENDROOT
BRANCH   2   5
ATOM      5  C   UNL     1       6.594   5.746  17.100  0.00  0.00    +0.000 A 
ATOM      6  C   UNL     1       7.213   5.392  15.884  0.00  0.00    +0.000 A 
ATOM      7  C   UNL     1       6.581   4.549  14.974  0.00  0.00    +0.000 A 
ATOM      8  C   UNL     1       5.324   4.043  15.275  0.00  0.00    +0.000 A 
ATOM      9  C   UNL     1       4.695   4.401  16.470  0.00  0.00    +0.000 A 
ATOM     10  C   UNL     1       5.310   5.254  17.410  0.00  0.00    +0.000 A 
BRANCH  10  11
ATOM     11  N   UNL     1       4.625   5.602  18.593  0.00  0.00    +0.000 N 
ATOM     12  H   UNL     1       4.759   6.561  18.903  0.00  0.00    +0.000 HD
BRANCH  11  13
ATOM     13  C   UNL     1       3.745   4.845  19.390  0.00  0.00    +0.000 A 
ATOM     14  C   UNL     1       2.615   5.461  19.944  0.00  0.00    +0.000 A 
ATOM     15  C   UNL     1       1.723   4.741  20.746  0.00  0.00    +0.000 A 
ATOM     16  C   UNL     1       1.952   3.393  21.010  0.00  0.00    +0.000 A 
ATOM     17  C   UNL     1       3.087   2.774  20.493  0.00  0.00    +0.000 A 
ATOM     18  C   UNL     1       3.982   3.500  19.703  0.00  0.00    +0.000 A 
ENDBRANCH  11  13
ENDBRANCH  10  11
ENDBRANCH   2   5
BRANCH   1  19
ATOM     19  C   UNL     1       8.586   8.657  18.499  0.00  0.00    +0.000 C 
BRANCH  19  20
ATOM     20  C   UNL     1       8.762  10.118  18.100  0.00  0.00    +0.000 C 
BRANCH  20  28
ATOM     21  C   UNL     1      11.157  15.147  16.788  0.00  0.00    +0.000 C 
ATOM     22  C   UNL     1      10.919  14.286  17.994  0.00  0.00    +0.000 A 
ATOM     23  C   UNL     1      11.398  14.662  19.249  0.00  0.00    +0.000 A 
ATOM     24  C   UNL     1      11.157  13.880  20.386  0.00  0.00    +0.000 A 
ATOM     25  C   UNL     1      10.425  12.701  20.218  0.00  0.00    +0.000 A 
ATOM     26  N   UNL     1      10.045  11.756  21.143  0.00  0.00    +0.000 N 
ATOM     27  C   UNL     1       9.379  10.731  20.524  0.00  0.00    +0.000 A 
ATOM     28  C   UNL     1       9.313  11.007  19.171  0.00  0.00    +0.000 A 
ATOM     29  C   UNL     1       9.950  12.276  18.979  0.00  0.00    +0.000 A 
ATOM     30  C   UNL     1      10.196  13.089  17.852  0.00  0.00    +0.000 A 
ATOM     31  H   UNL     1      10.257  11.803  22.129  0.00  0.00    +0.000 HD
ENDBRANCH  20  28
ENDBRANCH  19  20
ENDBRANCH   1  19
TORSDOF 6
ENDMDL
MODEL 7
REMARK VINA RESULT:      -9.2      3.818      6.328
REMARK  Name = 
REMARK  7 active torsions:
REMARK  status: ('A' for Active; 'I' for Inactive)
REMARK    1  A    between atoms: C_1  and  C_2
REMARK    2  A    between atoms: C_8  and  C_9
REMARK    3  A    between atoms: C_9  and  C_10
REMARK    4  A    between atoms: C_10  and  N_11
REMARK    5  A    between atoms: C_12  and  C_14
REMARK    6  A    between atoms: C_19  and  N_20
REMARK    7  A    between atoms: N_20  and  C_21
REMARK                            x       y       z     vdW  Elec       q    Type
REMARK                         _______ _______ _______ _____ _____    ______ ____
ROOT
ATOM      1  N   UNL     1       1.679   7.108  20.848  0.00  0.00    +0.000 N 
ATOM      2  C   UNL     1       2.165   6.681  19.629  0.00  0.00    +0.000 C 
ATOM      3  O   UNL     1       2.509   7.469  18.749  0.00  0.00    +0.000 OA
ATOM      4  H   UNL     1       1.208   6.444  21.456  0.00  0.00    +0.000 HD
ENDROOT
BRANCH   2   5
ATOM      5  C   UNL     1       2.242   5.220  19.364  0.00  0.00    +0.000 A 
ATOM      6  C   UNL     1       1.361   4.425  20.126  0.00  0.00    +0.000 A 
ATOM      7  C   UNL     1       1.273   3.051  19.921  0.00  0.00    +0.000 A 
ATOM      8  C   UNL     1       2.060   2.456  18.945  0.00  0.00    +0.000 A 
ATOM      9  C   UNL     1       2.949   3.233  18.197  0.00  0.00    +0.000 A 
ATOM     10  C   UNL     1       3.061   4.626  18.383  0.00  0.00    +0.000 A 
BRANCH  10  11
ATOM     11  N   UNL     1       3.988   5.362  17.616  0.00  0.00    +0.000 N 
ATOM     12  H   UNL     1       3.640   5.695  16.720  0.00  0.00    +0.000 HD
BRANCH  11  13
ATOM     13  C   UNL     1       5.309   5.752  17.913  0.00  0.00    +0.000 A 
ATOM     14  C   UNL     1       5.932   5.252  19.064  0.00  0.00    +0.000 A 
ATOM     15  C   UNL     1       7.239   5.624  19.393  0.00  0.00    +0.000 A 
ATOM     16  C   UNL     1       7.943   6.505  18.576  0.00  0.00    +0.000 A 
ATOM     17  C   UNL     1       7.327   7.035  17.446  0.00  0.00    +0.000 A 
ATOM     18  C   UNL     1       6.016   6.672  17.127  0.00  0.00    +0.000 A 
ENDBRANCH  11  13
ENDBRANCH  10  11
ENDBRANCH   2   5
BRANCH   1  19
ATOM     19  C   UNL     1       1.523   8.537  21.063  0.00  0.00    +0.000 C 
BRANCH  19  20
ATOM     20  C   UNL     1       0.273   8.950  21.832  0.00  0.00    +0.000 C 
BRANCH  20  28
ATOM     21  C   UNL     1      -1.983   9.818  16.646  0.00  0.00    +0.000 C 
ATOM     22  C   UNL     1      -1.676  10.596  17.892  0.00  0.00    +0.000 A 
ATOM     23  C   UNL     1      -1.919  11.968  17.958  0.00  0.00    +0.000 A 
ATOM     24  C   UNL     1      -1.663  12.697  19.126  0.00  0.00    +0.000 A 
ATOM     25  C   UNL     1      -1.147  12.003  20.224  0.00  0.00    +0.000 A 
ATOM     26  N   UNL     1      -0.808  12.456  21.479  0.00  0.00    +0.000 N 
ATOM     27  C   UNL     1      -0.289  11.432  22.225  0.00  0.00    +0.000 A 
ATOM     28  C   UNL     1      -0.292  10.284  21.456  0.00  0.00    +0.000 A 
ATOM     29  C   UNL     1      -0.868  10.638  20.192  0.00  0.00    +0.000 A 
ATOM     30  C   UNL     1      -1.146   9.925  19.007  0.00  0.00    +0.000 A 
ATOM     31  H   UNL     1      -0.901  13.414  21.785  0.00  0.00    +0.000 HD
ENDBRANCH  20  28
ENDBRANCH  19  20
ENDBRANCH   1  19
TORSDOF 6
ENDMDL
MODEL 8
REMARK VINA RESULT:      -9.2      3.692      5.665
REMARK  Name = 
REMARK  7 active torsions:
REMARK  status: ('A' for Active; 'I' for Inactive)
REMARK    1  A    between atoms: C_1  and  C_2
REMARK    2  A    between atoms: C_8  and  C_9
REMARK    3  A    between atoms: C_9  and  C_10
REMARK    4  A    between atoms: C_10  and  N_11
REMARK    5  A    between atoms: C_12  and  C_14
REMARK    6  A    between atoms: C_19  and  N_20
REMARK    7  A    between atoms: N_20  and  C_21
REMARK                            x       y       z     vdW  Elec       q    Type
REMARK                         _______ _______ _______ _____ _____    ______ ____
ROOT
ATOM      1  N   UNL     1       2.144   6.649  18.291  0.00  0.00    +0.000 N 
ATOM      2  C   UNL     1       2.970   5.758  18.944  0.00  0.00    +0.000 C 
ATOM      3  O   UNL     1       3.966   6.123  19.567  0.00  0.00    +0.000 OA
ATOM      4  H   UNL     1       1.468   6.299  17.618  0.00  0.00    +0.000 HD
ENDROOT
BRANCH   2   5
ATOM      5  C   UNL     1       2.661   4.305  18.860  0.00  0.00    +0.000 A 
ATOM      6  C   UNL     1       1.326   3.958  19.152  0.00  0.00    +0.000 A 
ATOM      7  C   UNL     1       0.883   2.644  19.033  0.00  0.00    +0.000 A 
ATOM      8  C   UNL     1       1.768   1.662  18.613  0.00  0.00    +0.000 A 
ATOM      9  C   UNL     1       3.098   1.993  18.338  0.00  0.00    +0.000 A 
ATOM     10  C   UNL     1       3.576   3.314  18.451  0.00  0.00    +0.000 A 
BRANCH  10  11
ATOM     11  N   UNL     1       4.933   3.593  18.181  0.00  0.00    +0.000 N 
ATOM     12  H   UNL     1       5.571   3.423  18.955  0.00  0.00    +0.000 HD
BRANCH  11  13
ATOM     13  C   UNL     1       5.553   4.026  16.993  0.00  0.00    +0.000 A 
ATOM     14  C   UNL     1       6.857   4.537  17.044  0.00  0.00    +0.000 A 
ATOM     15  C   UNL     1       7.501   4.983  15.885  0.00  0.00    +0.000 A 
ATOM     16  C   UNL     1       6.847   4.927  14.657  0.00  0.00    +0.000 A 
ATOM     17  C   UNL     1       5.541   4.451  14.594  0.00  0.00    +0.000 A 
ATOM     18  C   UNL     1       4.896   4.019  15.756  0.00  0.00    +0.000 A 
ENDBRANCH  11  13
ENDBRANCH  10  11
ENDBRANCH   2   5
BRANCH   1  19
ATOM     19  C   UNL     1       2.506   8.056  18.304  0.00  0.00    +0.000 C 
BRANCH  19  20
ATOM     20  C   UNL     1       1.514   8.992  17.622  0.00  0.00    +0.000 C 
BRANCH  20  28
ATOM     21  C   UNL     1      -3.726  10.675  16.054  0.00  0.00    +0.000 C 
ATOM     22  C   UNL     1      -2.781  10.840  17.209  0.00  0.00    +0.000 A 
ATOM     23  C   UNL     1      -3.112  11.650  18.295  0.00  0.00    +0.000 A 
ATOM     24  C   UNL     1      -2.250  11.788  19.390  0.00  0.00    +0.000 A 
ATOM     25  C   UNL     1      -1.039  11.092  19.354  0.00  0.00    +0.000 A 
ATOM     26  N   UNL     1      -0.018  11.041  20.276  0.00  0.00    +0.000 N 
ATOM     27  C   UNL     1       1.008  10.269  19.801  0.00  0.00    +0.000 A 
ATOM     28  C   UNL     1       0.657   9.794  18.550  0.00  0.00    +0.000 A 
ATOM     29  C   UNL     1      -0.659  10.291  18.278  0.00  0.00    +0.000 A 
ATOM     30  C   UNL     1      -1.552  10.160  17.193  0.00  0.00    +0.000 A 
ATOM     31  H   UNL     1      -0.020  11.533  21.158  0.00  0.00    +0.000 HD
ENDBRANCH  20  28
ENDBRANCH  19  20
ENDBRANCH   1  19
TORSDOF 6
ENDMDL
MODEL 9
REMARK VINA RESULT:      -9.2      3.900      6.118
REMARK  Name = 
REMARK  7 active torsions:
REMARK  status: ('A' for Active; 'I' for Inactive)
REMARK    1  A    between atoms: C_1  and  C_2
REMARK    2  A    between atoms: C_8  and  C_9
REMARK    3  A    between atoms: C_9  and  C_10
REMARK    4  A    between atoms: C_10  and  N_11
REMARK    5  A    between atoms: C_12  and  C_14
REMARK    6  A    between atoms: C_19  and  N_20
REMARK    7  A    between atoms: N_20  and  C_21
REMARK                            x       y       z     vdW  Elec       q    Type
REMARK                         _______ _______ _______ _____ _____    ______ ____
ROOT
ATOM      1  N   UNL     1       2.271   6.947  18.706  0.00  0.00    +0.000 N 
ATOM      2  C   UNL     1       2.214   5.842  19.532  0.00  0.00    +0.000 C 
ATOM      3  O   UNL     1       1.879   5.924  20.713  0.00  0.00    +0.000 OA
ATOM      4  H   UNL     1       2.752   6.877  17.814  0.00  0.00    +0.000 HD
ENDROOT
BRANCH   2   5
ATOM      5  C   UNL     1       2.605   4.518  18.979  0.00  0.00    +0.000 A 
ATOM      6  C   UNL     1       1.879   3.420  19.483  0.00  0.00    +0.000 A 
ATOM      7  C   UNL     1       2.088   2.134  18.993  0.00  0.00    +0.000 A 
ATOM      8  C   UNL     1       3.022   1.932  17.986  0.00  0.00    +0.000 A 
ATOM      9  C   UNL     1       3.759   3.012  17.492  0.00  0.00    +0.000 A 
ATOM     10  C   UNL     1       3.569   4.325  17.969  0.00  0.00    +0.000 A 
BRANCH  10  11
ATOM     11  N   UNL     1       4.352   5.378  17.451  0.00  0.00    +0.000 N 
ATOM     12  H   UNL     1       3.928   5.896  16.686  0.00  0.00    +0.000 HD
BRANCH  11  13
ATOM     13  C   UNL     1       5.613   5.858  17.857  0.00  0.00    +0.000 A 
ATOM     14  C   UNL     1       6.215   6.902  17.142  0.00  0.00    +0.000 A 
ATOM     15  C   UNL     1       7.469   7.398  17.512  0.00  0.00    +0.000 A 
ATOM     16  C   UNL     1       8.143   6.853  18.603  0.00  0.00    +0.000 A 
ATOM     17  C   UNL     1       7.572   5.795  19.305  0.00  0.00    +0.000 A 
ATOM     18  C   UNL     1       6.325   5.293  18.923  0.00  0.00    +0.000 A 
ENDBRANCH  11  13
ENDBRANCH  10  11
ENDBRANCH   2   5
BRANCH   1  19
ATOM     19  C   UNL     1       1.974   8.248  19.280  0.00  0.00    +0.000 C 
BRANCH  19  20
ATOM     20  C   UNL     1       1.372   9.265  18.316  0.00  0.00    +0.000 C 
BRANCH  20  28
ATOM     21  C   UNL     1      -3.410   9.971  15.255  0.00  0.00    +0.000 C 
ATOM     22  C   UNL     1      -2.827  10.418  16.564  0.00  0.00    +0.000 A 
ATOM     23  C   UNL     1      -3.515  11.309  17.388  0.00  0.00    +0.000 A 
ATOM     24  C   UNL     1      -2.991  11.709  18.624  0.00  0.00    +0.000 A 
ATOM     25  C   UNL     1      -1.749  11.192  19.001  0.00  0.00    +0.000 A 
ATOM     26  N   UNL     1      -1.009  11.408  20.141  0.00  0.00    +0.000 N 
ATOM     27  C   UNL     1       0.180  10.732  20.066  0.00  0.00    +0.000 A 
ATOM     28  C   UNL     1       0.223  10.053  18.862  0.00  0.00    +0.000 A 
ATOM     29  C   UNL     1      -1.018  10.320  18.197  0.00  0.00    +0.000 A 
ATOM     30  C   UNL     1      -1.574   9.922  16.962  0.00  0.00    +0.000 A 
ATOM     31  H   UNL     1      -1.294  12.005  20.904  0.00  0.00    +0.000 HD
ENDBRANCH  20  28
ENDBRANCH  19  20
ENDBRANCH   1  19
TORSDOF 6
ENDMDL
