MODEL 1
REMARK VINA RESULT:      -8.2      0.000      0.000
REMARK  Name = 
REMARK  9 active torsions:
REMARK  status: ('A' for Active; 'I' for Inactive)
REMARK    1  A    between atoms: C_1  and  O_2
REMARK    2  A    between atoms: O_2  and  C_3
REMARK    3  A    between atoms: C_7  and  N_8
REMARK    4  A    between atoms: C_12  and  S_13
REMARK    5  A    between atoms: S_13  and  C_14
REMARK    6  A    between atoms: C_14  and  C_15
REMARK    7  A    between atoms: N_17  and  C_18
REMARK    8  A    between atoms: C_21  and  C_22
REMARK    9  A    between atoms: C_22  and  C_23
REMARK                            x       y       z     vdW  Elec       q    Type
REMARK                         _______ _______ _______ _____ _____    ______ ____
ROOT
ATOM      1  S   UNL     1       4.149   4.246  16.812  0.00  0.00    +0.000 S 
ENDROOT
BRANCH   1   6
ATOM      2  N   UNL     1       6.872   4.466  16.159  0.00  0.00    +0.000 N 
ATOM      3  N   UNL     1       8.052   4.358  16.801  0.00  0.00    +0.000 NA
ATOM      4  N   UNL     1       7.761   4.401  18.092  0.00  0.00    +0.000 NA
ATOM      5  N   UNL     1       6.416   4.464  18.304  0.00  0.00    +0.000 NA
ATOM      6  C   UNL     1       5.859   4.452  17.115  0.00  0.00    +0.000 A 
BRANCH   2  11
ATOM      7  C   UNL     1       6.175   3.565  12.643  0.00  0.00    +0.000 A 
ATOM      8  C   UNL     1       7.122   4.356  11.990  0.00  0.00    +0.000 A 
ATOM      9  C   UNL     1       7.882   5.289  12.697  0.00  0.00    +0.000 A 
ATOM     10  C   UNL     1       7.731   5.398  14.078  0.00  0.00    +0.000 A 
ATOM     11  C   UNL     1       6.838   4.542  14.741  0.00  0.00    +0.000 A 
ATOM     12  C   UNL     1       5.997   3.700  14.014  0.00  0.00    +0.000 A 
BRANCH   7  14
ATOM     13  C   UNL     1       4.251   2.998  11.378  0.00  0.00    +0.000 C 
ATOM     14  O   UNL     1       5.538   2.637  11.866  0.00  0.00    +0.000 OA
ENDBRANCH   7  14
ENDBRANCH   2  11
ENDBRANCH   1   6
BRANCH   1  15
ATOM     15  C   UNL     1       3.468   3.733  18.418  0.00  0.00    +0.000 C 
BRANCH  15  16
ATOM     16  C   UNL     1       2.512   4.796  18.948  0.00  0.00    +0.000 C 
ATOM     17  O   UNL     1       1.426   4.439  19.408  0.00  0.00    +0.000 OA
ATOM     18  N   UNL     1       2.981   6.095  18.884  0.00  0.00    +0.000 N 
ATOM     19  H   UNL     1       3.803   6.273  18.314  0.00  0.00    +0.000 HD
BRANCH  18  20
ATOM     20  C   UNL     1       2.276   7.214  19.371  0.00  0.00    +0.000 A 
ATOM     21  C   UNL     1       2.005   8.315  18.556  0.00  0.00    +0.000 A 
ATOM     22  C   UNL     1       1.287   9.415  19.028  0.00  0.00    +0.000 A 
ATOM     23  C   UNL     1       0.830   9.437  20.342  0.00  0.00    +0.000 A 
ATOM     24  C   UNL     1       1.118   8.343  21.175  0.00  0.00    +0.000 A 
ATOM     25  C   UNL     1       1.825   7.235  20.692  0.00  0.00    +0.000 A 
BRANCH  23  26
ATOM     26  C   UNL     1       0.025  10.553  20.911  0.00  0.00    +0.000 C 
ATOM     27  C   UNL     1      -0.472  10.520  22.333  0.00  0.00    +0.000 C 
ATOM     28  O   UNL     1      -0.218  11.536  20.201  0.00  0.00    +0.000 OA
ENDBRANCH  23  26
ENDBRANCH  18  20
ENDBRANCH  15  16
ENDBRANCH   1  15
TORSDOF 7
ENDMDL
MODEL 2
REMARK VINA RESULT:      -8.1      0.983      1.108
REMARK  Name = 
REMARK  9 active torsions:
REMARK  status: ('A' for Active; 'I' for Inactive)
REMARK    1  A    between atoms: C_1  and  O_2
REMARK    2  A    between atoms: O_2  and  C_3
REMARK    3  A    between atoms: C_7  and  N_8
REMARK    4  A    between atoms: C_12  and  S_13
REMARK    5  A    between atoms: S_13  and  C_14
REMARK    6  A    between atoms: C_14  and  C_15
REMARK    7  A    between atoms: N_17  and  C_18
REMARK    8  A    between atoms: C_21  and  C_22
REMARK    9  A    between atoms: C_22  and  C_23
REMARK                            x       y       z     vdW  Elec       q    Type
REMARK                         _______ _______ _______ _____ _____    ______ ____
ROOT
ATOM      1  S   UNL     1       4.189   3.530  16.779  0.00  0.00    +0.000 S 
ENDROOT
BRANCH   1   6
ATOM      2  N   UNL     1       6.790   4.372  16.135  0.00  0.00    +0.000 N 
ATOM      3  N   UNL     1       7.960   4.543  16.782  0.00  0.00    +0.000 NA
ATOM      4  N   UNL     1       7.660   4.525  18.072  0.00  0.00    +0.000 NA
ATOM      5  N   UNL     1       6.336   4.275  18.279  0.00  0.00    +0.000 NA
ATOM      6  C   UNL     1       5.803   4.128  17.087  0.00  0.00    +0.000 A 
BRANCH   2  11
ATOM      7  C   UNL     1       6.096   3.415  12.633  0.00  0.00    +0.000 A 
ATOM      8  C   UNL     1       7.022   4.220  11.966  0.00  0.00    +0.000 A 
ATOM      9  C   UNL     1       7.763   5.179  12.658  0.00  0.00    +0.000 A 
ATOM     10  C   UNL     1       7.617   5.300  14.040  0.00  0.00    +0.000 A 
ATOM     11  C   UNL     1       6.748   4.431  14.716  0.00  0.00    +0.000 A 
ATOM     12  C   UNL     1       5.923   3.561  14.004  0.00  0.00    +0.000 A 
BRANCH   7  14
ATOM     13  C   UNL     1       6.329   1.552  11.185  0.00  0.00    +0.000 C 
ATOM     14  O   UNL     1       5.478   2.463  11.870  0.00  0.00    +0.000 OA
ENDBRANCH   7  14
ENDBRANCH   2  11
ENDBRANCH   1   6
BRANCH   1  15
ATOM     15  C   UNL     1       3.324   3.735  18.364  0.00  0.00    +0.000 C 
BRANCH  15  16
ATOM     16  C   UNL     1       2.452   4.986  18.330  0.00  0.00    +0.000 C 
ATOM     17  O   UNL     1       1.306   4.896  17.886  0.00  0.00    +0.000 OA
ATOM     18  N   UNL     1       3.040   6.129  18.838  0.00  0.00    +0.000 N 
ATOM     19  H   UNL     1       4.044   6.114  18.995  0.00  0.00    +0.000 HD
BRANCH  18  20
ATOM     20  C   UNL     1       2.386   7.372  18.948  0.00  0.00    +0.000 A 
ATOM     21  C   UNL     1       2.299   8.248  17.862  0.00  0.00    +0.000 A 
ATOM     22  C   UNL     1       1.632   9.469  17.960  0.00  0.00    +0.000 A 
ATOM     23  C   UNL     1       1.039   9.846  19.162  0.00  0.00    +0.000 A 
ATOM     24  C   UNL     1       1.141   8.981  20.265  0.00  0.00    +0.000 A 
ATOM     25  C   UNL     1       1.799   7.749  20.157  0.00  0.00    +0.000 A 
BRANCH  23  26
ATOM     26  C   UNL     1       0.277  11.112  19.338  0.00  0.00    +0.000 C 
ATOM     27  C   UNL     1       0.969  12.407  19.676  0.00  0.00    +0.000 C 
ATOM     28  O   UNL     1      -0.950  11.098  19.180  0.00  0.00    +0.000 OA
ENDBRANCH  23  26
ENDBRANCH  18  20
ENDBRANCH  15  16
ENDBRANCH   1  15
TORSDOF 7
ENDMDL
MODEL 3
REMARK VINA RESULT:      -7.8      2.712      4.561
REMARK  Name = 
REMARK  9 active torsions:
REMARK  status: ('A' for Active; 'I' for Inactive)
REMARK    1  A    between atoms: C_1  and  O_2
REMARK    2  A    between atoms: O_2  and  C_3
REMARK    3  A    between atoms: C_7  and  N_8
REMARK    4  A    between atoms: C_12  and  S_13
REMARK    5  A    between atoms: S_13  and  C_14
REMARK    6  A    between atoms: C_14  and  C_15
REMARK    7  A    between atoms: N_17  and  C_18
REMARK    8  A    between atoms: C_21  and  C_22
REMARK    9  A    between atoms: C_22  and  C_23
REMARK                            x       y       z     vdW  Elec       q    Type
REMARK                         _______ _______ _______ _____ _____    ______ ____
ROOT
ATOM      1  S   UNL     1       2.260   6.251  19.864  0.00  0.00    +0.000 S 
ENDROOT
BRANCH   1   6
ATOM      2  N   UNL     1       3.470   4.557  17.978  0.00  0.00    +0.000 N 
ATOM      3  N   UNL     1       3.074   3.605  17.111  0.00  0.00    +0.000 NA
ATOM      4  N   UNL     1       1.844   3.280  17.475  0.00  0.00    +0.000 NA
ATOM      5  N   UNL     1       1.405   4.047  18.514  0.00  0.00    +0.000 NA
ATOM      6  C   UNL     1       2.386   4.874  18.795  0.00  0.00    +0.000 A 
BRANCH   2  11
ATOM      7  C   UNL     1       6.761   5.539  16.610  0.00  0.00    +0.000 A 
ATOM      8  C   UNL     1       7.512   5.600  17.786  0.00  0.00    +0.000 A 
ATOM      9  C   UNL     1       6.898   5.464  19.032  0.00  0.00    +0.000 A 
ATOM     10  C   UNL     1       5.528   5.213  19.105  0.00  0.00    +0.000 A 
ATOM     11  C   UNL     1       4.794   5.068  17.917  0.00  0.00    +0.000 A 
ATOM     12  C   UNL     1       5.389   5.326  16.683  0.00  0.00    +0.000 A 
BRANCH   7  14
ATOM     13  C   UNL     1       6.957   4.881  14.341  0.00  0.00    +0.000 C 
ATOM     14  O   UNL     1       7.473   5.614  15.446  0.00  0.00    +0.000 OA
ENDBRANCH   7  14
ENDBRANCH   2  11
ENDBRANCH   1   6
BRANCH   1  15
ATOM     15  C   UNL     1       2.362   7.690  18.756  0.00  0.00    +0.000 C 
BRANCH  15  16
ATOM     16  C   UNL     1       1.457   8.807  19.261  0.00  0.00    +0.000 C 
ATOM     17  O   UNL     1       0.848   9.493  18.437  0.00  0.00    +0.000 OA
ATOM     18  N   UNL     1       1.383   8.932  20.635  0.00  0.00    +0.000 N 
ATOM     19  H   UNL     1       2.073   8.436  21.192  0.00  0.00    +0.000 HD
BRANCH  18  20
ATOM     20  C   UNL     1       0.562   9.864  21.301  0.00  0.00    +0.000 A 
ATOM     21  C   UNL     1      -0.184   9.504  22.427  0.00  0.00    +0.000 A 
ATOM     22  C   UNL     1      -0.979  10.430  23.103  0.00  0.00    +0.000 A 
ATOM     23  C   UNL     1      -1.051  11.746  22.656  0.00  0.00    +0.000 A 
ATOM     24  C   UNL     1      -0.321  12.111  21.512  0.00  0.00    +0.000 A 
ATOM     25  C   UNL     1       0.488  11.182  20.846  0.00  0.00    +0.000 A 
BRANCH  23  26
ATOM     26  C   UNL     1      -1.843  12.803  23.343  0.00  0.00    +0.000 C 
ATOM     27  C   UNL     1      -1.253  14.154  23.652  0.00  0.00    +0.000 C 
ATOM     28  O   UNL     1      -3.020  12.566  23.643  0.00  0.00    +0.000 OA
ENDBRANCH  23  26
ENDBRANCH  18  20
ENDBRANCH  15  16
ENDBRANCH   1  15
TORSDOF 7
ENDMDL
MODEL 4
REMARK VINA RESULT:      -7.8      3.168      4.594
REMARK  Name = 
REMARK  9 active torsions:
REMARK  status: ('A' for Active; 'I' for Inactive)
REMARK    1  A    between atoms: C_1  and  O_2
REMARK    2  A    between atoms: O_2  and  C_3
REMARK    3  A    between atoms: C_7  and  N_8
REMARK    4  A    between atoms: C_12  and  S_13
REMARK    5  A    between atoms: S_13  and  C_14
REMARK    6  A    between atoms: C_14  and  C_15
REMARK    7  A    between atoms: N_17  and  C_18
REMARK    8  A    between atoms: C_21  and  C_22
REMARK    9  A    between atoms: C_22  and  C_23
REMARK                            x       y       z     vdW  Elec       q    Type
REMARK                         _______ _______ _______ _____ _____    ______ ____
ROOT
ATOM      1  S   UNL     1       2.836   6.037  19.579  0.00  0.00    +0.000 S 
ENDROOT
BRANCH   1   6
ATOM      2  N   UNL     1       3.121   3.877  17.807  0.00  0.00    +0.000 N 
ATOM      3  N   UNL     1       2.322   2.945  17.251  0.00  0.00    +0.000 NA
ATOM      4  N   UNL     1       1.200   2.974  17.952  0.00  0.00    +0.000 NA
ATOM      5  N   UNL     1       1.224   3.950  18.904  0.00  0.00    +0.000 NA
ATOM      6  C   UNL     1       2.388   4.545  18.785  0.00  0.00    +0.000 A 
BRANCH   2  11
ATOM      7  C   UNL     1       6.757   4.544  17.822  0.00  0.00    +0.000 A 
ATOM      8  C   UNL     1       6.963   4.838  16.473  0.00  0.00    +0.000 A 
ATOM      9  C   UNL     1       5.936   4.671  15.542  0.00  0.00    +0.000 A 
ATOM     10  C   UNL     1       4.676   4.255  15.969  0.00  0.00    +0.000 A 
ATOM     11  C   UNL     1       4.453   4.042  17.338  0.00  0.00    +0.000 A 
ATOM     12  C   UNL     1       5.512   4.093  18.243  0.00  0.00    +0.000 A 
BRANCH   7  14
ATOM     13  C   UNL     1       7.928   6.153  19.110  0.00  0.00    +0.000 C 
ATOM     14  O   UNL     1       7.808   4.810  18.655  0.00  0.00    +0.000 OA
ENDBRANCH   7  14
ENDBRANCH   2  11
ENDBRANCH   1   6
BRANCH   1  15
ATOM     15  C   UNL     1       2.621   7.310  18.297  0.00  0.00    +0.000 C 
BRANCH  15  16
ATOM     16  C   UNL     1       1.729   8.432  18.815  0.00  0.00    +0.000 C 
ATOM     17  O   UNL     1       1.126   9.132  18.000  0.00  0.00    +0.000 OA
ATOM     18  N   UNL     1       1.660   8.544  20.191  0.00  0.00    +0.000 N 
ATOM     19  H   UNL     1       2.346   8.035  20.741  0.00  0.00    +0.000 HD
BRANCH  18  20
ATOM     20  C   UNL     1       0.851   9.478  20.868  0.00  0.00    +0.000 A 
ATOM     21  C   UNL     1      -0.056   9.077  21.853  0.00  0.00    +0.000 A 
ATOM     22  C   UNL     1      -0.842  10.002  22.543  0.00  0.00    +0.000 A 
ATOM     23  C   UNL     1      -0.739  11.359  22.251  0.00  0.00    +0.000 A 
ATOM     24  C   UNL     1       0.155  11.768  21.247  0.00  0.00    +0.000 A 
ATOM     25  C   UNL     1       0.952  10.838  20.568  0.00  0.00    +0.000 A 
BRANCH  23  26
ATOM     26  C   UNL     1      -1.512  12.411  22.967  0.00  0.00    +0.000 C 
ATOM     27  C   UNL     1      -2.862  12.123  23.570  0.00  0.00    +0.000 C 
ATOM     28  O   UNL     1      -1.018  13.539  23.084  0.00  0.00    +0.000 OA
ENDBRANCH  23  26
ENDBRANCH  18  20
ENDBRANCH  15  16
ENDBRANCH   1  15
TORSDOF 7
ENDMDL
MODEL 5
REMARK VINA RESULT:      -7.7      2.875      3.984
REMARK  Name = 
REMARK  9 active torsions:
REMARK  status: ('A' for Active; 'I' for Inactive)
REMARK    1  A    between atoms: C_1  and  O_2
REMARK    2  A    between atoms: O_2  and  C_3
REMARK    3  A    between atoms: C_7  and  N_8
REMARK    4  A    between atoms: C_12  and  S_13
REMARK    5  A    between atoms: S_13  and  C_14
REMARK    6  A    between atoms: C_14  and  C_15
REMARK    7  A    between atoms: N_17  and  C_18
REMARK    8  A    between atoms: C_21  and  C_22
REMARK    9  A    between atoms: C_22  and  C_23
REMARK                            x       y       z     vdW  Elec       q    Type
REMARK                         _______ _______ _______ _____ _____    ______ ____
ROOT
ATOM      1  S   UNL     1       4.223   2.456  19.913  0.00  0.00    +0.000 S 
ENDROOT
BRANCH   1   6
ATOM      2  N   UNL     1       3.806   3.608  17.386  0.00  0.00    +0.000 N 
ATOM      3  N   UNL     1       2.756   3.878  16.586  0.00  0.00    +0.000 NA
ATOM      4  N   UNL     1       1.746   3.177  17.076  0.00  0.00    +0.000 NA
ATOM      5  N   UNL     1       2.096   2.514  18.214  0.00  0.00    +0.000 NA
ATOM      6  C   UNL     1       3.353   2.819  18.440  0.00  0.00    +0.000 A 
BRANCH   2  11
ATOM      7  C   UNL     1       6.814   5.750  17.558  0.00  0.00    +0.000 A 
ATOM      8  C   UNL     1       7.341   5.544  16.281  0.00  0.00    +0.000 A 
ATOM      9  C   UNL     1       6.786   4.590  15.426  0.00  0.00    +0.000 A 
ATOM     10  C   UNL     1       5.663   3.870  15.829  0.00  0.00    +0.000 A 
ATOM     11  C   UNL     1       5.088   4.142  17.080  0.00  0.00    +0.000 A 
ATOM     12  C   UNL     1       5.717   5.005  17.975  0.00  0.00    +0.000 A 
BRANCH   7  14
ATOM     13  C   UNL     1       7.686   7.954  17.576  0.00  0.00    +0.000 C 
ATOM     14  O   UNL     1       7.390   6.756  18.283  0.00  0.00    +0.000 OA
ENDBRANCH   7  14
ENDBRANCH   2  11
ENDBRANCH   1   6
BRANCH   1  15
ATOM     15  C   UNL     1       3.086   2.956  21.240  0.00  0.00    +0.000 C 
BRANCH  15  16
ATOM     16  C   UNL     1       2.260   4.159  20.800  0.00  0.00    +0.000 C 
ATOM     17  O   UNL     1       1.031   4.089  20.864  0.00  0.00    +0.000 OA
ATOM     18  N   UNL     1       2.990   5.256  20.383  0.00  0.00    +0.000 N 
ATOM     19  H   UNL     1       3.980   5.121  20.198  0.00  0.00    +0.000 HD
BRANCH  18  20
ATOM     20  C   UNL     1       2.419   6.483  19.990  0.00  0.00    +0.000 A 
ATOM     21  C   UNL     1       1.741   7.297  20.902  0.00  0.00    +0.000 A 
ATOM     22  C   UNL     1       1.196   8.523  20.522  0.00  0.00    +0.000 A 
ATOM     23  C   UNL     1       1.313   8.960  19.205  0.00  0.00    +0.000 A 
ATOM     24  C   UNL     1       1.974   8.138  18.277  0.00  0.00    +0.000 A 
ATOM     25  C   UNL     1       2.533   6.915  18.667  0.00  0.00    +0.000 A 
BRANCH  23  26
ATOM     26  C   UNL     1       0.794  10.272  18.728  0.00  0.00    +0.000 C 
ATOM     27  C   UNL     1      -0.473  10.370  17.919  0.00  0.00    +0.000 C 
ATOM     28  O   UNL     1       1.410  11.302  19.027  0.00  0.00    +0.000 OA
ENDBRANCH  23  26
ENDBRANCH  18  20
ENDBRANCH  15  16
ENDBRANCH   1  15
TORSDOF 7
ENDMDL
MODEL 6
REMARK VINA RESULT:      -7.6      3.571      5.005
REMARK  Name = 
REMARK  9 active torsions:
REMARK  status: ('A' for Active; 'I' for Inactive)
REMARK    1  A    between atoms: C_1  and  O_2
REMARK    2  A    between atoms: O_2  and  C_3
REMARK    3  A    between atoms: C_7  and  N_8
REMARK    4  A    between atoms: C_12  and  S_13
REMARK    5  A    between atoms: S_13  and  C_14
REMARK    6  A    between atoms: C_14  and  C_15
REMARK    7  A    between atoms: N_17  and  C_18
REMARK    8  A    between atoms: C_21  and  C_22
REMARK    9  A    between atoms: C_22  and  C_23
REMARK                            x       y       z     vdW  Elec       q    Type
REMARK                         _______ _______ _______ _____ _____    ______ ____
ROOT
ATOM      1  S   UNL     1       1.422   5.166  20.079  0.00  0.00    +0.000 S 
ENDROOT
BRANCH   1   6
ATOM      2  N   UNL     1       3.509   3.289  20.153  0.00  0.00    +0.000 N 
ATOM      3  N   UNL     1       3.827   2.195  20.872  0.00  0.00    +0.000 NA
ATOM      4  N   UNL     1       3.040   2.228  21.936  0.00  0.00    +0.000 NA
ATOM      5  N   UNL     1       2.172   3.277  21.890  0.00  0.00    +0.000 NA
ATOM      6  C   UNL     1       2.422   3.907  20.765  0.00  0.00    +0.000 A 
BRANCH   2  11
ATOM      7  C   UNL     1       6.044   4.811  17.933  0.00  0.00    +0.000 A 
ATOM      8  C   UNL     1       5.429   4.633  16.693  0.00  0.00    +0.000 A 
ATOM      9  C   UNL     1       4.257   3.883  16.578  0.00  0.00    +0.000 A 
ATOM     10  C   UNL     1       3.664   3.349  17.721  0.00  0.00    +0.000 A 
ATOM     11  C   UNL     1       4.241   3.602  18.975  0.00  0.00    +0.000 A 
ATOM     12  C   UNL     1       5.474   4.247  19.068  0.00  0.00    +0.000 A 
BRANCH   7  14
ATOM     13  C   UNL     1       7.775   5.820  19.200  0.00  0.00    +0.000 C 
ATOM     14  O   UNL     1       7.146   5.621  17.939  0.00  0.00    +0.000 OA
ENDBRANCH   7  14
ENDBRANCH   2  11
ENDBRANCH   1   6
BRANCH   1  15
ATOM     15  C   UNL     1       2.560   6.564  19.843  0.00  0.00    +0.000 C 
BRANCH  15  16
ATOM     16  C   UNL     1       1.826   7.883  20.057  0.00  0.00    +0.000 C 
ATOM     17  O   UNL     1       1.615   8.608  19.084  0.00  0.00    +0.000 OA
ATOM     18  N   UNL     1       1.433   8.134  21.358  0.00  0.00    +0.000 N 
ATOM     19  H   UNL     1       1.831   7.555  22.092  0.00  0.00    +0.000 HD
BRANCH  18  20
ATOM     20  C   UNL     1       0.696   9.268  21.756  0.00  0.00    +0.000 A 
ATOM     21  C   UNL     1      -0.248   9.198  22.784  0.00  0.00    +0.000 A 
ATOM     22  C   UNL     1      -0.963  10.324  23.197  0.00  0.00    +0.000 A 
ATOM     23  C   UNL     1      -0.750  11.551  22.577  0.00  0.00    +0.000 A 
ATOM     24  C   UNL     1       0.182  11.624  21.528  0.00  0.00    +0.000 A 
ATOM     25  C   UNL     1       0.908  10.496  21.127  0.00  0.00    +0.000 A 
BRANCH  23  26
ATOM     26  C   UNL     1      -1.441  12.806  22.983  0.00  0.00    +0.000 C 
ATOM     27  C   UNL     1      -0.800  14.155  22.792  0.00  0.00    +0.000 C 
ATOM     28  O   UNL     1      -2.577  12.731  23.467  0.00  0.00    +0.000 OA
ENDBRANCH  23  26
ENDBRANCH  18  20
ENDBRANCH  15  16
ENDBRANCH   1  15
TORSDOF 7
ENDMDL
MODEL 7
REMARK VINA RESULT:      -7.6      1.361      1.874
REMARK  Name = 
REMARK  9 active torsions:
REMARK  status: ('A' for Active; 'I' for Inactive)
REMARK    1  A    between atoms: C_1  and  O_2
REMARK    2  A    between atoms: O_2  and  C_3
REMARK    3  A    between atoms: C_7  and  N_8
REMARK    4  A    between atoms: C_12  and  S_13
REMARK    5  A    between atoms: S_13  and  C_14
REMARK    6  A    between atoms: C_14  and  C_15
REMARK    7  A    between atoms: N_17  and  C_18
REMARK    8  A    between atoms: C_21  and  C_22
REMARK    9  A    between atoms: C_22  and  C_23
REMARK                            x       y       z     vdW  Elec       q    Type
REMARK                         _______ _______ _______ _____ _____    ______ ____
ROOT
ATOM      1  S   UNL     1       4.549   6.223  16.824  0.00  0.00    +0.000 S 
ENDROOT
BRANCH   1   6
ATOM      2  N   UNL     1       6.928   4.864  16.204  0.00  0.00    +0.000 N 
ATOM      3  N   UNL     1       7.889   4.203  16.877  0.00  0.00    +0.000 NA
ATOM      4  N   UNL     1       7.725   4.532  18.149  0.00  0.00    +0.000 NA
ATOM      5  N   UNL     1       6.638   5.335  18.326  0.00  0.00    +0.000 NA
ATOM      6  C   UNL     1       6.110   5.502  17.135  0.00  0.00    +0.000 A 
BRANCH   2  11
ATOM      7  C   UNL     1       6.158   3.633  12.805  0.00  0.00    +0.000 A 
ATOM      8  C   UNL     1       7.119   4.323  12.065  0.00  0.00    +0.000 A 
ATOM      9  C   UNL     1       7.916   5.300  12.666  0.00  0.00    +0.000 A 
ATOM     10  C   UNL     1       7.787   5.554  14.031  0.00  0.00    +0.000 A 
ATOM     11  C   UNL     1       6.878   4.797  14.786  0.00  0.00    +0.000 A 
ATOM     12  C   UNL     1       6.003   3.911  14.158  0.00  0.00    +0.000 A 
BRANCH   7  14
ATOM     13  C   UNL     1       4.360   3.066  11.368  0.00  0.00    +0.000 C 
ATOM     14  O   UNL     1       5.484   2.650  12.133  0.00  0.00    +0.000 OA
ENDBRANCH   7  14
ENDBRANCH   2  11
ENDBRANCH   1   6
BRANCH   1  15
ATOM     15  C   UNL     1       3.599   5.910  18.342  0.00  0.00    +0.000 C 
BRANCH  15  16
ATOM     16  C   UNL     1       2.718   7.110  18.669  0.00  0.00    +0.000 C 
ATOM     17  O   UNL     1       2.344   7.838  17.747  0.00  0.00    +0.000 OA
ATOM     18  N   UNL     1       2.392   7.257  20.004  0.00  0.00    +0.000 N 
ATOM     19  H   UNL     1       2.914   6.707  20.681  0.00  0.00    +0.000 HD
BRANCH  18  20
ATOM     20  C   UNL     1       1.545   8.266  20.505  0.00  0.00    +0.000 A 
ATOM     21  C   UNL     1       1.134   8.276  21.840  0.00  0.00    +0.000 A 
ATOM     22  C   UNL     1       0.315   9.286  22.345  0.00  0.00    +0.000 A 
ATOM     23  C   UNL     1      -0.119  10.314  21.512  0.00  0.00    +0.000 A 
ATOM     24  C   UNL     1       0.273  10.300  20.163  0.00  0.00    +0.000 A 
ATOM     25  C   UNL     1       1.107   9.291  19.664  0.00  0.00    +0.000 A 
BRANCH  23  26
ATOM     26  C   UNL     1      -0.960  11.449  21.982  0.00  0.00    +0.000 C 
ATOM     27  C   UNL     1      -1.770  12.278  21.020  0.00  0.00    +0.000 C 
ATOM     28  O   UNL     1      -1.008  11.696  23.192  0.00  0.00    +0.000 OA
ENDBRANCH  23  26
ENDBRANCH  18  20
ENDBRANCH  15  16
ENDBRANCH   1  15
TORSDOF 7
ENDMDL
MODEL 8
REMARK VINA RESULT:      -7.6      2.839      4.153
REMARK  Name = 
REMARK  9 active torsions:
REMARK  status: ('A' for Active; 'I' for Inactive)
REMARK    1  A    between atoms: C_1  and  O_2
REMARK    2  A    between atoms: O_2  and  C_3
REMARK    3  A    between atoms: C_7  and  N_8
REMARK    4  A    between atoms: C_12  and  S_13
REMARK    5  A    between atoms: S_13  and  C_14
REMARK    6  A    between atoms: C_14  and  C_15
REMARK    7  A    between atoms: N_17  and  C_18
REMARK    8  A    between atoms: C_21  and  C_22
REMARK    9  A    between atoms: C_22  and  C_23
REMARK                            x       y       z     vdW  Elec       q    Type
REMARK                         _______ _______ _______ _____ _____    ______ ____
ROOT
ATOM      1  S   UNL     1       2.152   5.110  18.449  0.00  0.00    +0.000 S 
ENDROOT
BRANCH   1   6
ATOM      2  N   UNL     1       4.568   3.703  18.721  0.00  0.00    +0.000 N 
ATOM      3  N   UNL     1       5.051   2.715  19.498  0.00  0.00    +0.000 NA
ATOM      4  N   UNL     1       4.204   2.611  20.510  0.00  0.00    +0.000 NA
ATOM      5  N   UNL     1       3.145   3.459  20.372  0.00  0.00    +0.000 NA
ATOM      6  C   UNL     1       3.338   4.099  19.241  0.00  0.00    +0.000 A 
BRANCH   2  11
ATOM      7  C   UNL     1       6.826   5.706  16.587  0.00  0.00    +0.000 A 
ATOM      8  C   UNL     1       6.387   5.314  15.321  0.00  0.00    +0.000 A 
ATOM      9  C   UNL     1       5.455   4.285  15.176  0.00  0.00    +0.000 A 
ATOM     10  C   UNL     1       4.917   3.676  16.309  0.00  0.00    +0.000 A 
ATOM     11  C   UNL     1       5.299   4.133  17.580  0.00  0.00    +0.000 A 
ATOM     12  C   UNL     1       6.318   5.074  17.715  0.00  0.00    +0.000 A 
BRANCH   7  14
ATOM     13  C   UNL     1       7.702   7.537  17.813  0.00  0.00    +0.000 C 
ATOM     14  O   UNL     1       7.686   6.770  16.615  0.00  0.00    +0.000 OA
ENDBRANCH   7  14
ENDBRANCH   2  11
ENDBRANCH   1   6
BRANCH   1  15
ATOM     15  C   UNL     1       3.032   6.669  18.130  0.00  0.00    +0.000 C 
BRANCH  15  16
ATOM     16  C   UNL     1       2.258   7.841  18.724  0.00  0.00    +0.000 C 
ATOM     17  O   UNL     1       2.029   7.845  19.934  0.00  0.00    +0.000 OA
ATOM     18  N   UNL     1       1.901   8.828  17.825  0.00  0.00    +0.000 N 
ATOM     19  H   UNL     1       1.981   8.616  16.834  0.00  0.00    +0.000 HD
BRANCH  18  20
ATOM     20  C   UNL     1       1.232  10.016  18.181  0.00  0.00    +0.000 A 
ATOM     21  C   UNL     1      -0.155  10.049  18.353  0.00  0.00    +0.000 A 
ATOM     22  C   UNL     1      -0.817  11.218  18.728  0.00  0.00    +0.000 A 
ATOM     23  C   UNL     1      -0.098  12.392  18.933  0.00  0.00    +0.000 A 
ATOM     24  C   UNL     1       1.294  12.373  18.740  0.00  0.00    +0.000 A 
ATOM     25  C   UNL     1       1.956  11.193  18.378  0.00  0.00    +0.000 A 
BRANCH  23  26
ATOM     26  C   UNL     1      -0.723  13.670  19.371  0.00  0.00    +0.000 C 
ATOM     27  C   UNL     1      -0.132  15.004  18.997  0.00  0.00    +0.000 C 
ATOM     28  O   UNL     1      -1.764  13.628  20.039  0.00  0.00    +0.000 OA
ENDBRANCH  23  26
ENDBRANCH  18  20
ENDBRANCH  15  16
ENDBRANCH   1  15
TORSDOF 7
ENDMDL
MODEL 9
REMARK VINA RESULT:      -7.6      5.143      9.376
REMARK  Name = 
REMARK  9 active torsions:
REMARK  status: ('A' for Active; 'I' for Inactive)
REMARK    1  A    between atoms: C_1  and  O_2
REMARK    2  A    between atoms: O_2  and  C_3
REMARK    3  A    between atoms: C_7  and  N_8
REMARK    4  A    between atoms: C_12  and  S_13
REMARK    5  A    between atoms: S_13  and  C_14
REMARK    6  A    between atoms: C_14  and  C_15
REMARK    7  A    between atoms: N_17  and  C_18
REMARK    8  A    between atoms: C_21  and  C_22
REMARK    9  A    between atoms: C_22  and  C_23
REMARK                            x       y       z     vdW  Elec       q    Type
REMARK                         _______ _______ _______ _____ _____    ______ ____
ROOT
ATOM      1  S   UNL     1      -0.833  10.953  22.335  0.00  0.00    +0.000 S 
ENDROOT
BRANCH   1   6
ATOM      2  N   UNL     1      -0.550  11.872  19.696  0.00  0.00    +0.000 N 
ATOM      3  N   UNL     1       0.433  12.382  18.929  0.00  0.00    +0.000 NA
ATOM      4  N   UNL     1       1.397  12.728  19.769  0.00  0.00    +0.000 NA
ATOM      5  N   UNL     1       1.091  12.392  21.054  0.00  0.00    +0.000 NA
ATOM      6  C   UNL     1      -0.088  11.815  21.009  0.00  0.00    +0.000 A 
BRANCH   2  11
ATOM      7  C   UNL     1      -2.942  10.358  17.319  0.00  0.00    +0.000 A 
ATOM      8  C   UNL     1      -4.098  11.073  17.638  0.00  0.00    +0.000 A 
ATOM      9  C   UNL     1      -4.121  11.941  18.731  0.00  0.00    +0.000 A 
ATOM     10  C   UNL     1      -2.963  12.137  19.482  0.00  0.00    +0.000 A 
ATOM     11  C   UNL     1      -1.782  11.480  19.105  0.00  0.00    +0.000 A 
ATOM     12  C   UNL     1      -1.798  10.524  18.090  0.00  0.00    +0.000 A 
BRANCH   7  14
ATOM     13  C   UNL     1      -2.866  10.278  14.951  0.00  0.00    +0.000 C 
ATOM     14  O   UNL     1      -3.011   9.591  16.189  0.00  0.00    +0.000 OA
ENDBRANCH   7  14
ENDBRANCH   2  11
ENDBRANCH   1   6
BRANCH   1  15
ATOM     15  C   UNL     1       0.374   9.663  22.766  0.00  0.00    +0.000 C 
BRANCH  15  16
ATOM     16  C   UNL     1       0.418   8.599  21.676  0.00  0.00    +0.000 C 
ATOM     17  O   UNL     1      -0.588   8.413  20.989  0.00  0.00    +0.000 OA
ATOM     18  N   UNL     1       1.627   7.943  21.540  0.00  0.00    +0.000 N 
ATOM     19  H   UNL     1       2.310   8.053  22.285  0.00  0.00    +0.000 HD
BRANCH  18  20
ATOM     20  C   UNL     1       1.892   6.967  20.558  0.00  0.00    +0.000 A 
ATOM     21  C   UNL     1       2.396   7.315  19.303  0.00  0.00    +0.000 A 
ATOM     22  C   UNL     1       2.682   6.350  18.337  0.00  0.00    +0.000 A 
ATOM     23  C   UNL     1       2.458   5.003  18.609  0.00  0.00    +0.000 A 
ATOM     24  C   UNL     1       1.930   4.647  19.862  0.00  0.00    +0.000 A 
ATOM     25  C   UNL     1       1.659   5.618  20.833  0.00  0.00    +0.000 A 
BRANCH  23  26
ATOM     26  C   UNL     1       2.772   3.910  17.649  0.00  0.00    +0.000 C 
ATOM     27  C   UNL     1       2.247   2.512  17.848  0.00  0.00    +0.000 C 
ATOM     28  O   UNL     1       3.461   4.168  16.655  0.00  0.00    +0.000 OA
ENDBRANCH  23  26
ENDBRANCH  18  20
ENDBRANCH  15  16
ENDBRANCH   1  15
TORSDOF 7
ENDMDL
