MODEL 1
REMARK VINA RESULT:      -8.2      0.000      0.000
REMARK  Name = 
REMARK  4 active torsions:
REMARK  status: ('A' for Active; 'I' for Inactive)
REMARK    1  A    between atoms: N_1  and  C_2
REMARK    2  A    between atoms: C_5  and  C_6
REMARK    3  A    between atoms: C_8  and  C_9
REMARK    4  A    between atoms: C_12  and  C_13
REMARK                            x       y       z     vdW  Elec       q    Type
REMARK                         _______ _______ _______ _____ _____    ______ ____
ROOT
ATOM      1  C   UNL     1       1.603   7.804  20.305  0.00  0.00    +0.000 A 
ATOM      2  C   UNL     1       2.221   7.761  19.071  0.00  0.00    +0.000 A 
ATOM      3  C   UNL     1       2.845   6.488  18.978  0.00  0.00    +0.000 A 
ATOM      4  N   UNL     1       2.606   5.768  20.083  0.00  0.00    +0.000 NA
ATOM      5  N   UNL     1       1.890   6.588  20.868  0.00  0.00    +0.000 N 
ATOM      6  H   UNL     1       1.641   6.263  21.794  0.00  0.00    +0.000 HD
ENDROOT
BRANCH   1  10
ATOM      7  C   UNL     1      -0.623  10.881  22.298  0.00  0.00    +0.000 A 
ATOM      8  C   UNL     1      -0.533  10.861  20.905  0.00  0.00    +0.000 A 
ATOM      9  C   UNL     1       0.213   9.875  20.247  0.00  0.00    +0.000 A 
ATOM     10  C   UNL     1       0.847   8.859  20.972  0.00  0.00    +0.000 A 
ATOM     11  C   UNL     1       0.720   8.858  22.366  0.00  0.00    +0.000 A 
ATOM     12  C   UNL     1      -0.027   9.845  23.018  0.00  0.00    +0.000 A 
BRANCH   7  13
ATOM     13  N   UNL     1      -1.484  11.778  22.937  0.00  0.00    +0.000 N 
ATOM     14  H   UNL     1      -1.771  11.484  23.865  0.00  0.00    +0.000 HD
ATOM     15  H   UNL     1      -2.270  12.072  22.366  0.00  0.00    +0.000 HD
ENDBRANCH   7  13
ENDBRANCH   1  10
BRANCH   3  16
ATOM     16  C   UNL     1       3.655   5.968  17.877  0.00  0.00    +0.000 A 
ATOM     17  C   UNL     1       3.698   4.593  17.611  0.00  0.00    +0.000 A 
ATOM     18  C   UNL     1       4.455   4.096  16.545  0.00  0.00    +0.000 A 
ATOM     19  C   UNL     1       5.189   4.967  15.726  0.00  0.00    +0.000 A 
ATOM     20  C   UNL     1       5.152   6.343  15.998  0.00  0.00    +0.000 A 
ATOM     21  C   UNL     1       4.388   6.837  17.060  0.00  0.00    +0.000 A 
BRANCH  19  22
ATOM     22  C   UNL     1       5.997   4.447  14.563  0.00  0.00    +0.000 C 
ATOM     23  F   UNL     1       6.891   5.350  14.073  0.00  0.00    +0.000 F 
ATOM     24  F   UNL     1       6.724   3.342  14.886  0.00  0.00    +0.000 F 
ATOM     25  F   UNL     1       5.217   4.087  13.507  0.00  0.00    +0.000 F 
ENDBRANCH  19  22
ENDBRANCH   3  16
TORSDOF 4
ENDMDL
MODEL 2
REMARK VINA RESULT:      -8.2      0.253      1.308
REMARK  Name = 
REMARK  4 active torsions:
REMARK  status: ('A' for Active; 'I' for Inactive)
REMARK    1  A    between atoms: N_1  and  C_2
REMARK    2  A    between atoms: C_5  and  C_6
REMARK    3  A    between atoms: C_8  and  C_9
REMARK    4  A    between atoms: C_12  and  C_13
REMARK                            x       y       z     vdW  Elec       q    Type
REMARK                         _______ _______ _______ _____ _____    ______ ____
ROOT
ATOM      1  C   UNL     1       1.552   7.943  20.391  0.00  0.00    +0.000 A 
ATOM      2  C   UNL     1       2.158   7.880  19.152  0.00  0.00    +0.000 A 
ATOM      3  C   UNL     1       2.747   6.591  19.057  0.00  0.00    +0.000 A 
ATOM      4  N   UNL     1       2.498   5.880  20.166  0.00  0.00    +0.000 NA
ATOM      5  N   UNL     1       1.812   6.721  20.955  0.00  0.00    +0.000 N 
ATOM      6  H   UNL     1       1.563   6.405  21.884  0.00  0.00    +0.000 HD
ENDROOT
BRANCH   1  10
ATOM      7  C   UNL     1      -0.583  11.080  22.390  0.00  0.00    +0.000 A 
ATOM      8  C   UNL     1      -0.194  11.225  21.058  0.00  0.00    +0.000 A 
ATOM      9  C   UNL     1       0.525  10.217  20.405  0.00  0.00    +0.000 A 
ATOM     10  C   UNL     1       0.831   9.020  21.063  0.00  0.00    +0.000 A 
ATOM     11  C   UNL     1       0.404   8.860  22.386  0.00  0.00    +0.000 A 
ATOM     12  C   UNL     1      -0.316   9.871  23.033  0.00  0.00    +0.000 A 
BRANCH   7  13
ATOM     13  N   UNL     1      -1.422  12.026  22.988  0.00  0.00    +0.000 N 
ATOM     14  H   UNL     1      -1.765  11.751  23.902  0.00  0.00    +0.000 HD
ATOM     15  H   UNL     1      -2.165  12.358  22.382  0.00  0.00    +0.000 HD
ENDBRANCH   7  13
ENDBRANCH   1  10
BRANCH   3  16
ATOM     16  C   UNL     1       3.532   6.047  17.950  0.00  0.00    +0.000 A 
ATOM     17  C   UNL     1       4.338   6.884  17.167  0.00  0.00    +0.000 A 
ATOM     18  C   UNL     1       5.105   6.361  16.121  0.00  0.00    +0.000 A 
ATOM     19  C   UNL     1       5.078   4.987  15.835  0.00  0.00    +0.000 A 
ATOM     20  C   UNL     1       4.265   4.151  16.615  0.00  0.00    +0.000 A 
ATOM     21  C   UNL     1       3.504   4.676  17.664  0.00  0.00    +0.000 A 
BRANCH  19  22
ATOM     22  C   UNL     1       5.912   4.408  14.721  0.00  0.00    +0.000 C 
ATOM     23  F   UNL     1       5.206   4.157  13.584  0.00  0.00    +0.000 F 
ATOM     24  F   UNL     1       6.932   5.231  14.351  0.00  0.00    +0.000 F 
ATOM     25  F   UNL     1       6.492   3.225  15.066  0.00  0.00    +0.000 F 
ENDBRANCH  19  22
ENDBRANCH   3  16
TORSDOF 4
ENDMDL
MODEL 3
REMARK VINA RESULT:      -8.2      0.395      1.654
REMARK  Name = 
REMARK  4 active torsions:
REMARK  status: ('A' for Active; 'I' for Inactive)
REMARK    1  A    between atoms: N_1  and  C_2
REMARK    2  A    between atoms: C_5  and  C_6
REMARK    3  A    between atoms: C_8  and  C_9
REMARK    4  A    between atoms: C_12  and  C_13
REMARK                            x       y       z     vdW  Elec       q    Type
REMARK                         _______ _______ _______ _____ _____    ______ ____
ROOT
ATOM      1  C   UNL     1       1.481   8.014  20.425  0.00  0.00    +0.000 A 
ATOM      2  C   UNL     1       2.124   7.944  19.205  0.00  0.00    +0.000 A 
ATOM      3  C   UNL     1       2.684   6.642  19.119  0.00  0.00    +0.000 A 
ATOM      4  N   UNL     1       2.382   5.930  20.215  0.00  0.00    +0.000 NA
ATOM      5  N   UNL     1       1.692   6.782  20.988  0.00  0.00    +0.000 N 
ATOM      6  H   UNL     1       1.406   6.466  21.906  0.00  0.00    +0.000 HD
ENDROOT
BRANCH   1  10
ATOM      7  C   UNL     1      -0.606  11.241  22.330  0.00  0.00    +0.000 A 
ATOM      8  C   UNL     1      -0.397  10.037  23.003  0.00  0.00    +0.000 A 
ATOM      9  C   UNL     1       0.261   8.969  22.380  0.00  0.00    +0.000 A 
ATOM     10  C   UNL     1       0.764   9.104  21.081  0.00  0.00    +0.000 A 
ATOM     11  C   UNL     1       0.590  10.326  20.423  0.00  0.00    +0.000 A 
ATOM     12  C   UNL     1      -0.067  11.390  21.051  0.00  0.00    +0.000 A 
BRANCH   7  13
ATOM     13  N   UNL     1      -1.132  12.347  23.006  0.00  0.00    +0.000 N 
ATOM     14  H   UNL     1      -0.928  12.356  23.999  0.00  0.00    +0.000 HD
ATOM     15  H   UNL     1      -2.113  12.519  22.812  0.00  0.00    +0.000 HD
ENDBRANCH   7  13
ENDBRANCH   1  10
BRANCH   3  16
ATOM     16  C   UNL     1       3.490   6.085  18.034  0.00  0.00    +0.000 A 
ATOM     17  C   UNL     1       4.303   6.916  17.252  0.00  0.00    +0.000 A 
ATOM     18  C   UNL     1       5.091   6.381  16.226  0.00  0.00    +0.000 A 
ATOM     19  C   UNL     1       5.076   5.004  15.961  0.00  0.00    +0.000 A 
ATOM     20  C   UNL     1       4.256   4.174  16.740  0.00  0.00    +0.000 A 
ATOM     21  C   UNL     1       3.475   4.710  17.769  0.00  0.00    +0.000 A 
BRANCH  19  22
ATOM     22  C   UNL     1       5.933   4.412  14.870  0.00  0.00    +0.000 C 
ATOM     23  F   UNL     1       5.274   4.246  13.689  0.00  0.00    +0.000 F 
ATOM     24  F   UNL     1       7.019   5.183  14.584  0.00  0.00    +0.000 F 
ATOM     25  F   UNL     1       6.421   3.184  15.199  0.00  0.00    +0.000 F 
ENDBRANCH  19  22
ENDBRANCH   3  16
TORSDOF 4
ENDMDL
MODEL 4
REMARK VINA RESULT:      -8.1      0.194      1.316
REMARK  Name = 
REMARK  4 active torsions:
REMARK  status: ('A' for Active; 'I' for Inactive)
REMARK    1  A    between atoms: N_1  and  C_2
REMARK    2  A    between atoms: C_5  and  C_6
REMARK    3  A    between atoms: C_8  and  C_9
REMARK    4  A    between atoms: C_12  and  C_13
REMARK                            x       y       z     vdW  Elec       q    Type
REMARK                         _______ _______ _______ _____ _____    ______ ____
ROOT
ATOM      1  C   UNL     1       1.581   7.880  20.324  0.00  0.00    +0.000 A 
ATOM      2  C   UNL     1       2.212   7.827  19.097  0.00  0.00    +0.000 A 
ATOM      3  C   UNL     1       2.802   6.538  19.004  0.00  0.00    +0.000 A 
ATOM      4  N   UNL     1       2.530   5.819  20.103  0.00  0.00    +0.000 NA
ATOM      5  N   UNL     1       1.829   6.654  20.884  0.00  0.00    +0.000 N 
ATOM      6  H   UNL     1       1.560   6.331  21.806  0.00  0.00    +0.000 HD
ENDROOT
BRANCH   1  10
ATOM      7  C   UNL     1      -0.565  11.056  22.250  0.00  0.00    +0.000 A 
ATOM      8  C   UNL     1      -0.164   9.931  22.973  0.00  0.00    +0.000 A 
ATOM      9  C   UNL     1       0.515   8.878  22.347  0.00  0.00    +0.000 A 
ATOM     10  C   UNL     1       0.847   8.953  20.989  0.00  0.00    +0.000 A 
ATOM     11  C   UNL     1       0.480  10.099  20.277  0.00  0.00    +0.000 A 
ATOM     12  C   UNL     1      -0.197  11.149  20.908  0.00  0.00    +0.000 A 
BRANCH   7  13
ATOM     13  N   UNL     1      -1.111  12.161  22.910  0.00  0.00    +0.000 N 
ATOM     14  H   UNL     1      -2.094  12.060  23.137  0.00  0.00    +0.000 HD
ATOM     15  H   UNL     1      -0.908  13.049  22.463  0.00  0.00    +0.000 HD
ENDBRANCH   7  13
ENDBRANCH   1  10
BRANCH   3  16
ATOM     16  C   UNL     1       3.609   6.001  17.909  0.00  0.00    +0.000 A 
ATOM     17  C   UNL     1       3.623   4.626  17.641  0.00  0.00    +0.000 A 
ATOM     18  C   UNL     1       4.379   4.115  16.581  0.00  0.00    +0.000 A 
ATOM     19  C   UNL     1       5.140   4.970  15.770  0.00  0.00    +0.000 A 
ATOM     20  C   UNL     1       5.131   6.346  16.044  0.00  0.00    +0.000 A 
ATOM     21  C   UNL     1       4.369   6.855  17.100  0.00  0.00    +0.000 A 
BRANCH  19  22
ATOM     22  C   UNL     1       5.945   4.434  14.614  0.00  0.00    +0.000 C 
ATOM     23  F   UNL     1       6.604   3.276  14.899  0.00  0.00    +0.000 F 
ATOM     24  F   UNL     1       5.176   4.164  13.523  0.00  0.00    +0.000 F 
ATOM     25  F   UNL     1       6.900   5.310  14.193  0.00  0.00    +0.000 F 
ENDBRANCH  19  22
ENDBRANCH   3  16
TORSDOF 4
ENDMDL
MODEL 5
REMARK VINA RESULT:      -7.6      6.088      9.306
REMARK  Name = 
REMARK  4 active torsions:
REMARK  status: ('A' for Active; 'I' for Inactive)
REMARK    1  A    between atoms: N_1  and  C_2
REMARK    2  A    between atoms: C_5  and  C_6
REMARK    3  A    between atoms: C_8  and  C_9
REMARK    4  A    between atoms: C_12  and  C_13
REMARK                            x       y       z     vdW  Elec       q    Type
REMARK                         _______ _______ _______ _____ _____    ______ ____
ROOT
ATOM      1  C   UNL     1       2.294   6.675  19.910  0.00  0.00    +0.000 A 
ATOM      2  C   UNL     1       1.487   7.237  20.879  0.00  0.00    +0.000 A 
ATOM      3  C   UNL     1       1.138   8.532  20.410  0.00  0.00    +0.000 A 
ATOM      4  N   UNL     1       1.676   8.752  19.202  0.00  0.00    +0.000 NA
ATOM      5  N   UNL     1       2.384   7.642  18.943  0.00  0.00    +0.000 N 
ATOM      6  H   UNL     1       2.928   7.613  18.089  0.00  0.00    +0.000 HD
ENDROOT
BRANCH   1  10
ATOM      7  C   UNL     1       4.298   2.885  19.765  0.00  0.00    +0.000 A 
ATOM      8  C   UNL     1       4.894   4.023  19.220  0.00  0.00    +0.000 A 
ATOM      9  C   UNL     1       4.236   5.259  19.240  0.00  0.00    +0.000 A 
ATOM     10  C   UNL     1       2.983   5.389  19.850  0.00  0.00    +0.000 A 
ATOM     11  C   UNL     1       2.406   4.255  20.432  0.00  0.00    +0.000 A 
ATOM     12  C   UNL     1       3.069   3.023  20.410  0.00  0.00    +0.000 A 
BRANCH   7  13
ATOM     13  N   UNL     1       5.019   1.692  19.870  0.00  0.00    +0.000 N 
ATOM     14  H   UNL     1       5.304   1.304  18.977  0.00  0.00    +0.000 HD
ATOM     15  H   UNL     1       4.584   0.999  20.470  0.00  0.00    +0.000 HD
ENDBRANCH   7  13
ENDBRANCH   1  10
BRANCH   3  16
ATOM     16  C   UNL     1       0.324   9.539  21.089  0.00  0.00    +0.000 A 
ATOM     17  C   UNL     1      -0.118  10.679  20.405  0.00  0.00    +0.000 A 
ATOM     18  C   UNL     1      -0.914  11.632  21.048  0.00  0.00    +0.000 A 
ATOM     19  C   UNL     1      -1.281  11.465  22.392  0.00  0.00    +0.000 A 
ATOM     20  C   UNL     1      -0.832  10.327  23.078  0.00  0.00    +0.000 A 
ATOM     21  C   UNL     1      -0.042   9.372  22.431  0.00  0.00    +0.000 A 
BRANCH  19  22
ATOM     22  C   UNL     1      -2.153  12.476  23.092  0.00  0.00    +0.000 C 
ATOM     23  F   UNL     1      -2.886  13.247  22.241  0.00  0.00    +0.000 F 
ATOM     24  F   UNL     1      -3.051  11.896  23.935  0.00  0.00    +0.000 F 
ATOM     25  F   UNL     1      -1.433  13.347  23.853  0.00  0.00    +0.000 F 
ENDBRANCH  19  22
ENDBRANCH   3  16
TORSDOF 4
ENDMDL
MODEL 6
REMARK VINA RESULT:      -7.6      5.511      9.101
REMARK  Name = 
REMARK  4 active torsions:
REMARK  status: ('A' for Active; 'I' for Inactive)
REMARK    1  A    between atoms: N_1  and  C_2
REMARK    2  A    between atoms: C_5  and  C_6
REMARK    3  A    between atoms: C_8  and  C_9
REMARK    4  A    between atoms: C_12  and  C_13
REMARK                            x       y       z     vdW  Elec       q    Type
REMARK                         _______ _______ _______ _____ _____    ______ ____
ROOT
ATOM      1  C   UNL     1       2.852   6.591  18.996  0.00  0.00    +0.000 A 
ATOM      2  C   UNL     1       2.276   7.837  19.144  0.00  0.00    +0.000 A 
ATOM      3  C   UNL     1       1.565   7.808  20.374  0.00  0.00    +0.000 A 
ATOM      4  N   UNL     1       1.714   6.617  20.971  0.00  0.00    +0.000 NA
ATOM      5  N   UNL     1       2.458   5.903  20.114  0.00  0.00    +0.000 N 
ATOM      6  H   UNL     1       2.650   4.935  20.342  0.00  0.00    +0.000 HD
ENDROOT
BRANCH   1  10
ATOM      7  C   UNL     1       5.220   4.874  15.859  0.00  0.00    +0.000 A 
ATOM      8  C   UNL     1       5.241   6.250  16.090  0.00  0.00    +0.000 A 
ATOM      9  C   UNL     1       4.452   6.822  17.096  0.00  0.00    +0.000 A 
ATOM     10  C   UNL     1       3.658   6.018  17.922  0.00  0.00    +0.000 A 
ATOM     11  C   UNL     1       3.670   4.635  17.715  0.00  0.00    +0.000 A 
ATOM     12  C   UNL     1       4.462   4.068  16.709  0.00  0.00    +0.000 A 
BRANCH   7  13
ATOM     13  N   UNL     1       6.116   4.296  14.954  0.00  0.00    +0.000 N 
ATOM     14  H   UNL     1       7.056   4.186  15.320  0.00  0.00    +0.000 HD
ATOM     15  H   UNL     1       6.108   4.726  14.035  0.00  0.00    +0.000 HD
ENDBRANCH   7  13
ENDBRANCH   1  10
BRANCH   3  16
ATOM     16  C   UNL     1       0.760   8.875  20.966  0.00  0.00    +0.000 A 
ATOM     17  C   UNL     1       0.179   9.862  20.159  0.00  0.00    +0.000 A 
ATOM     18  C   UNL     1      -0.609  10.871  20.722  0.00  0.00    +0.000 A 
ATOM     19  C   UNL     1      -0.827  10.915  22.107  0.00  0.00    +0.000 A 
ATOM     20  C   UNL     1      -0.239   9.931  22.916  0.00  0.00    +0.000 A 
ATOM     21  C   UNL     1       0.542   8.919  22.349  0.00  0.00    +0.000 A 
BRANCH  19  22
ATOM     22  C   UNL     1      -1.688  11.987  22.726  0.00  0.00    +0.000 C 
ATOM     23  F   UNL     1      -2.438  12.675  21.820  0.00  0.00    +0.000 F 
ATOM     24  F   UNL     1      -2.571  11.488  23.635  0.00  0.00    +0.000 F 
ATOM     25  F   UNL     1      -0.956  12.924  23.390  0.00  0.00    +0.000 F 
ENDBRANCH  19  22
ENDBRANCH   3  16
TORSDOF 4
ENDMDL
MODEL 7
REMARK VINA RESULT:      -7.6      5.523      9.129
REMARK  Name = 
REMARK  4 active torsions:
REMARK  status: ('A' for Active; 'I' for Inactive)
REMARK    1  A    between atoms: N_1  and  C_2
REMARK    2  A    between atoms: C_5  and  C_6
REMARK    3  A    between atoms: C_8  and  C_9
REMARK    4  A    between atoms: C_12  and  C_13
REMARK                            x       y       z     vdW  Elec       q    Type
REMARK                         _______ _______ _______ _____ _____    ______ ____
ROOT
ATOM      1  C   UNL     1       2.829   6.588  19.043  0.00  0.00    +0.000 A 
ATOM      2  C   UNL     1       2.255   7.836  19.186  0.00  0.00    +0.000 A 
ATOM      3  C   UNL     1       1.544   7.811  20.416  0.00  0.00    +0.000 A 
ATOM      4  N   UNL     1       1.690   6.622  21.018  0.00  0.00    +0.000 NA
ATOM      5  N   UNL     1       2.435   5.904  20.163  0.00  0.00    +0.000 N 
ATOM      6  H   UNL     1       2.626   4.937  20.394  0.00  0.00    +0.000 HD
ENDROOT
BRANCH   1  10
ATOM      7  C   UNL     1       5.199   4.929  15.876  0.00  0.00    +0.000 A 
ATOM      8  C   UNL     1       4.386   4.107  16.658  0.00  0.00    +0.000 A 
ATOM      9  C   UNL     1       3.628   4.637  17.710  0.00  0.00    +0.000 A 
ATOM     10  C   UNL     1       3.636   6.012  17.971  0.00  0.00    +0.000 A 
ATOM     11  C   UNL     1       4.419   6.839  17.159  0.00  0.00    +0.000 A 
ATOM     12  C   UNL     1       5.173   6.304  16.108  0.00  0.00    +0.000 A 
BRANCH   7  13
ATOM     13  N   UNL     1       5.836   4.417  14.741  0.00  0.00    +0.000 N 
ATOM     14  H   UNL     1       5.742   3.413  14.634  0.00  0.00    +0.000 HD
ATOM     15  H   UNL     1       6.796   4.728  14.633  0.00  0.00    +0.000 HD
ENDBRANCH   7  13
ENDBRANCH   1  10
BRANCH   3  16
ATOM     16  C   UNL     1       0.739   8.881  21.004  0.00  0.00    +0.000 A 
ATOM     17  C   UNL     1       0.148   9.858  20.193  0.00  0.00    +0.000 A 
ATOM     18  C   UNL     1      -0.639  10.870  20.753  0.00  0.00    +0.000 A 
ATOM     19  C   UNL     1      -0.847  10.926  22.139  0.00  0.00    +0.000 A 
ATOM     20  C   UNL     1      -0.249   9.951  22.952  0.00  0.00    +0.000 A 
ATOM     21  C   UNL     1       0.531   8.937  22.389  0.00  0.00    +0.000 A 
BRANCH  19  22
ATOM     22  C   UNL     1      -1.706  12.001  22.754  0.00  0.00    +0.000 C 
ATOM     23  F   UNL     1      -0.999  12.925  23.463  0.00  0.00    +0.000 F 
ATOM     24  F   UNL     1      -2.408  12.705  21.823  0.00  0.00    +0.000 F 
ATOM     25  F   UNL     1      -2.630  11.498  23.619  0.00  0.00    +0.000 F 
ENDBRANCH  19  22
ENDBRANCH   3  16
TORSDOF 4
ENDMDL
MODEL 8
REMARK VINA RESULT:      -7.6      6.114      9.299
REMARK  Name = 
REMARK  4 active torsions:
REMARK  status: ('A' for Active; 'I' for Inactive)
REMARK    1  A    between atoms: N_1  and  C_2
REMARK    2  A    between atoms: C_5  and  C_6
REMARK    3  A    between atoms: C_8  and  C_9
REMARK    4  A    between atoms: C_12  and  C_13
REMARK                            x       y       z     vdW  Elec       q    Type
REMARK                         _______ _______ _______ _____ _____    ______ ____
ROOT
ATOM      1  C   UNL     1       2.228   6.802  19.905  0.00  0.00    +0.000 A 
ATOM      2  C   UNL     1       1.415   7.351  20.877  0.00  0.00    +0.000 A 
ATOM      3  C   UNL     1       1.060   8.647  20.418  0.00  0.00    +0.000 A 
ATOM      4  N   UNL     1       1.600   8.882  19.214  0.00  0.00    +0.000 NA
ATOM      5  N   UNL     1       2.315   7.778  18.948  0.00  0.00    +0.000 N 
ATOM      6  H   UNL     1       2.862   7.760  18.096  0.00  0.00    +0.000 HD
ENDROOT
BRANCH   1  10
ATOM      7  C   UNL     1       4.254   3.025  19.733  0.00  0.00    +0.000 A 
ATOM      8  C   UNL     1       4.854   4.176  19.218  0.00  0.00    +0.000 A 
ATOM      9  C   UNL     1       4.189   5.408  19.247  0.00  0.00    +0.000 A 
ATOM     10  C   UNL     1       2.925   5.521  19.836  0.00  0.00    +0.000 A 
ATOM     11  C   UNL     1       2.343   4.375  20.389  0.00  0.00    +0.000 A 
ATOM     12  C   UNL     1       3.013   3.146  20.358  0.00  0.00    +0.000 A 
BRANCH   7  13
ATOM     13  N   UNL     1       4.980   1.834  19.831  0.00  0.00    +0.000 N 
ATOM     14  H   UNL     1       4.440   1.052  20.186  0.00  0.00    +0.000 HD
ATOM     15  H   UNL     1       5.872   1.933  20.305  0.00  0.00    +0.000 HD
ENDBRANCH   7  13
ENDBRANCH   1  10
BRANCH   3  16
ATOM     16  C   UNL     1       0.237   9.644  21.104  0.00  0.00    +0.000 A 
ATOM     17  C   UNL     1      -0.128   9.467  22.445  0.00  0.00    +0.000 A 
ATOM     18  C   UNL     1      -0.898  10.429  23.107  0.00  0.00    +0.000 A 
ATOM     19  C   UNL     1      -1.321  11.587  22.437  0.00  0.00    +0.000 A 
ATOM     20  C   UNL     1      -0.961  11.759  21.092  0.00  0.00    +0.000 A 
ATOM     21  C   UNL     1      -0.186  10.799  20.435  0.00  0.00    +0.000 A 
BRANCH  19  22
ATOM     22  C   UNL     1      -2.136  12.640  23.144  0.00  0.00    +0.000 C 
ATOM     23  F   UNL     1      -1.390  13.487  23.907  0.00  0.00    +0.000 F 
ATOM     24  F   UNL     1      -2.828  13.432  22.279  0.00  0.00    +0.000 F 
ATOM     25  F   UNL     1      -3.064  12.104  23.984  0.00  0.00    +0.000 F 
ENDBRANCH  19  22
ENDBRANCH   3  16
TORSDOF 4
ENDMDL
MODEL 9
REMARK VINA RESULT:      -7.5      5.483      9.044
REMARK  Name = 
REMARK  4 active torsions:
REMARK  status: ('A' for Active; 'I' for Inactive)
REMARK    1  A    between atoms: N_1  and  C_2
REMARK    2  A    between atoms: C_5  and  C_6
REMARK    3  A    between atoms: C_8  and  C_9
REMARK    4  A    between atoms: C_12  and  C_13
REMARK                            x       y       z     vdW  Elec       q    Type
REMARK                         _______ _______ _______ _____ _____    ______ ____
ROOT
ATOM      1  C   UNL     1       2.914   6.570  18.938  0.00  0.00    +0.000 A 
ATOM      2  C   UNL     1       2.292   7.795  19.075  0.00  0.00    +0.000 A 
ATOM      3  C   UNL     1       1.619   7.767  20.325  0.00  0.00    +0.000 A 
ATOM      4  N   UNL     1       1.833   6.598  20.946  0.00  0.00    +0.000 NA
ATOM      5  N   UNL     1       2.582   5.894  20.083  0.00  0.00    +0.000 N 
ATOM      6  H   UNL     1       2.820   4.941  20.328  0.00  0.00    +0.000 HD
ENDROOT
BRANCH   1  10
ATOM      7  C   UNL     1       5.257   4.874  15.771  0.00  0.00    +0.000 A 
ATOM      8  C   UNL     1       5.281   6.248  16.013  0.00  0.00    +0.000 A 
ATOM      9  C   UNL     1       4.500   6.814  17.028  0.00  0.00    +0.000 A 
ATOM     10  C   UNL     1       3.711   6.005  17.854  0.00  0.00    +0.000 A 
ATOM     11  C   UNL     1       3.720   4.623  17.636  0.00  0.00    +0.000 A 
ATOM     12  C   UNL     1       4.504   4.063  16.620  0.00  0.00    +0.000 A 
BRANCH   7  13
ATOM     13  N   UNL     1       6.145   4.302  14.855  0.00  0.00    +0.000 N 
ATOM     14  H   UNL     1       5.860   3.387  14.522  0.00  0.00    +0.000 HD
ATOM     15  H   UNL     1       7.114   4.317  15.157  0.00  0.00    +0.000 HD
ENDBRANCH   7  13
ENDBRANCH   1  10
BRANCH   3  16
ATOM     16  C   UNL     1       0.788   8.815  20.917  0.00  0.00    +0.000 A 
ATOM     17  C   UNL     1       0.456   8.779  22.278  0.00  0.00    +0.000 A 
ATOM     18  C   UNL     1      -0.321   9.793  22.848  0.00  0.00    +0.000 A 
ATOM     19  C   UNL     1      -0.786  10.860  22.066  0.00  0.00    +0.000 A 
ATOM     20  C   UNL     1      -0.460  10.891  20.702  0.00  0.00    +0.000 A 
ATOM     21  C   UNL     1       0.324   9.881  20.136  0.00  0.00    +0.000 A 
BRANCH  19  22
ATOM     22  C   UNL     1      -1.611  11.967  22.672  0.00  0.00    +0.000 C 
ATOM     23  F   UNL     1      -0.867  12.919  23.303  0.00  0.00    +0.000 F 
ATOM     24  F   UNL     1      -2.354  12.632  21.744  0.00  0.00    +0.000 F 
ATOM     25  F   UNL     1      -2.494  11.510  23.602  0.00  0.00    +0.000 F 
ENDBRANCH  19  22
ENDBRANCH   3  16
TORSDOF 4
ENDMDL
