MODEL 1
REMARK VINA RESULT:      -7.6      0.000      0.000
REMARK  Name = 
REMARK  6 active torsions:
REMARK  status: ('A' for Active; 'I' for Inactive)
REMARK    1  A    between atoms: C_1  and  N_2
REMARK    2  A    between atoms: C_3  and  C_5
REMARK    3  A    between atoms: C_5  and  C_6
REMARK    4  A    between atoms: N_12  and  C_13
REMARK    5  A    between atoms: C_13  and  C_14
REMARK    6  A    between atoms: C_17  and  C_18
REMARK                            x       y       z     vdW  Elec       q    Type
REMARK                         _______ _______ _______ _____ _____    ______ ____
ROOT
ATOM      1  C   UNL     1       5.400   5.573  17.985  0.00  0.00    +0.000 C 
ATOM      2  C   UNL     1       4.706   5.295  19.333  0.00  0.00    +0.000 C 
ATOM      3  C   UNL     1       3.189   5.503  19.267  0.00  0.00    +0.000 C 
ATOM      4  N   UNL     1       2.862   6.825  18.732  0.00  0.00    +0.000 N 
ATOM      5  C   UNL     1       2.084   7.668  19.503  0.00  0.00    +0.000 C 
ATOM      6  O   UNL     1       1.631   7.322  20.594  0.00  0.00    +0.000 OA
ATOM      7  N   UNL     1       1.875   8.931  19.026  0.00  0.00    +0.000 N 
ATOM      8  C   UNL     1       3.444   7.115  17.421  0.00  0.00    +0.000 C 
ATOM      9  C   UNL     1       4.964   6.959  17.472  0.00  0.00    +0.000 C 
ATOM     10  H   UNL     1       1.912   9.112  18.036  0.00  0.00    +0.000 HD
ENDROOT
BRANCH   1  11
ATOM     11  C   UNL     1       5.130   4.428  16.993  0.00  0.00    +0.000 C 
BRANCH  11  14
ATOM     12  C   UNL     1       6.437   3.972  13.465  0.00  0.00    +0.000 C 
ATOM     13  N   UNL     1       5.601   4.053  14.635  0.00  0.00    +0.000 N 
ATOM     14  C   UNL     1       6.141   4.325  15.869  0.00  0.00    +0.000 C 
ATOM     15  O   UNL     1       7.340   4.493  16.061  0.00  0.00    +0.000 OA
ATOM     16  H   UNL     1       4.597   3.998  14.524  0.00  0.00    +0.000 HD
ENDBRANCH  11  14
ENDBRANCH   1  11
BRANCH   7  17
ATOM     17  C   UNL     1       1.031   9.841  19.767  0.00  0.00    +0.000 C 
BRANCH  17  18
ATOM     18  C   UNL     1      -0.215  10.161  19.010  0.00  0.00    +0.000 A 
ATOM     19  C   UNL     1      -1.274  10.930  19.452  0.00  0.00    +0.000 A 
ATOM     20  N   UNL     1      -2.209  10.929  18.448  0.00  0.00    +0.000 N 
ATOM     21  C   UNL     1      -3.475  11.544  18.372  0.00  0.00    +0.000 A 
ATOM     22  C   UNL     1      -4.014  12.369  19.505  0.00  0.00    +0.000 C 
ATOM     23  C   UNL     1      -4.198  11.366  17.248  0.00  0.00    +0.000 A 
ATOM     24  C   UNL     1      -3.663  10.562  16.163  0.00  0.00    +0.000 A 
ATOM     25  C   UNL     1      -2.454   9.980  16.249  0.00  0.00    +0.000 A 
ATOM     26  C   UNL     1      -1.668  10.146  17.424  0.00  0.00    +0.000 A 
ATOM     27  N   UNL     1      -0.481   9.671  17.749  0.00  0.00    +0.000 NA
ENDBRANCH  17  18
ENDBRANCH   7  17
TORSDOF 4
ENDMDL
MODEL 2
REMARK VINA RESULT:      -7.6      2.119      2.569
REMARK  Name = 
REMARK  6 active torsions:
REMARK  status: ('A' for Active; 'I' for Inactive)
REMARK    1  A    between atoms: C_1  and  N_2
REMARK    2  A    between atoms: C_3  and  C_5
REMARK    3  A    between atoms: C_5  and  C_6
REMARK    4  A    between atoms: N_12  and  C_13
REMARK    5  A    between atoms: C_13  and  C_14
REMARK    6  A    between atoms: C_17  and  C_18
REMARK                            x       y       z     vdW  Elec       q    Type
REMARK                         _______ _______ _______ _____ _____    ______ ____
ROOT
ATOM      1  C   UNL     1       5.852   4.970  17.207  0.00  0.00    +0.000 C 
ATOM      2  C   UNL     1       5.511   4.154  18.469  0.00  0.00    +0.000 C 
ATOM      3  C   UNL     1       4.003   4.086  18.735  0.00  0.00    +0.000 C 
ATOM      4  N   UNL     1       3.412   5.425  18.757  0.00  0.00    +0.000 N 
ATOM      5  C   UNL     1       2.729   5.820  19.892  0.00  0.00    +0.000 C 
ATOM      6  O   UNL     1       2.572   5.067  20.854  0.00  0.00    +0.000 OA
ATOM      7  N   UNL     1       2.273   7.107  19.928  0.00  0.00    +0.000 N 
ATOM      8  C   UNL     1       3.652   6.220  17.552  0.00  0.00    +0.000 C 
ATOM      9  C   UNL     1       5.154   6.341  17.290  0.00  0.00    +0.000 C 
ATOM     10  H   UNL     1       2.069   7.596  19.072  0.00  0.00    +0.000 HD
ENDROOT
BRANCH   1  11
ATOM     11  C   UNL     1       5.507   4.170  15.938  0.00  0.00    +0.000 C 
BRANCH  11  14
ATOM     12  C   UNL     1       6.927   3.860  12.438  0.00  0.00    +0.000 C 
ATOM     13  N   UNL     1       6.153   3.692  13.641  0.00  0.00    +0.000 N 
ATOM     14  C   UNL     1       6.441   4.420  14.771  0.00  0.00    +0.000 C 
ATOM     15  O   UNL     1       7.363   5.225  14.841  0.00  0.00    +0.000 OA
ATOM     16  H   UNL     1       5.335   3.099  13.618  0.00  0.00    +0.000 HD
ENDBRANCH  11  14
ENDBRANCH   1  11
BRANCH   7  17
ATOM     17  C   UNL     1       1.511   7.560  21.069  0.00  0.00    +0.000 C 
BRANCH  17  18
ATOM     18  C   UNL     1       0.845   8.867  20.792  0.00  0.00    +0.000 A 
ATOM     19  C   UNL     1       0.186   9.667  21.704  0.00  0.00    +0.000 A 
ATOM     20  N   UNL     1      -0.296  10.747  21.009  0.00  0.00    +0.000 N 
ATOM     21  C   UNL     1      -1.045  11.859  21.442  0.00  0.00    +0.000 A 
ATOM     22  C   UNL     1      -1.451  12.018  22.878  0.00  0.00    +0.000 C 
ATOM     23  C   UNL     1      -1.395  12.783  20.524  0.00  0.00    +0.000 A 
ATOM     24  C   UNL     1      -0.997  12.611  19.137  0.00  0.00    +0.000 A 
ATOM     25  C   UNL     1      -0.283  11.545  18.737  0.00  0.00    +0.000 A 
ATOM     26  C   UNL     1       0.099  10.550  19.681  0.00  0.00    +0.000 A 
ATOM     27  N   UNL     1       0.772   9.426  19.534  0.00  0.00    +0.000 NA
ENDBRANCH  17  18
ENDBRANCH   7  17
TORSDOF 4
ENDMDL
MODEL 3
REMARK VINA RESULT:      -7.4      1.705      2.779
REMARK  Name = 
REMARK  6 active torsions:
REMARK  status: ('A' for Active; 'I' for Inactive)
REMARK    1  A    between atoms: C_1  and  N_2
REMARK    2  A    between atoms: C_3  and  C_5
REMARK    3  A    between atoms: C_5  and  C_6
REMARK    4  A    between atoms: N_12  and  C_13
REMARK    5  A    between atoms: C_13  and  C_14
REMARK    6  A    between atoms: C_17  and  C_18
REMARK                            x       y       z     vdW  Elec       q    Type
REMARK                         _______ _______ _______ _____ _____    ______ ____
ROOT
ATOM      1  C   UNL     1       5.576   5.070  17.302  0.00  0.00    +0.000 C 
ATOM      2  C   UNL     1       5.021   4.232  18.471  0.00  0.00    +0.000 C 
ATOM      3  C   UNL     1       3.507   4.393  18.642  0.00  0.00    +0.000 C 
ATOM      4  N   UNL     1       3.136   5.805  18.740  0.00  0.00    +0.000 N 
ATOM      5  C   UNL     1       2.446   6.223  19.863  0.00  0.00    +0.000 C 
ATOM      6  O   UNL     1       2.104   5.439  20.749  0.00  0.00    +0.000 OA
ATOM      7  N   UNL     1       2.198   7.561  19.978  0.00  0.00    +0.000 N 
ATOM      8  C   UNL     1       3.584   6.634  17.621  0.00  0.00    +0.000 C 
ATOM      9  C   UNL     1       5.100   6.527  17.457  0.00  0.00    +0.000 C 
ATOM     10  H   UNL     1       2.135   8.138  19.156  0.00  0.00    +0.000 HD
ENDROOT
BRANCH   1  11
ATOM     11  C   UNL     1       5.199   4.431  15.954  0.00  0.00    +0.000 C 
BRANCH  11  14
ATOM     12  C   UNL     1       6.879   3.976  12.586  0.00  0.00    +0.000 C 
ATOM     13  N   UNL     1       5.979   3.905  13.709  0.00  0.00    +0.000 N 
ATOM     14  C   UNL     1       6.265   4.559  14.884  0.00  0.00    +0.000 C 
ATOM     15  O   UNL     1       7.286   5.213  15.063  0.00  0.00    +0.000 OA
ATOM     16  H   UNL     1       5.087   3.443  13.593  0.00  0.00    +0.000 HD
ENDBRANCH  11  14
ENDBRANCH   1  11
BRANCH   7  17
ATOM     17  C   UNL     1       1.439   8.049  21.107  0.00  0.00    +0.000 C 
BRANCH  17  18
ATOM     18  C   UNL     1       0.847   9.390  20.823  0.00  0.00    +0.000 A 
ATOM     19  C   UNL     1       0.047   9.727  19.749  0.00  0.00    +0.000 A 
ATOM     20  N   UNL     1      -0.238  11.063  19.873  0.00  0.00    +0.000 N 
ATOM     21  C   UNL     1      -1.002  11.919  19.055  0.00  0.00    +0.000 A 
ATOM     22  C   UNL     1      -1.674  11.417  17.809  0.00  0.00    +0.000 C 
ATOM     23  C   UNL     1      -1.111  13.213  19.419  0.00  0.00    +0.000 A 
ATOM     24  C   UNL     1      -0.451  13.683  20.625  0.00  0.00    +0.000 A 
ATOM     25  C   UNL     1       0.276  12.855  21.397  0.00  0.00    +0.000 A 
ATOM     26  C   UNL     1       0.412  11.485  21.037  0.00  0.00    +0.000 A 
ATOM     27  N   UNL     1       1.074  10.498  21.611  0.00  0.00    +0.000 NA
ENDBRANCH  17  18
ENDBRANCH   7  17
TORSDOF 4
ENDMDL
MODEL 4
REMARK VINA RESULT:      -7.3      2.999      3.524
REMARK  Name = 
REMARK  6 active torsions:
REMARK  status: ('A' for Active; 'I' for Inactive)
REMARK    1  A    between atoms: C_1  and  N_2
REMARK    2  A    between atoms: C_3  and  C_5
REMARK    3  A    between atoms: C_5  and  C_6
REMARK    4  A    between atoms: N_12  and  C_13
REMARK    5  A    between atoms: C_13  and  C_14
REMARK    6  A    between atoms: C_17  and  C_18
REMARK                            x       y       z     vdW  Elec       q    Type
REMARK                         _______ _______ _______ _____ _____    ______ ____
ROOT
ATOM      1  C   UNL     1       5.574   5.500  16.695  0.00  0.00    +0.000 C 
ATOM      2  C   UNL     1       4.847   4.331  17.389  0.00  0.00    +0.000 C 
ATOM      3  C   UNL     1       3.344   4.584  17.545  0.00  0.00    +0.000 C 
ATOM      4  N   UNL     1       3.091   5.868  18.200  0.00  0.00    +0.000 N 
ATOM      5  C   UNL     1       2.345   5.873  19.363  0.00  0.00    +0.000 C 
ATOM      6  O   UNL     1       1.859   4.843  19.831  0.00  0.00    +0.000 OA
ATOM      7  N   UNL     1       2.207   7.069  20.009  0.00  0.00    +0.000 N 
ATOM      8  C   UNL     1       3.707   7.022  17.542  0.00  0.00    +0.000 C 
ATOM      9  C   UNL     1       5.216   6.815  17.415  0.00  0.00    +0.000 C 
ATOM     10  H   UNL     1       2.267   7.932  19.495  0.00  0.00    +0.000 HD
ENDROOT
BRANCH   1  11
ATOM     11  C   UNL     1       5.261   5.511  15.188  0.00  0.00    +0.000 C 
BRANCH  11  14
ATOM     12  C   UNL     1       6.708   3.346  12.433  0.00  0.00    +0.000 C 
ATOM     13  N   UNL     1       5.824   4.010  13.356  0.00  0.00    +0.000 N 
ATOM     14  C   UNL     1       6.318   4.847  14.327  0.00  0.00    +0.000 C 
ATOM     15  O   UNL     1       7.514   5.066  14.488  0.00  0.00    +0.000 OA
ATOM     16  H   UNL     1       4.825   3.926  13.223  0.00  0.00    +0.000 HD
ENDBRANCH  11  14
ENDBRANCH   1  11
BRANCH   7  17
ATOM     17  C   UNL     1       1.398   7.143  21.204  0.00  0.00    +0.000 C 
BRANCH  17  18
ATOM     18  C   UNL     1       0.833   8.512  21.392  0.00  0.00    +0.000 A 
ATOM     19  C   UNL     1       1.082   9.621  20.609  0.00  0.00    +0.000 A 
ATOM     20  N   UNL     1       0.383  10.663  21.165  0.00  0.00    +0.000 N 
ATOM     21  C   UNL     1       0.286  12.014  20.779  0.00  0.00    +0.000 A 
ATOM     22  C   UNL     1       1.015  12.539  19.575  0.00  0.00    +0.000 C 
ATOM     23  C   UNL     1      -0.481  12.833  21.527  0.00  0.00    +0.000 A 
ATOM     24  C   UNL     1      -1.177  12.310  22.690  0.00  0.00    +0.000 A 
ATOM     25  C   UNL     1      -1.075  11.018  23.048  0.00  0.00    +0.000 A 
ATOM     26  C   UNL     1      -0.270  10.129  22.281  0.00  0.00    +0.000 A 
ATOM     27  N   UNL     1      -0.002   8.847  22.436  0.00  0.00    +0.000 NA
ENDBRANCH  17  18
ENDBRANCH   7  17
TORSDOF 4
ENDMDL
MODEL 5
REMARK VINA RESULT:      -7.2      3.489      9.530
REMARK  Name = 
REMARK  6 active torsions:
REMARK  status: ('A' for Active; 'I' for Inactive)
REMARK    1  A    between atoms: C_1  and  N_2
REMARK    2  A    between atoms: C_3  and  C_5
REMARK    3  A    between atoms: C_5  and  C_6
REMARK    4  A    between atoms: N_12  and  C_13
REMARK    5  A    between atoms: C_13  and  C_14
REMARK    6  A    between atoms: C_17  and  C_18
REMARK                            x       y       z     vdW  Elec       q    Type
REMARK                         _______ _______ _______ _____ _____    ______ ____
ROOT
ATOM      1  C   UNL     1      -0.214  11.783  21.798  0.00  0.00    +0.000 C 
ATOM      2  C   UNL     1       0.534  12.438  20.620  0.00  0.00    +0.000 C 
ATOM      3  C   UNL     1       0.290  11.711  19.293  0.00  0.00    +0.000 C 
ATOM      4  N   UNL     1       0.581  10.282  19.415  0.00  0.00    +0.000 N 
ATOM      5  C   UNL     1       1.518   9.730  18.562  0.00  0.00    +0.000 C 
ATOM      6  O   UNL     1       2.075  10.393  17.687  0.00  0.00    +0.000 OA
ATOM      7  N   UNL     1       1.844   8.418  18.761  0.00  0.00    +0.000 N 
ATOM      8  C   UNL     1      -0.154   9.597  20.479  0.00  0.00    +0.000 C 
ATOM      9  C   UNL     1       0.109  10.276  21.824  0.00  0.00    +0.000 C 
ATOM     10  H   UNL     1       1.184   7.791  19.190  0.00  0.00    +0.000 HD
ENDROOT
BRANCH   1  11
ATOM     11  C   UNL     1      -1.719  12.097  21.723  0.00  0.00    +0.000 C 
BRANCH  11  14
ATOM     12  C   UNL     1      -4.195  12.519  24.561  0.00  0.00    +0.000 C 
ATOM     13  N   UNL     1      -3.535  12.127  23.342  0.00  0.00    +0.000 N 
ATOM     14  C   UNL     1      -2.306  12.644  23.008  0.00  0.00    +0.000 C 
ATOM     15  O   UNL     1      -1.710  13.468  23.693  0.00  0.00    +0.000 OA
ATOM     16  H   UNL     1      -3.945  11.395  22.778  0.00  0.00    +0.000 HD
ENDBRANCH  11  14
ENDBRANCH   1  11
BRANCH   7  17
ATOM     17  C   UNL     1       2.784   7.776  17.870  0.00  0.00    +0.000 C 
BRANCH  17  18
ATOM     18  C   UNL     1       2.993   6.346  18.243  0.00  0.00    +0.000 A 
ATOM     19  C   UNL     1       2.031   5.356  18.291  0.00  0.00    +0.000 A 
ATOM     20  N   UNL     1       2.660   4.212  18.712  0.00  0.00    +0.000 N 
ATOM     21  C   UNL     1       2.155   2.917  18.942  0.00  0.00    +0.000 A 
ATOM     22  C   UNL     1       0.704   2.594  18.728  0.00  0.00    +0.000 C 
ATOM     23  C   UNL     1       3.014   1.969  19.367  0.00  0.00    +0.000 A 
ATOM     24  C   UNL     1       4.413   2.300  19.573  0.00  0.00    +0.000 A 
ATOM     25  C   UNL     1       4.883   3.540  19.350  0.00  0.00    +0.000 A 
ATOM     26  C   UNL     1       4.000   4.564  18.904  0.00  0.00    +0.000 A 
ATOM     27  N   UNL     1       4.212   5.839  18.638  0.00  0.00    +0.000 NA
ENDBRANCH  17  18
ENDBRANCH   7  17
TORSDOF 4
ENDMDL
MODEL 6
REMARK VINA RESULT:      -7.2      2.872      4.490
REMARK  Name = 
REMARK  6 active torsions:
REMARK  status: ('A' for Active; 'I' for Inactive)
REMARK    1  A    between atoms: C_1  and  N_2
REMARK    2  A    between atoms: C_3  and  C_5
REMARK    3  A    between atoms: C_5  and  C_6
REMARK    4  A    between atoms: N_12  and  C_13
REMARK    5  A    between atoms: C_13  and  C_14
REMARK    6  A    between atoms: C_17  and  C_18
REMARK                            x       y       z     vdW  Elec       q    Type
REMARK                         _______ _______ _______ _____ _____    ______ ____
ROOT
ATOM      1  C   UNL     1       2.960   3.253  17.187  0.00  0.00    +0.000 C 
ATOM      2  C   UNL     1       4.110   4.191  16.770  0.00  0.00    +0.000 C 
ATOM      3  C   UNL     1       4.359   5.305  17.792  0.00  0.00    +0.000 C 
ATOM      4  N   UNL     1       3.124   6.032  18.090  0.00  0.00    +0.000 N 
ATOM      5  C   UNL     1       3.103   7.398  17.881  0.00  0.00    +0.000 C 
ATOM      6  O   UNL     1       4.097   8.015  17.497  0.00  0.00    +0.000 OA
ATOM      7  N   UNL     1       1.911   8.038  18.071  0.00  0.00    +0.000 N 
ATOM      8  C   UNL     1       2.018   5.194  18.553  0.00  0.00    +0.000 C 
ATOM      9  C   UNL     1       1.718   4.099  17.528  0.00  0.00    +0.000 C 
ATOM     10  H   UNL     1       1.226   7.656  18.701  0.00  0.00    +0.000 HD
ENDROOT
BRANCH   1  11
ATOM     11  C   UNL     1       3.411   2.321  18.326  0.00  0.00    +0.000 C 
BRANCH  11  14
ATOM     12  C   UNL     1       1.780   2.612  21.736  0.00  0.00    +0.000 C 
ATOM     13  N   UNL     1       2.692   2.685  20.623  0.00  0.00    +0.000 N 
ATOM     14  C   UNL     1       2.373   2.117  19.413  0.00  0.00    +0.000 C 
ATOM     15  O   UNL     1       1.330   1.507  19.204  0.00  0.00    +0.000 OA
ATOM     16  H   UNL     1       3.532   3.240  20.715  0.00  0.00    +0.000 HD
ENDBRANCH  11  14
ENDBRANCH   1  11
BRANCH   7  17
ATOM     17  C   UNL     1       1.841   9.473  17.913  0.00  0.00    +0.000 C 
BRANCH  17  18
ATOM     18  C   UNL     1       1.016  10.097  18.989  0.00  0.00    +0.000 A 
ATOM     19  C   UNL     1       0.899   9.664  20.295  0.00  0.00    +0.000 A 
ATOM     20  N   UNL     1       0.017  10.511  20.916  0.00  0.00    +0.000 N 
ATOM     21  C   UNL     1      -0.468  10.525  22.239  0.00  0.00    +0.000 A 
ATOM     22  C   UNL     1      -0.027   9.501  23.245  0.00  0.00    +0.000 C 
ATOM     23  C   UNL     1      -1.349  11.486  22.581  0.00  0.00    +0.000 A 
ATOM     24  C   UNL     1      -1.768  12.467  21.594  0.00  0.00    +0.000 A 
ATOM     25  C   UNL     1      -1.299  12.442  20.334  0.00  0.00    +0.000 A 
ATOM     26  C   UNL     1      -0.370  11.437  19.942  0.00  0.00    +0.000 A 
ATOM     27  N   UNL     1       0.211  11.197  18.782  0.00  0.00    +0.000 NA
ENDBRANCH  17  18
ENDBRANCH   7  17
TORSDOF 4
ENDMDL
MODEL 7
REMARK VINA RESULT:      -7.1      2.849      9.671
REMARK  Name = 
REMARK  6 active torsions:
REMARK  status: ('A' for Active; 'I' for Inactive)
REMARK    1  A    between atoms: C_1  and  N_2
REMARK    2  A    between atoms: C_3  and  C_5
REMARK    3  A    between atoms: C_5  and  C_6
REMARK    4  A    between atoms: N_12  and  C_13
REMARK    5  A    between atoms: C_13  and  C_14
REMARK    6  A    between atoms: C_17  and  C_18
REMARK                            x       y       z     vdW  Elec       q    Type
REMARK                         _______ _______ _______ _____ _____    ______ ____
ROOT
ATOM      1  C   UNL     1      -4.060  10.760  18.069  0.00  0.00    +0.000 C 
ATOM      2  C   UNL     1      -3.211  11.680  18.967  0.00  0.00    +0.000 C 
ATOM      3  C   UNL     1      -1.892  12.093  18.304  0.00  0.00    +0.000 C 
ATOM      4  N   UNL     1      -1.148  10.923  17.838  0.00  0.00    +0.000 N 
ATOM      5  C   UNL     1       0.137  10.736  18.310  0.00  0.00    +0.000 C 
ATOM      6  O   UNL     1       0.679  11.541  19.068  0.00  0.00    +0.000 OA
ATOM      7  N   UNL     1       0.775   9.586  17.939  0.00  0.00    +0.000 N 
ATOM      8  C   UNL     1      -1.890  10.048  16.929  0.00  0.00    +0.000 C 
ATOM      9  C   UNL     1      -3.190   9.584  17.585  0.00  0.00    +0.000 C 
ATOM     10  H   UNL     1       0.525   9.121  17.082  0.00  0.00    +0.000 HD
ENDROOT
BRANCH   1  11
ATOM     11  C   UNL     1      -4.707  11.566  16.929  0.00  0.00    +0.000 C 
BRANCH  11  14
ATOM     12  C   UNL     1      -7.312  14.303  17.233  0.00  0.00    +0.000 C 
ATOM     13  N   UNL     1      -6.104  13.559  16.983  0.00  0.00    +0.000 N 
ATOM     14  C   UNL     1      -6.022  12.223  17.297  0.00  0.00    +0.000 C 
ATOM     15  O   UNL     1      -6.937  11.593  17.817  0.00  0.00    +0.000 OA
ATOM     16  H   UNL     1      -5.346  14.008  16.488  0.00  0.00    +0.000 HD
ENDBRANCH  11  14
ENDBRANCH   1  11
BRANCH   7  17
ATOM     17  C   UNL     1       2.138   9.359  18.364  0.00  0.00    +0.000 C 
BRANCH  17  18
ATOM     18  C   UNL     1       2.556   7.948  18.113  0.00  0.00    +0.000 A 
ATOM     19  C   UNL     1       3.672   7.530  17.417  0.00  0.00    +0.000 A 
ATOM     20  N   UNL     1       3.643   6.158  17.407  0.00  0.00    +0.000 N 
ATOM     21  C   UNL     1       4.527   5.224  16.833  0.00  0.00    +0.000 A 
ATOM     22  C   UNL     1       5.749   5.664  16.079  0.00  0.00    +0.000 C 
ATOM     23  C   UNL     1       4.244   3.914  16.974  0.00  0.00    +0.000 A 
ATOM     24  C   UNL     1       3.056   3.506  17.704  0.00  0.00    +0.000 A 
ATOM     25  C   UNL     1       2.219   4.407  18.246  0.00  0.00    +0.000 A 
ATOM     26  C   UNL     1       2.489   5.799  18.111  0.00  0.00    +0.000 A 
ATOM     27  N   UNL     1       1.823   6.857  18.530  0.00  0.00    +0.000 NA
ENDBRANCH  17  18
ENDBRANCH   7  17
TORSDOF 4
ENDMDL
MODEL 8
REMARK VINA RESULT:      -7.1      2.611      3.051
REMARK  Name = 
REMARK  6 active torsions:
REMARK  status: ('A' for Active; 'I' for Inactive)
REMARK    1  A    between atoms: C_1  and  N_2
REMARK    2  A    between atoms: C_3  and  C_5
REMARK    3  A    between atoms: C_5  and  C_6
REMARK    4  A    between atoms: N_12  and  C_13
REMARK    5  A    between atoms: C_13  and  C_14
REMARK    6  A    between atoms: C_17  and  C_18
REMARK                            x       y       z     vdW  Elec       q    Type
REMARK                         _______ _______ _______ _____ _____    ______ ____
ROOT
ATOM      1  C   UNL     1       1.925   4.974  19.708  0.00  0.00    +0.000 C 
ATOM      2  C   UNL     1       2.234   5.491  18.290  0.00  0.00    +0.000 C 
ATOM      3  C   UNL     1       2.966   6.838  18.302  0.00  0.00    +0.000 C 
ATOM      4  N   UNL     1       2.245   7.821  19.112  0.00  0.00    +0.000 N 
ATOM      5  C   UNL     1       1.858   9.005  18.512  0.00  0.00    +0.000 C 
ATOM      6  O   UNL     1       2.140   9.266  17.342  0.00  0.00    +0.000 OA
ATOM      7  N   UNL     1       1.102   9.863  19.259  0.00  0.00    +0.000 N 
ATOM      8  C   UNL     1       1.983   7.404  20.490  0.00  0.00    +0.000 C 
ATOM      9  C   UNL     1       1.212   6.084  20.505  0.00  0.00    +0.000 C 
ATOM     10  H   UNL     1       1.167   9.853  20.264  0.00  0.00    +0.000 HD
ENDROOT
BRANCH   1  11
ATOM     11  C   UNL     1       3.206   4.449  20.381  0.00  0.00    +0.000 C 
BRANCH  11  14
ATOM     12  C   UNL     1       3.718   1.252  18.409  0.00  0.00    +0.000 C 
ATOM     13  N   UNL     1       3.167   2.315  19.210  0.00  0.00    +0.000 N 
ATOM     14  C   UNL     1       3.940   3.389  19.584  0.00  0.00    +0.000 C 
ATOM     15  O   UNL     1       5.124   3.506  19.290  0.00  0.00    +0.000 OA
ATOM     16  H   UNL     1       2.178   2.309  19.419  0.00  0.00    +0.000 HD
ENDBRANCH  11  14
ENDBRANCH   1  11
BRANCH   7  17
ATOM     17  C   UNL     1       0.709  11.136  18.700  0.00  0.00    +0.000 C 
BRANCH  17  18
ATOM     18  C   UNL     1      -0.777  11.268  18.645  0.00  0.00    +0.000 A 
ATOM     19  C   UNL     1      -1.569  12.027  19.483  0.00  0.00    +0.000 A 
ATOM     20  N   UNL     1      -2.868  11.827  19.090  0.00  0.00    +0.000 N 
ATOM     21  C   UNL     1      -4.074  12.346  19.601  0.00  0.00    +0.000 A 
ATOM     22  C   UNL     1      -4.086  13.291  20.768  0.00  0.00    +0.000 C 
ATOM     23  C   UNL     1      -5.227  11.966  19.014  0.00  0.00    +0.000 A 
ATOM     24  C   UNL     1      -5.196  11.048  17.888  0.00  0.00    +0.000 A 
ATOM     25  C   UNL     1      -4.039  10.559  17.410  0.00  0.00    +0.000 A 
ATOM     26  C   UNL     1      -2.805  10.939  18.011  0.00  0.00    +0.000 A 
ATOM     27  N   UNL     1      -1.563  10.587  17.740  0.00  0.00    +0.000 NA
ENDBRANCH  17  18
ENDBRANCH   7  17
TORSDOF 4
ENDMDL
MODEL 9
REMARK VINA RESULT:      -7.1      2.953      9.624
REMARK  Name = 
REMARK  6 active torsions:
REMARK  status: ('A' for Active; 'I' for Inactive)
REMARK    1  A    between atoms: C_1  and  N_2
REMARK    2  A    between atoms: C_3  and  C_5
REMARK    3  A    between atoms: C_5  and  C_6
REMARK    4  A    between atoms: N_12  and  C_13
REMARK    5  A    between atoms: C_13  and  C_14
REMARK    6  A    between atoms: C_17  and  C_18
REMARK                            x       y       z     vdW  Elec       q    Type
REMARK                         _______ _______ _______ _____ _____    ______ ____
ROOT
ATOM      1  C   UNL     1      -3.991  10.896  18.225  0.00  0.00    +0.000 C 
ATOM      2  C   UNL     1      -3.091  11.733  19.155  0.00  0.00    +0.000 C 
ATOM      3  C   UNL     1      -1.790  12.172  18.475  0.00  0.00    +0.000 C 
ATOM      4  N   UNL     1      -1.086  11.026  17.897  0.00  0.00    +0.000 N 
ATOM      5  C   UNL     1       0.212  10.783  18.306  0.00  0.00    +0.000 C 
ATOM      6  O   UNL     1       0.796  11.521  19.100  0.00  0.00    +0.000 OA
ATOM      7  N   UNL     1       0.813   9.652  17.829  0.00  0.00    +0.000 N 
ATOM      8  C   UNL     1      -1.877  10.233  16.956  0.00  0.00    +0.000 C 
ATOM      9  C   UNL     1      -3.162   9.744  17.625  0.00  0.00    +0.000 C 
ATOM     10  H   UNL     1       0.523   9.256  16.950  0.00  0.00    +0.000 HD
ENDROOT
BRANCH   1  11
ATOM     11  C   UNL     1      -4.663  11.795  17.171  0.00  0.00    +0.000 C 
BRANCH  11  14
ATOM     12  C   UNL     1      -7.499  14.308  17.239  0.00  0.00    +0.000 C 
ATOM     13  N   UNL     1      -6.290  13.588  16.930  0.00  0.00    +0.000 N 
ATOM     14  C   UNL     1      -5.932  12.471  17.647  0.00  0.00    +0.000 C 
ATOM     15  O   UNL     1      -6.586  12.033  18.588  0.00  0.00    +0.000 OA
ATOM     16  H   UNL     1      -5.753  13.859  16.118  0.00  0.00    +0.000 HD
ENDBRANCH  11  14
ENDBRANCH   1  11
BRANCH   7  17
ATOM     17  C   UNL     1       2.185   9.372  18.185  0.00  0.00    +0.000 C 
BRANCH  17  18
ATOM     18  C   UNL     1       2.348   7.961  18.646  0.00  0.00    +0.000 A 
ATOM     19  C   UNL     1       2.871   6.911  17.919  0.00  0.00    +0.000 A 
ATOM     20  N   UNL     1       2.799   5.800  18.720  0.00  0.00    +0.000 N 
ATOM     21  C   UNL     1       3.182   4.466  18.478  0.00  0.00    +0.000 A 
ATOM     22  C   UNL     1       3.787   4.051  17.168  0.00  0.00    +0.000 C 
ATOM     23  C   UNL     1       2.985   3.562  19.460  0.00  0.00    +0.000 A 
ATOM     24  C   UNL     1       2.396   3.980  20.720  0.00  0.00    +0.000 A 
ATOM     25  C   UNL     1       2.033   5.257  20.938  0.00  0.00    +0.000 A 
ATOM     26  C   UNL     1       2.224   6.233  19.920  0.00  0.00    +0.000 A 
ATOM     27  N   UNL     1       1.940   7.521  19.887  0.00  0.00    +0.000 NA
ENDBRANCH  17  18
ENDBRANCH   7  17
TORSDOF 4
ENDMDL
