MODEL 1
REMARK VINA RESULT:      -8.1      0.000      0.000
REMARK  Name = 
REMARK  8 active torsions:
REMARK  status: ('A' for Active; 'I' for Inactive)
REMARK    1  A    between atoms: C_2  and  O_3
REMARK    2  A    between atoms: C_2  and  C_4
REMARK    3  A    between atoms: N_8  and  C_9
REMARK    4  A    between atoms: C_9  and  C_10
REMARK    5  A    between atoms: C_10  and  N_11
REMARK    6  A    between atoms: N_11  and  N_12
REMARK    7  A    between atoms: C_13  and  C_14
REMARK    8  A    between atoms: C_20  and  C_21
REMARK                            x       y       z     vdW  Elec       q    Type
REMARK                         _______ _______ _______ _____ _____    ______ ____
ROOT
ATOM      1  N   UNL     1       1.650   6.644  20.416  0.00  0.00    +0.000 NA
ATOM      2  C   UNL     1       2.642   6.276  19.666  0.00  0.00    +0.000 C 
ENDROOT
BRANCH   2   3
ATOM      3  C   UNL     1       2.652   4.965  18.997  0.00  0.00    +0.000 A 
ATOM      4  C   UNL     1       1.493   4.177  19.122  0.00  0.00    +0.000 A 
ATOM      5  C   UNL     1       1.428   2.955  18.477  0.00  0.00    +0.000 A 
ATOM      6  F   UNL     1       0.322   2.206  18.587  0.00  0.00    +0.000 F 
ATOM      7  C   UNL     1       2.492   2.495  17.720  0.00  0.00    +0.000 A 
ATOM      8  C   UNL     1       3.655   3.268  17.618  0.00  0.00    +0.000 A 
ATOM      9  C   UNL     1       3.780   4.525  18.254  0.00  0.00    +0.000 A 
BRANCH   9  10
ATOM     10  C   UNL     1       5.067   5.274  18.151  0.00  0.00    +0.000 A 
ATOM     11  C   UNL     1       6.117   5.051  19.064  0.00  0.00    +0.000 A 
ATOM     12  C   UNL     1       7.322   5.760  18.991  0.00  0.00    +0.000 A 
ATOM     13  C   UNL     1       7.527   6.686  17.975  0.00  0.00    +0.000 A 
ATOM     14  C   UNL     1       6.515   6.929  17.056  0.00  0.00    +0.000 A 
ATOM     15  C   UNL     1       5.292   6.257  17.167  0.00  0.00    +0.000 A 
ENDBRANCH   9  10
ENDBRANCH   2   3
BRANCH   1  16
ATOM     16  N   UNL     1       1.852   7.805  21.081  0.00  0.00    +0.000 N 
ATOM     17  H   UNL     1       2.828   8.099  21.131  0.00  0.00    +0.000 HD
BRANCH  16  18
ATOM     18  C   UNL     1       1.025   8.946  20.685  0.00  0.00    +0.000 C 
BRANCH  18  19
ATOM     19  C   UNL     1       1.368   9.507  19.289  0.00  0.00    +0.000 C 
BRANCH  19  24
ATOM     20  C   UNL     1      -1.921  11.361  18.988  0.00  0.00    +0.000 C 
ATOM     21  C   UNL     1      -1.432  12.807  19.098  0.00  0.00    +0.000 C 
ATOM     22  C   UNL     1      -0.025  12.972  18.533  0.00  0.00    +0.000 C 
ATOM     23  C   UNL     1       0.936  11.910  19.070  0.00  0.00    +0.000 C 
ATOM     24  N   UNL     1       0.412  10.549  18.825  0.00  0.00    +0.000 NA
ATOM     25  C   UNL     1      -0.882  10.377  19.532  0.00  0.00    +0.000 C 
BRANCH  20  27
ATOM     26  O   UNL     1      -3.298  11.579  17.018  0.00  0.00    +0.000 OA
ATOM     27  C   UNL     1      -2.338  11.048  17.560  0.00  0.00    +0.000 C 
BRANCH  27  28
ATOM     28  O   UNL     1      -1.537  10.177  16.901  0.00  0.00    +0.000 OA
ATOM     29  H   UNL     1      -0.850  10.645  16.365  0.00  0.00    +0.000 HD
ENDBRANCH  27  28
ENDBRANCH  20  27
ENDBRANCH  19  24
ENDBRANCH  18  19
ENDBRANCH  16  18
ENDBRANCH   1  16
TORSDOF 8
ENDMDL
MODEL 2
REMARK VINA RESULT:      -8.1      2.285      2.624
REMARK  Name = 
REMARK  8 active torsions:
REMARK  status: ('A' for Active; 'I' for Inactive)
REMARK    1  A    between atoms: C_2  and  O_3
REMARK    2  A    between atoms: C_2  and  C_4
REMARK    3  A    between atoms: N_8  and  C_9
REMARK    4  A    between atoms: C_9  and  C_10
REMARK    5  A    between atoms: C_10  and  N_11
REMARK    6  A    between atoms: N_11  and  N_12
REMARK    7  A    between atoms: C_13  and  C_14
REMARK    8  A    between atoms: C_20  and  C_21
REMARK                            x       y       z     vdW  Elec       q    Type
REMARK                         _______ _______ _______ _____ _____    ______ ____
ROOT
ATOM      1  N   UNL     1       1.689   6.570  20.375  0.00  0.00    +0.000 NA
ATOM      2  C   UNL     1       2.615   6.251  19.524  0.00  0.00    +0.000 C 
ENDROOT
BRANCH   2   3
ATOM      3  C   UNL     1       2.666   4.913  18.913  0.00  0.00    +0.000 A 
ATOM      4  C   UNL     1       1.511   4.117  19.023  0.00  0.00    +0.000 A 
ATOM      5  C   UNL     1       1.486   2.868  18.429  0.00  0.00    +0.000 A 
ATOM      6  F   UNL     1       0.384   2.112  18.524  0.00  0.00    +0.000 F 
ATOM      7  C   UNL     1       2.586   2.390  17.738  0.00  0.00    +0.000 A 
ATOM      8  C   UNL     1       3.744   3.171  17.652  0.00  0.00    +0.000 A 
ATOM      9  C   UNL     1       3.829   4.456  18.238  0.00  0.00    +0.000 A 
BRANCH   9  10
ATOM     10  C   UNL     1       5.112   5.215  18.157  0.00  0.00    +0.000 A 
ATOM     11  C   UNL     1       6.133   5.028  19.110  0.00  0.00    +0.000 A 
ATOM     12  C   UNL     1       7.333   5.747  19.057  0.00  0.00    +0.000 A 
ATOM     13  C   UNL     1       7.563   6.648  18.024  0.00  0.00    +0.000 A 
ATOM     14  C   UNL     1       6.579   6.856  17.065  0.00  0.00    +0.000 A 
ATOM     15  C   UNL     1       5.360   6.174  17.154  0.00  0.00    +0.000 A 
ENDBRANCH   9  10
ENDBRANCH   2   3
BRANCH   1  16
ATOM     16  N   UNL     1       1.860   7.776  20.962  0.00  0.00    +0.000 N 
ATOM     17  H   UNL     1       2.454   8.421  20.439  0.00  0.00    +0.000 HD
BRANCH  16  18
ATOM     18  C   UNL     1       0.651   8.479  21.395  0.00  0.00    +0.000 C 
BRANCH  18  19
ATOM     19  C   UNL     1       0.889   9.468  22.554  0.00  0.00    +0.000 C 
BRANCH  19  24
ATOM     20  C   UNL     1      -0.832  12.344  20.789  0.00  0.00    +0.000 C 
ATOM     21  C   UNL     1      -2.126  12.429  21.600  0.00  0.00    +0.000 C 
ATOM     22  C   UNL     1      -1.914  12.002  23.049  0.00  0.00    +0.000 C 
ATOM     23  C   UNL     1      -1.160  10.675  23.150  0.00  0.00    +0.000 C 
ATOM     24  N   UNL     1       0.119  10.735  22.412  0.00  0.00    +0.000 NA
ATOM     25  C   UNL     1      -0.146  10.988  20.973  0.00  0.00    +0.000 C 
BRANCH  20  27
ATOM     26  O   UNL     1      -0.288  14.680  21.048  0.00  0.00    +0.000 OA
ATOM     27  C   UNL     1       0.080  13.515  21.116  0.00  0.00    +0.000 C 
BRANCH  27  28
ATOM     28  O   UNL     1       1.319  13.181  21.546  0.00  0.00    +0.000 OA
ATOM     29  H   UNL     1       1.502  12.217  21.426  0.00  0.00    +0.000 HD
ENDBRANCH  27  28
ENDBRANCH  20  27
ENDBRANCH  19  24
ENDBRANCH  18  19
ENDBRANCH  16  18
ENDBRANCH   1  16
TORSDOF 8
ENDMDL
MODEL 3
REMARK VINA RESULT:      -8.1      4.505      7.119
REMARK  Name = 
REMARK  8 active torsions:
REMARK  status: ('A' for Active; 'I' for Inactive)
REMARK    1  A    between atoms: C_2  and  O_3
REMARK    2  A    between atoms: C_2  and  C_4
REMARK    3  A    between atoms: N_8  and  C_9
REMARK    4  A    between atoms: C_9  and  C_10
REMARK    5  A    between atoms: C_10  and  N_11
REMARK    6  A    between atoms: N_11  and  N_12
REMARK    7  A    between atoms: C_13  and  C_14
REMARK    8  A    between atoms: C_20  and  C_21
REMARK                            x       y       z     vdW  Elec       q    Type
REMARK                         _______ _______ _______ _____ _____    ______ ____
ROOT
ATOM      1  N   UNL     1       6.317   4.652  19.739  0.00  0.00    +0.000 NA
ATOM      2  C   UNL     1       5.154   5.139  19.431  0.00  0.00    +0.000 C 
ENDROOT
BRANCH   2   3
ATOM      3  C   UNL     1       4.038   4.266  19.036  0.00  0.00    +0.000 A 
ATOM      4  C   UNL     1       4.336   2.907  18.824  0.00  0.00    +0.000 A 
ATOM      5  C   UNL     1       3.318   2.030  18.495  0.00  0.00    +0.000 A 
ATOM      6  F   UNL     1       3.596   0.734  18.303  0.00  0.00    +0.000 F 
ATOM      7  C   UNL     1       2.013   2.476  18.362  0.00  0.00    +0.000 A 
ATOM      8  C   UNL     1       1.723   3.833  18.546  0.00  0.00    +0.000 A 
ATOM      9  C   UNL     1       2.722   4.776  18.884  0.00  0.00    +0.000 A 
BRANCH   9  10
ATOM     10  C   UNL     1       2.354   6.217  19.012  0.00  0.00    +0.000 A 
ATOM     11  C   UNL     1       1.922   6.755  20.240  0.00  0.00    +0.000 A 
ATOM     12  C   UNL     1       1.555   8.100  20.370  0.00  0.00    +0.000 A 
ATOM     13  C   UNL     1       1.649   8.958  19.280  0.00  0.00    +0.000 A 
ATOM     14  C   UNL     1       2.075   8.462  18.054  0.00  0.00    +0.000 A 
ATOM     15  C   UNL     1       2.388   7.105  17.917  0.00  0.00    +0.000 A 
ENDBRANCH   9  10
ENDBRANCH   2   3
BRANCH   1  16
ATOM     16  N   UNL     1       7.280   5.582  19.932  0.00  0.00    +0.000 N 
ATOM     17  H   UNL     1       8.212   5.199  20.097  0.00  0.00    +0.000 HD
BRANCH  16  18
ATOM     18  C   UNL     1       7.369   6.658  18.943  0.00  0.00    +0.000 C 
BRANCH  18  19
ATOM     19  C   UNL     1       8.127   6.260  17.660  0.00  0.00    +0.000 C 
BRANCH  19  24
ATOM     20  C   UNL     1       6.261   4.177  15.106  0.00  0.00    +0.000 C 
ATOM     21  C   UNL     1       4.886   4.846  15.157  0.00  0.00    +0.000 C 
ATOM     22  C   UNL     1       4.992   6.329  15.495  0.00  0.00    +0.000 C 
ATOM     23  C   UNL     1       5.890   6.578  16.707  0.00  0.00    +0.000 C 
ATOM     24  N   UNL     1       7.225   5.972  16.511  0.00  0.00    +0.000 NA
ATOM     25  C   UNL     1       7.087   4.503  16.353  0.00  0.00    +0.000 C 
BRANCH  20  27
ATOM     26  O   UNL     1       6.716   4.002  12.743  0.00  0.00    +0.000 OA
ATOM     27  C   UNL     1       6.978   4.532  13.814  0.00  0.00    +0.000 C 
BRANCH  27  28
ATOM     28  O   UNL     1       7.893   5.524  13.914  0.00  0.00    +0.000 OA
ATOM     29  H   UNL     1       7.477   6.418  13.828  0.00  0.00    +0.000 HD
ENDBRANCH  27  28
ENDBRANCH  20  27
ENDBRANCH  19  24
ENDBRANCH  18  19
ENDBRANCH  16  18
ENDBRANCH   1  16
TORSDOF 8
ENDMDL
MODEL 4
REMARK VINA RESULT:      -8.0      1.367      1.612
REMARK  Name = 
REMARK  8 active torsions:
REMARK  status: ('A' for Active; 'I' for Inactive)
REMARK    1  A    between atoms: C_2  and  O_3
REMARK    2  A    between atoms: C_2  and  C_4
REMARK    3  A    between atoms: N_8  and  C_9
REMARK    4  A    between atoms: C_9  and  C_10
REMARK    5  A    between atoms: C_10  and  N_11
REMARK    6  A    between atoms: N_11  and  N_12
REMARK    7  A    between atoms: C_13  and  C_14
REMARK    8  A    between atoms: C_20  and  C_21
REMARK                            x       y       z     vdW  Elec       q    Type
REMARK                         _______ _______ _______ _____ _____    ______ ____
ROOT
ATOM      1  N   UNL     1       1.808   6.392  20.575  0.00  0.00    +0.000 NA
ATOM      2  C   UNL     1       2.484   6.176  19.489  0.00  0.00    +0.000 C 
ENDROOT
BRANCH   2   3
ATOM      3  C   UNL     1       2.569   4.833  18.893  0.00  0.00    +0.000 A 
ATOM      4  C   UNL     1       1.433   4.010  19.011  0.00  0.00    +0.000 A 
ATOM      5  C   UNL     1       1.439   2.755  18.431  0.00  0.00    +0.000 A 
ATOM      6  F   UNL     1       0.355   1.973  18.533  0.00  0.00    +0.000 F 
ATOM      7  C   UNL     1       2.551   2.296  17.744  0.00  0.00    +0.000 A 
ATOM      8  C   UNL     1       3.689   3.104  17.651  0.00  0.00    +0.000 A 
ATOM      9  C   UNL     1       3.743   4.397  18.223  0.00  0.00    +0.000 A 
BRANCH   9  10
ATOM     10  C   UNL     1       5.007   5.185  18.134  0.00  0.00    +0.000 A 
ATOM     11  C   UNL     1       6.053   4.994  19.058  0.00  0.00    +0.000 A 
ATOM     12  C   UNL     1       7.236   5.741  18.999  0.00  0.00    +0.000 A 
ATOM     13  C   UNL     1       7.423   6.675  17.986  0.00  0.00    +0.000 A 
ATOM     14  C   UNL     1       6.413   6.887  17.057  0.00  0.00    +0.000 A 
ATOM     15  C   UNL     1       5.211   6.177  17.154  0.00  0.00    +0.000 A 
ENDBRANCH   9  10
ENDBRANCH   2   3
BRANCH   1  16
ATOM     16  N   UNL     1       1.948   7.637  21.083  0.00  0.00    +0.000 N 
ATOM     17  H   UNL     1       2.817   8.105  20.823  0.00  0.00    +0.000 HD
BRANCH  16  18
ATOM     18  C   UNL     1       0.828   8.560  20.891  0.00  0.00    +0.000 C 
BRANCH  18  19
ATOM     19  C   UNL     1       0.948   9.425  19.619  0.00  0.00    +0.000 C 
BRANCH  19  24
ATOM     20  C   UNL     1      -1.181  12.400  18.638  0.00  0.00    +0.000 C 
ATOM     21  C   UNL     1      -1.934  12.643  19.947  0.00  0.00    +0.000 C 
ATOM     22  C   UNL     1      -1.100  12.245  21.161  0.00  0.00    +0.000 C 
ATOM     23  C   UNL     1      -0.487  10.853  21.002  0.00  0.00    +0.000 C 
ATOM     24  N   UNL     1       0.297  10.758  19.753  0.00  0.00    +0.000 NA
ATOM     25  C   UNL     1      -0.591  10.989  18.586  0.00  0.00    +0.000 C 
BRANCH  20  27
ATOM     26  O   UNL     1      -0.351  14.666  18.646  0.00  0.00    +0.000 OA
ATOM     27  C   UNL     1      -0.138  13.484  18.415  0.00  0.00    +0.000 C 
BRANCH  27  28
ATOM     28  O   UNL     1       1.071  13.045  17.994  0.00  0.00    +0.000 OA
ATOM     29  H   UNL     1       1.456  13.637  17.301  0.00  0.00    +0.000 HD
ENDBRANCH  27  28
ENDBRANCH  20  27
ENDBRANCH  19  24
ENDBRANCH  18  19
ENDBRANCH  16  18
ENDBRANCH   1  16
TORSDOF 8
ENDMDL
MODEL 5
REMARK VINA RESULT:      -7.9      1.323      1.919
REMARK  Name = 
REMARK  8 active torsions:
REMARK  status: ('A' for Active; 'I' for Inactive)
REMARK    1  A    between atoms: C_2  and  O_3
REMARK    2  A    between atoms: C_2  and  C_4
REMARK    3  A    between atoms: N_8  and  C_9
REMARK    4  A    between atoms: C_9  and  C_10
REMARK    5  A    between atoms: C_10  and  N_11
REMARK    6  A    between atoms: N_11  and  N_12
REMARK    7  A    between atoms: C_13  and  C_14
REMARK    8  A    between atoms: C_20  and  C_21
REMARK                            x       y       z     vdW  Elec       q    Type
REMARK                         _______ _______ _______ _____ _____    ______ ____
ROOT
ATOM      1  N   UNL     1       1.717   6.636  20.474  0.00  0.00    +0.000 NA
ATOM      2  C   UNL     1       2.597   6.332  19.571  0.00  0.00    +0.000 C 
ENDROOT
BRANCH   2   3
ATOM      3  C   UNL     1       2.627   4.999  18.948  0.00  0.00    +0.000 A 
ATOM      4  C   UNL     1       1.467   4.212  19.069  0.00  0.00    +0.000 A 
ATOM      5  C   UNL     1       1.421   2.969  18.464  0.00  0.00    +0.000 A 
ATOM      6  F   UNL     1       0.314   2.222  18.569  0.00  0.00    +0.000 F 
ATOM      7  C   UNL     1       2.507   2.487  17.752  0.00  0.00    +0.000 A 
ATOM      8  C   UNL     1       3.670   3.259  17.656  0.00  0.00    +0.000 A 
ATOM      9  C   UNL     1       3.775   4.537  18.251  0.00  0.00    +0.000 A 
BRANCH   9  10
ATOM     10  C   UNL     1       5.064   5.285  18.158  0.00  0.00    +0.000 A 
ATOM     11  C   UNL     1       5.285   6.235  17.141  0.00  0.00    +0.000 A 
ATOM     12  C   UNL     1       6.496   6.929  17.029  0.00  0.00    +0.000 A 
ATOM     13  C   UNL     1       7.509   6.721  17.958  0.00  0.00    +0.000 A 
ATOM     14  C   UNL     1       7.324   5.793  18.975  0.00  0.00    +0.000 A 
ATOM     15  C   UNL     1       6.133   5.063  19.049  0.00  0.00    +0.000 A 
ENDBRANCH   9  10
ENDBRANCH   2   3
BRANCH   1  16
ATOM     16  N   UNL     1       1.909   7.839  21.061  0.00  0.00    +0.000 N 
ATOM     17  H   UNL     1       2.503   8.478  20.530  0.00  0.00    +0.000 HD
BRANCH  16  18
ATOM     18  C   UNL     1       0.713   8.554  21.510  0.00  0.00    +0.000 C 
BRANCH  18  19
ATOM     19  C   UNL     1       0.796  10.083  21.321  0.00  0.00    +0.000 C 
BRANCH  19  24
ATOM     20  C   UNL     1      -1.346  12.702  19.619  0.00  0.00    +0.000 C 
ATOM     21  C   UNL     1      -1.432  12.112  18.209  0.00  0.00    +0.000 C 
ATOM     22  C   UNL     1      -1.374  10.588  18.230  0.00  0.00    +0.000 C 
ATOM     23  C   UNL     1      -0.220  10.071  19.091  0.00  0.00    +0.000 C 
ATOM     24  N   UNL     1      -0.288  10.627  20.458  0.00  0.00    +0.000 NA
ATOM     25  C   UNL     1      -0.173  12.106  20.402  0.00  0.00    +0.000 C 
BRANCH  20  27
ATOM     26  O   UNL     1      -3.753  12.609  19.765  0.00  0.00    +0.000 OA
ATOM     27  C   UNL     1      -2.675  12.551  20.341  0.00  0.00    +0.000 C 
BRANCH  27  28
ATOM     28  O   UNL     1      -2.587  12.288  21.666  0.00  0.00    +0.000 OA
ATOM     29  H   UNL     1      -3.351  11.746  21.984  0.00  0.00    +0.000 HD
ENDBRANCH  27  28
ENDBRANCH  20  27
ENDBRANCH  19  24
ENDBRANCH  18  19
ENDBRANCH  16  18
ENDBRANCH   1  16
TORSDOF 8
ENDMDL
MODEL 6
REMARK VINA RESULT:      -7.9      0.389      1.112
REMARK  Name = 
REMARK  8 active torsions:
REMARK  status: ('A' for Active; 'I' for Inactive)
REMARK    1  A    between atoms: C_2  and  O_3
REMARK    2  A    between atoms: C_2  and  C_4
REMARK    3  A    between atoms: N_8  and  C_9
REMARK    4  A    between atoms: C_9  and  C_10
REMARK    5  A    between atoms: C_10  and  N_11
REMARK    6  A    between atoms: N_11  and  N_12
REMARK    7  A    between atoms: C_13  and  C_14
REMARK    8  A    between atoms: C_20  and  C_21
REMARK                            x       y       z     vdW  Elec       q    Type
REMARK                         _______ _______ _______ _____ _____    ______ ____
ROOT
ATOM      1  N   UNL     1       1.561   6.660  20.389  0.00  0.00    +0.000 NA
ATOM      2  C   UNL     1       2.645   6.174  19.867  0.00  0.00    +0.000 C 
ENDROOT
BRANCH   2   3
ATOM      3  C   UNL     1       2.626   4.931  19.080  0.00  0.00    +0.000 A 
ATOM      4  C   UNL     1       1.467   4.138  19.169  0.00  0.00    +0.000 A 
ATOM      5  C   UNL     1       1.375   2.981  18.417  0.00  0.00    +0.000 A 
ATOM      6  F   UNL     1       0.268   2.229  18.491  0.00  0.00    +0.000 F 
ATOM      7  C   UNL     1       2.412   2.590  17.587  0.00  0.00    +0.000 A 
ATOM      8  C   UNL     1       3.575   3.365  17.520  0.00  0.00    +0.000 A 
ATOM      9  C   UNL     1       3.727   4.558  18.265  0.00  0.00    +0.000 A 
BRANCH   9  10
ATOM     10  C   UNL     1       5.015   5.309  18.191  0.00  0.00    +0.000 A 
ATOM     11  C   UNL     1       5.228   6.299  17.212  0.00  0.00    +0.000 A 
ATOM     12  C   UNL     1       6.439   6.997  17.118  0.00  0.00    +0.000 A 
ATOM     13  C   UNL     1       7.459   6.752  18.029  0.00  0.00    +0.000 A 
ATOM     14  C   UNL     1       7.282   5.784  19.010  0.00  0.00    +0.000 A 
ATOM     15  C   UNL     1       6.091   5.051  19.064  0.00  0.00    +0.000 A 
ENDBRANCH   9  10
ENDBRANCH   2   3
BRANCH   1  16
ATOM     16  N   UNL     1       1.759   7.719  21.207  0.00  0.00    +0.000 N 
ATOM     17  H   UNL     1       2.722   7.829  21.530  0.00  0.00    +0.000 HD
BRANCH  16  18
ATOM     18  C   UNL     1       1.254   9.013  20.748  0.00  0.00    +0.000 C 
BRANCH  18  19
ATOM     19  C   UNL     1       1.441   9.251  19.235  0.00  0.00    +0.000 C 
BRANCH  19  24
ATOM     20  C   UNL     1      -1.850  11.019  18.608  0.00  0.00    +0.000 C 
ATOM     21  C   UNL     1      -1.417  12.476  18.781  0.00  0.00    +0.000 C 
ATOM     22  C   UNL     1       0.036  12.686  18.368  0.00  0.00    +0.000 C 
ATOM     23  C   UNL     1       0.966  11.644  18.993  0.00  0.00    +0.000 C 
ATOM     24  N   UNL     1       0.509  10.273  18.683  0.00  0.00    +0.000 NA
ATOM     25  C   UNL     1      -0.846  10.057  19.249  0.00  0.00    +0.000 C 
BRANCH  20  27
ATOM     26  O   UNL     1      -2.213   9.570  16.713  0.00  0.00    +0.000 OA
ATOM     27  C   UNL     1      -2.107  10.711  17.142  0.00  0.00    +0.000 C 
BRANCH  27  28
ATOM     28  O   UNL     1      -2.270  11.791  16.343  0.00  0.00    +0.000 OA
ATOM     29  H   UNL     1      -2.506  11.532  15.418  0.00  0.00    +0.000 HD
ENDBRANCH  27  28
ENDBRANCH  20  27
ENDBRANCH  19  24
ENDBRANCH  18  19
ENDBRANCH  16  18
ENDBRANCH   1  16
TORSDOF 8
ENDMDL
MODEL 7
REMARK VINA RESULT:      -7.9      2.166      2.619
REMARK  Name = 
REMARK  8 active torsions:
REMARK  status: ('A' for Active; 'I' for Inactive)
REMARK    1  A    between atoms: C_2  and  O_3
REMARK    2  A    between atoms: C_2  and  C_4
REMARK    3  A    between atoms: N_8  and  C_9
REMARK    4  A    between atoms: C_9  and  C_10
REMARK    5  A    between atoms: C_10  and  N_11
REMARK    6  A    between atoms: N_11  and  N_12
REMARK    7  A    between atoms: C_13  and  C_14
REMARK    8  A    between atoms: C_20  and  C_21
REMARK                            x       y       z     vdW  Elec       q    Type
REMARK                         _______ _______ _______ _____ _____    ______ ____
ROOT
ATOM      1  N   UNL     1       1.666   6.479  20.548  0.00  0.00    +0.000 NA
ATOM      2  C   UNL     1       2.567   6.208  19.654  0.00  0.00    +0.000 C 
ENDROOT
BRANCH   2   3
ATOM      3  C   UNL     1       2.599   4.906  18.969  0.00  0.00    +0.000 A 
ATOM      4  C   UNL     1       1.467   4.082  19.111  0.00  0.00    +0.000 A 
ATOM      5  C   UNL     1       1.422   2.867  18.453  0.00  0.00    +0.000 A 
ATOM      6  F   UNL     1       0.341   2.085  18.579  0.00  0.00    +0.000 F 
ATOM      7  C   UNL     1       2.481   2.447  17.665  0.00  0.00    +0.000 A 
ATOM      8  C   UNL     1       3.618   3.255  17.546  0.00  0.00    +0.000 A 
ATOM      9  C   UNL     1       3.721   4.508  18.195  0.00  0.00    +0.000 A 
BRANCH   9  10
ATOM     10  C   UNL     1       4.983   5.295  18.071  0.00  0.00    +0.000 A 
ATOM     11  C   UNL     1       5.148   6.256  17.054  0.00  0.00    +0.000 A 
ATOM     12  C   UNL     1       6.334   6.988  16.914  0.00  0.00    +0.000 A 
ATOM     13  C   UNL     1       7.377   6.806  17.814  0.00  0.00    +0.000 A 
ATOM     14  C   UNL     1       7.248   5.868  18.831  0.00  0.00    +0.000 A 
ATOM     15  C   UNL     1       6.082   5.101  18.933  0.00  0.00    +0.000 A 
ENDBRANCH   9  10
ENDBRANCH   2   3
BRANCH   1  16
ATOM     16  N   UNL     1       1.856   7.651  21.195  0.00  0.00    +0.000 N 
ATOM     17  H   UNL     1       2.662   8.188  20.871  0.00  0.00    +0.000 HD
BRANCH  16  18
ATOM     18  C   UNL     1       0.698   8.540  21.307  0.00  0.00    +0.000 C 
BRANCH  18  19
ATOM     19  C   UNL     1       0.744   9.744  20.343  0.00  0.00    +0.000 C 
BRANCH  19  24
ATOM     20  C   UNL     1      -0.500  13.086  21.618  0.00  0.00    +0.000 C 
ATOM     21  C   UNL     1      -1.503  13.443  20.519  0.00  0.00    +0.000 C 
ATOM     22  C   UNL     1      -2.137  12.199  19.907  0.00  0.00    +0.000 C 
ATOM     23  C   UNL     1      -1.090  11.150  19.528  0.00  0.00    +0.000 C 
ATOM     24  N   UNL     1      -0.239  10.807  20.686  0.00  0.00    +0.000 NA
ATOM     25  C   UNL     1       0.488  12.017  21.146  0.00  0.00    +0.000 C 
BRANCH  20  27
ATOM     26  O   UNL     1      -1.997  13.446  23.477  0.00  0.00    +0.000 OA
ATOM     27  C   UNL     1      -1.227  12.694  22.895  0.00  0.00    +0.000 C 
BRANCH  27  28
ATOM     28  O   UNL     1      -1.010  11.427  23.318  0.00  0.00    +0.000 OA
ATOM     29  H   UNL     1      -0.139  11.079  23.004  0.00  0.00    +0.000 HD
ENDBRANCH  27  28
ENDBRANCH  20  27
ENDBRANCH  19  24
ENDBRANCH  18  19
ENDBRANCH  16  18
ENDBRANCH   1  16
TORSDOF 8
ENDMDL
MODEL 8
REMARK VINA RESULT:      -7.8      2.504      2.815
REMARK  Name = 
REMARK  8 active torsions:
REMARK  status: ('A' for Active; 'I' for Inactive)
REMARK    1  A    between atoms: C_2  and  O_3
REMARK    2  A    between atoms: C_2  and  C_4
REMARK    3  A    between atoms: N_8  and  C_9
REMARK    4  A    between atoms: C_9  and  C_10
REMARK    5  A    between atoms: C_10  and  N_11
REMARK    6  A    between atoms: N_11  and  N_12
REMARK    7  A    between atoms: C_13  and  C_14
REMARK    8  A    between atoms: C_20  and  C_21
REMARK                            x       y       z     vdW  Elec       q    Type
REMARK                         _______ _______ _______ _____ _____    ______ ____
ROOT
ATOM      1  N   UNL     1       2.491   6.983  17.993  0.00  0.00    +0.000 NA
ATOM      2  C   UNL     1       3.195   6.354  18.883  0.00  0.00    +0.000 C 
ENDROOT
BRANCH   2   3
ATOM      3  C   UNL     1       2.982   4.924  19.158  0.00  0.00    +0.000 A 
ATOM      4  C   UNL     1       1.971   4.596  20.079  0.00  0.00    +0.000 A 
ATOM      5  C   UNL     1       1.695   3.266  20.343  0.00  0.00    +0.000 A 
ATOM      6  F   UNL     1       0.726   2.950  21.213  0.00  0.00    +0.000 F 
ATOM      7  C   UNL     1       2.409   2.257  19.719  0.00  0.00    +0.000 A 
ATOM      8  C   UNL     1       3.432   2.585  18.823  0.00  0.00    +0.000 A 
ATOM      9  C   UNL     1       3.759   3.926  18.512  0.00  0.00    +0.000 A 
BRANCH   9  10
ATOM     10  C   UNL     1       4.899   4.208  17.590  0.00  0.00    +0.000 A 
ATOM     11  C   UNL     1       6.183   4.507  18.086  0.00  0.00    +0.000 A 
ATOM     12  C   UNL     1       7.256   4.793  17.233  0.00  0.00    +0.000 A 
ATOM     13  C   UNL     1       7.084   4.748  15.854  0.00  0.00    +0.000 A 
ATOM     14  C   UNL     1       5.831   4.454  15.331  0.00  0.00    +0.000 A 
ATOM     15  C   UNL     1       4.750   4.223  16.189  0.00  0.00    +0.000 A 
ENDBRANCH   9  10
ENDBRANCH   2   3
BRANCH   1  16
ATOM     16  N   UNL     1       2.695   8.320  17.960  0.00  0.00    +0.000 N 
ATOM     17  H   UNL     1       3.073   8.668  17.078  0.00  0.00    +0.000 HD
BRANCH  16  18
ATOM     18  C   UNL     1       1.578   9.170  18.376  0.00  0.00    +0.000 C 
BRANCH  18  19
ATOM     19  C   UNL     1       1.287   9.117  19.890  0.00  0.00    +0.000 C 
BRANCH  19  24
ATOM     20  C   UNL     1      -0.191  12.178  21.559  0.00  0.00    +0.000 C 
ATOM     21  C   UNL     1      -1.140  12.659  20.459  0.00  0.00    +0.000 C 
ATOM     22  C   UNL     1      -1.675  11.499  19.627  0.00  0.00    +0.000 C 
ATOM     23  C   UNL     1      -0.558  10.560  19.168  0.00  0.00    +0.000 C 
ATOM     24  N   UNL     1       0.235  10.078  20.319  0.00  0.00    +0.000 NA
ATOM     25  C   UNL     1       0.874  11.231  21.002  0.00  0.00    +0.000 C 
BRANCH  20  27
ATOM     26  O   UNL     1      -2.101  11.944  23.016  0.00  0.00    +0.000 OA
ATOM     27  C   UNL     1      -0.977  11.570  22.710  0.00  0.00    +0.000 C 
BRANCH  27  28
ATOM     28  O   UNL     1      -0.370  10.540  23.345  0.00  0.00    +0.000 OA
ATOM     29  H   UNL     1       0.522  10.795  23.689  0.00  0.00    +0.000 HD
ENDBRANCH  27  28
ENDBRANCH  20  27
ENDBRANCH  19  24
ENDBRANCH  18  19
ENDBRANCH  16  18
ENDBRANCH   1  16
TORSDOF 8
ENDMDL
MODEL 9
REMARK VINA RESULT:      -7.7      2.503      3.145
REMARK  Name = 
REMARK  8 active torsions:
REMARK  status: ('A' for Active; 'I' for Inactive)
REMARK    1  A    between atoms: C_2  and  O_3
REMARK    2  A    between atoms: C_2  and  C_4
REMARK    3  A    between atoms: N_8  and  C_9
REMARK    4  A    between atoms: C_9  and  C_10
REMARK    5  A    between atoms: C_10  and  N_11
REMARK    6  A    between atoms: N_11  and  N_12
REMARK    7  A    between atoms: C_13  and  C_14
REMARK    8  A    between atoms: C_20  and  C_21
REMARK                            x       y       z     vdW  Elec       q    Type
REMARK                         _______ _______ _______ _____ _____    ______ ____
ROOT
ATOM      1  N   UNL     1       2.578   7.091  18.572  0.00  0.00    +0.000 NA
ATOM      2  C   UNL     1       2.442   5.871  18.153  0.00  0.00    +0.000 C 
ENDROOT
BRANCH   2   3
ATOM      3  C   UNL     1       2.722   4.723  19.031  0.00  0.00    +0.000 A 
ATOM      4  C   UNL     1       1.782   4.450  20.042  0.00  0.00    +0.000 A 
ATOM      5  C   UNL     1       1.969   3.357  20.868  0.00  0.00    +0.000 A 
ATOM      6  F   UNL     1       1.071   3.089  21.826  0.00  0.00    +0.000 F 
ATOM      7  C   UNL     1       3.075   2.536  20.719  0.00  0.00    +0.000 A 
ATOM      8  C   UNL     1       4.023   2.825  19.731  0.00  0.00    +0.000 A 
ATOM      9  C   UNL     1       3.885   3.928  18.856  0.00  0.00    +0.000 A 
BRANCH   9  10
ATOM     10  C   UNL     1       4.960   4.212  17.860  0.00  0.00    +0.000 A 
ATOM     11  C   UNL     1       4.836   3.807  16.516  0.00  0.00    +0.000 A 
ATOM     12  C   UNL     1       5.846   4.049  15.576  0.00  0.00    +0.000 A 
ATOM     13  C   UNL     1       6.994   4.740  15.946  0.00  0.00    +0.000 A 
ATOM     14  C   UNL     1       7.148   5.156  17.262  0.00  0.00    +0.000 A 
ATOM     15  C   UNL     1       6.160   4.863  18.210  0.00  0.00    +0.000 A 
ENDBRANCH   9  10
ENDBRANCH   2   3
BRANCH   1  16
ATOM     16  N   UNL     1       2.433   8.032  17.611  0.00  0.00    +0.000 N 
ATOM     17  H   UNL     1       1.766   7.788  16.878  0.00  0.00    +0.000 HD
BRANCH  16  18
ATOM     18  C   UNL     1       2.176   9.401  18.060  0.00  0.00    +0.000 C 
BRANCH  18  19
ATOM     19  C   UNL     1       0.713   9.652  18.482  0.00  0.00    +0.000 C 
BRANCH  19  24
ATOM     20  C   UNL     1      -0.867  11.422  21.434  0.00  0.00    +0.000 C 
ATOM     21  C   UNL     1      -0.607  10.398  22.541  0.00  0.00    +0.000 C 
ATOM     22  C   UNL     1       0.677   9.612  22.293  0.00  0.00    +0.000 C 
ATOM     23  C   UNL     1       0.750   9.071  20.864  0.00  0.00    +0.000 C 
ATOM     24  N   UNL     1       0.583  10.158  19.876  0.00  0.00    +0.000 NA
ATOM     25  C   UNL     1      -0.751  10.787  20.046  0.00  0.00    +0.000 C 
BRANCH  20  27
ATOM     26  O   UNL     1       0.020  13.336  22.607  0.00  0.00    +0.000 OA
ATOM     27  C   UNL     1       0.038  12.632  21.607  0.00  0.00    +0.000 C 
BRANCH  27  28
ATOM     28  O   UNL     1       0.913  12.849  20.597  0.00  0.00    +0.000 OA
ATOM     29  H   UNL     1       1.335  12.008  20.290  0.00  0.00    +0.000 HD
ENDBRANCH  27  28
ENDBRANCH  20  27
ENDBRANCH  19  24
ENDBRANCH  18  19
ENDBRANCH  16  18
ENDBRANCH   1  16
TORSDOF 8
ENDMDL
