MODEL 1
REMARK VINA RESULT:      -9.0      0.000      0.000
REMARK  Name = 
REMARK  6 active torsions:
REMARK  status: ('A' for Active; 'I' for Inactive)
REMARK    1  A    between atoms: C_2  and  C_22
REMARK    2  A    between atoms: N_3  and  C_4
REMARK    3  A    between atoms: C_7  and  O_8
REMARK    4  A    between atoms: O_8  and  C_9
REMARK    5  A    between atoms: C_11  and  O_12
REMARK    6  A    between atoms: C_14  and  C_15
REMARK                            x       y       z     vdW  Elec       q    Type
REMARK                         _______ _______ _______ _____ _____    ______ ____
ROOT
ATOM      1  C   UNL     1       0.473   9.631  19.699  0.00  0.00    +0.000 A 
ATOM      2  C   UNL     1       0.782   9.748  18.343  0.00  0.00    +0.000 A 
ATOM      3  C   UNL     1       1.738   8.913  17.760  0.00  0.00    +0.000 A 
ATOM      4  C   UNL     1       2.392   7.952  18.528  0.00  0.00    +0.000 A 
ATOM      5  C   UNL     1       2.046   7.792  19.872  0.00  0.00    +0.000 A 
ATOM      6  C   UNL     1       1.124   8.659  20.465  0.00  0.00    +0.000 A 
ENDROOT
BRANCH   1   9
ATOM      7  O   UNL     1       0.976  11.927  21.432  0.00  0.00    +0.000 OA
ATOM      8  C   UNL     1      -0.152  11.503  21.216  0.00  0.00    +0.000 C 
ATOM      9  N   UNL     1      -0.458  10.462  20.353  0.00  0.00    +0.000 N 
ATOM     10  H   UNL     1      -1.424  10.361  20.062  0.00  0.00    +0.000 HD
BRANCH   8  11
ATOM     11  C   UNL     1      -1.312  12.168  21.870  0.00  0.00    +0.000 A 
ATOM     12  C   UNL     1      -1.904  11.586  22.997  0.00  0.00    +0.000 A 
ATOM     13  F   UNL     1      -1.424  10.442  23.512  0.00  0.00    +0.000 F 
ATOM     14  C   UNL     1      -3.000  12.169  23.633  0.00  0.00    +0.000 A 
ATOM     15  C   UNL     1      -3.529  13.355  23.142  0.00  0.00    +0.000 A 
ATOM     16  C   UNL     1      -2.959  13.951  22.019  0.00  0.00    +0.000 A 
ATOM     17  C   UNL     1      -1.854  13.368  21.381  0.00  0.00    +0.000 A 
ATOM     18 CL   UNL     1      -1.205  14.246  20.040  0.00  0.00    +0.000 Cl
ENDBRANCH   8  11
ENDBRANCH   1   9
BRANCH   4  19
ATOM     19  O   UNL     1       3.309   7.177  17.858  0.00  0.00    +0.000 OA
BRANCH  19  20
ATOM     20  C   UNL     1       3.252   5.806  17.954  0.00  0.00    +0.000 A 
ATOM     21  C   UNL     1       4.269   5.112  17.297  0.00  0.00    +0.000 A 
ATOM     22  C   UNL     1       4.277   3.722  17.323  0.00  0.00    +0.000 A 
ATOM     23  C   UNL     1       3.289   3.012  17.999  0.00  0.00    +0.000 A 
ATOM     24  C   UNL     1       2.280   3.698  18.688  0.00  0.00    +0.000 A 
ATOM     25  C   UNL     1       2.295   5.102  18.691  0.00  0.00    +0.000 A 
BRANCH  24  26
ATOM     26  C   UNL     1       1.164   2.968  19.387  0.00  0.00    +0.000 C 
ATOM     27  F   UNL     1       1.590   1.994  20.237  0.00  0.00    +0.000 F 
ATOM     28  F   UNL     1       0.380   3.796  20.131  0.00  0.00    +0.000 F 
ATOM     29  F   UNL     1       0.324   2.352  18.507  0.00  0.00    +0.000 F 
ENDBRANCH  24  26
BRANCH  22  30
ATOM     30  O   UNL     1       5.239   3.005  16.679  0.00  0.00    +0.000 OA
ATOM     31  H   UNL     1       5.365   3.377  15.789  0.00  0.00    +0.000 HD
ENDBRANCH  22  30
ENDBRANCH  19  20
ENDBRANCH   4  19
TORSDOF 6
ENDMDL
MODEL 2
REMARK VINA RESULT:      -9.0      3.140      3.935
REMARK  Name = 
REMARK  6 active torsions:
REMARK  status: ('A' for Active; 'I' for Inactive)
REMARK    1  A    between atoms: C_2  and  C_22
REMARK    2  A    between atoms: N_3  and  C_4
REMARK    3  A    between atoms: C_7  and  O_8
REMARK    4  A    between atoms: O_8  and  C_9
REMARK    5  A    between atoms: C_11  and  O_12
REMARK    6  A    between atoms: C_14  and  C_15
REMARK                            x       y       z     vdW  Elec       q    Type
REMARK                         _______ _______ _______ _____ _____    ______ ____
ROOT
ATOM      1  C   UNL     1       1.506   7.961  19.983  0.00  0.00    +0.000 A 
ATOM      2  C   UNL     1       1.461   6.764  20.698  0.00  0.00    +0.000 A 
ATOM      3  C   UNL     1       2.103   5.623  20.209  0.00  0.00    +0.000 A 
ATOM      4  C   UNL     1       2.797   5.671  19.003  0.00  0.00    +0.000 A 
ATOM      5  C   UNL     1       2.892   6.881  18.311  0.00  0.00    +0.000 A 
ATOM      6  C   UNL     1       2.211   8.008  18.776  0.00  0.00    +0.000 A 
ENDROOT
BRANCH   1   9
ATOM      7  O   UNL     1       1.826   9.427  22.489  0.00  0.00    +0.000 OA
ATOM      8  C   UNL     1       1.006   9.751  21.639  0.00  0.00    +0.000 C 
ATOM      9  N   UNL     1       0.854   9.137  20.406  0.00  0.00    +0.000 N 
ATOM     10  H   UNL     1       0.330   9.633  19.694  0.00  0.00    +0.000 HD
BRANCH   8  11
ATOM     11  C   UNL     1       0.126  10.924  21.895  0.00  0.00    +0.000 A 
ATOM     12  C   UNL     1      -0.917  10.824  22.822  0.00  0.00    +0.000 A 
ATOM     13  F   UNL     1      -1.123   9.685  23.505  0.00  0.00    +0.000 F 
ATOM     14  C   UNL     1      -1.773  11.894  23.082  0.00  0.00    +0.000 A 
ATOM     15  C   UNL     1      -1.598  13.094  22.406  0.00  0.00    +0.000 A 
ATOM     16  C   UNL     1      -0.568  13.216  21.476  0.00  0.00    +0.000 A 
ATOM     17  C   UNL     1       0.296  12.142  21.217  0.00  0.00    +0.000 A 
ATOM     18 CL   UNL     1       1.570  12.451  20.089  0.00  0.00    +0.000 Cl
ENDBRANCH   8  11
ENDBRANCH   1   9
BRANCH   4  19
ATOM     19  O   UNL     1       3.398   4.497  18.614  0.00  0.00    +0.000 OA
BRANCH  19  20
ATOM     20  C   UNL     1       4.599   4.529  17.945  0.00  0.00    +0.000 A 
ATOM     21  C   UNL     1       5.731   4.701  18.742  0.00  0.00    +0.000 A 
ATOM     22  C   UNL     1       6.985   4.767  18.146  0.00  0.00    +0.000 A 
ATOM     23  C   UNL     1       7.130   4.660  16.766  0.00  0.00    +0.000 A 
ATOM     24  C   UNL     1       6.004   4.456  15.957  0.00  0.00    +0.000 A 
ATOM     25  C   UNL     1       4.742   4.353  16.565  0.00  0.00    +0.000 A 
BRANCH  24  26
ATOM     26  C   UNL     1       6.111   4.387  14.457  0.00  0.00    +0.000 C 
ATOM     27  F   UNL     1       4.932   4.600  13.809  0.00  0.00    +0.000 F 
ATOM     28  F   UNL     1       6.986   5.299  13.950  0.00  0.00    +0.000 F 
ATOM     29  F   UNL     1       6.555   3.170  14.031  0.00  0.00    +0.000 F 
ENDBRANCH  24  26
BRANCH  22  30
ATOM     30  O   UNL     1       8.115   4.954  18.885  0.00  0.00    +0.000 OA
ATOM     31  H   UNL     1       8.341   5.900  18.878  0.00  0.00    +0.000 HD
ENDBRANCH  22  30
ENDBRANCH  19  20
ENDBRANCH   4  19
TORSDOF 6
ENDMDL
MODEL 3
REMARK VINA RESULT:      -9.0      0.710      1.028
REMARK  Name = 
REMARK  6 active torsions:
REMARK  status: ('A' for Active; 'I' for Inactive)
REMARK    1  A    between atoms: C_2  and  C_22
REMARK    2  A    between atoms: N_3  and  C_4
REMARK    3  A    between atoms: C_7  and  O_8
REMARK    4  A    between atoms: O_8  and  C_9
REMARK    5  A    between atoms: C_11  and  O_12
REMARK    6  A    between atoms: C_14  and  C_15
REMARK                            x       y       z     vdW  Elec       q    Type
REMARK                         _______ _______ _______ _____ _____    ______ ____
ROOT
ATOM      1  C   UNL     1       0.358   9.828  19.699  0.00  0.00    +0.000 A 
ATOM      2  C   UNL     1       0.656   9.903  18.338  0.00  0.00    +0.000 A 
ATOM      3  C   UNL     1       1.595   9.038  17.770  0.00  0.00    +0.000 A 
ATOM      4  C   UNL     1       2.242   8.089  18.558  0.00  0.00    +0.000 A 
ATOM      5  C   UNL     1       1.907   7.972  19.910  0.00  0.00    +0.000 A 
ATOM      6  C   UNL     1       1.003   8.868  20.486  0.00  0.00    +0.000 A 
ENDROOT
BRANCH   1   9
ATOM      7  O   UNL     1       0.907  12.038  21.528  0.00  0.00    +0.000 OA
ATOM      8  C   UNL     1      -0.231  11.686  21.248  0.00  0.00    +0.000 C 
ATOM      9  N   UNL     1      -0.554  10.691  20.338  0.00  0.00    +0.000 N 
ATOM     10  H   UNL     1      -1.510  10.653  20.000  0.00  0.00    +0.000 HD
BRANCH   8  11
ATOM     11  C   UNL     1      -1.382  12.396  21.871  0.00  0.00    +0.000 A 
ATOM     12  C   UNL     1      -2.034  11.832  22.974  0.00  0.00    +0.000 A 
ATOM     13  F   UNL     1      -1.620  10.664  23.494  0.00  0.00    +0.000 F 
ATOM     14  C   UNL     1      -3.124  12.457  23.580  0.00  0.00    +0.000 A 
ATOM     15  C   UNL     1      -3.585  13.668  23.083  0.00  0.00    +0.000 A 
ATOM     16  C   UNL     1      -2.955  14.247  21.984  0.00  0.00    +0.000 A 
ATOM     17  C   UNL     1      -1.856  13.621  21.376  0.00  0.00    +0.000 A 
ATOM     18 CL   UNL     1      -1.128  14.481  20.063  0.00  0.00    +0.000 Cl
ENDBRANCH   8  11
ENDBRANCH   1   9
BRANCH   4  19
ATOM     19  O   UNL     1       3.142   7.283  17.902  0.00  0.00    +0.000 OA
BRANCH  19  20
ATOM     20  C   UNL     1       3.307   5.975  18.295  0.00  0.00    +0.000 A 
ATOM     21  C   UNL     1       4.627   5.528  18.364  0.00  0.00    +0.000 A 
ATOM     22  C   UNL     1       4.886   4.212  18.731  0.00  0.00    +0.000 A 
ATOM     23  C   UNL     1       3.849   3.335  19.035  0.00  0.00    +0.000 A 
ATOM     24  C   UNL     1       2.521   3.781  18.998  0.00  0.00    +0.000 A 
ATOM     25  C   UNL     1       2.264   5.120  18.663  0.00  0.00    +0.000 A 
BRANCH  24  26
ATOM     26  C   UNL     1       1.368   2.851  19.269  0.00  0.00    +0.000 C 
ATOM     27  F   UNL     1       0.420   2.849  18.292  0.00  0.00    +0.000 F 
ATOM     28  F   UNL     1       1.761   1.555  19.412  0.00  0.00    +0.000 F 
ATOM     29  F   UNL     1       0.713   3.169  20.422  0.00  0.00    +0.000 F 
ENDBRANCH  24  26
BRANCH  22  30
ATOM     30  O   UNL     1       6.158   3.728  18.792  0.00  0.00    +0.000 OA
ATOM     31  H   UNL     1       6.568   4.028  19.621  0.00  0.00    +0.000 HD
ENDBRANCH  22  30
ENDBRANCH  19  20
ENDBRANCH   4  19
TORSDOF 6
ENDMDL
MODEL 4
REMARK VINA RESULT:      -8.9      0.646      1.102
REMARK  Name = 
REMARK  6 active torsions:
REMARK  status: ('A' for Active; 'I' for Inactive)
REMARK    1  A    between atoms: C_2  and  C_22
REMARK    2  A    between atoms: N_3  and  C_4
REMARK    3  A    between atoms: C_7  and  O_8
REMARK    4  A    between atoms: O_8  and  C_9
REMARK    5  A    between atoms: C_11  and  O_12
REMARK    6  A    between atoms: C_14  and  C_15
REMARK                            x       y       z     vdW  Elec       q    Type
REMARK                         _______ _______ _______ _____ _____    ______ ____
ROOT
ATOM      1  C   UNL     1       0.416   9.743  19.796  0.00  0.00    +0.000 A 
ATOM      2  C   UNL     1       1.134   8.751  20.467  0.00  0.00    +0.000 A 
ATOM      3  C   UNL     1       2.036   7.939  19.775  0.00  0.00    +0.000 A 
ATOM      4  C   UNL     1       2.231   8.114  18.407  0.00  0.00    +0.000 A 
ATOM      5  C   UNL     1       1.558   9.142  17.742  0.00  0.00    +0.000 A 
ATOM      6  C   UNL     1       0.621   9.922  18.424  0.00  0.00    +0.000 A 
ENDROOT
BRANCH   1   9
ATOM      7  O   UNL     1       0.877  12.090  21.473  0.00  0.00    +0.000 OA
ATOM      8  C   UNL     1      -0.243  11.640  21.268  0.00  0.00    +0.000 C 
ATOM      9  N   UNL     1      -0.530  10.573  20.430  0.00  0.00    +0.000 N 
ATOM     10  H   UNL     1      -1.493  10.446  20.142  0.00  0.00    +0.000 HD
BRANCH   8  11
ATOM     11  C   UNL     1      -1.415  12.299  21.906  0.00  0.00    +0.000 A 
ATOM     12  C   UNL     1      -2.036  11.700  23.009  0.00  0.00    +0.000 A 
ATOM     13  F   UNL     1      -1.572  10.546  23.516  0.00  0.00    +0.000 F 
ATOM     14  C   UNL     1      -3.144  12.277  23.629  0.00  0.00    +0.000 A 
ATOM     15  C   UNL     1      -3.657  13.473  23.146  0.00  0.00    +0.000 A 
ATOM     16  C   UNL     1      -3.059  14.085  22.047  0.00  0.00    +0.000 A 
ATOM     17  C   UNL     1      -1.942  13.508  21.425  0.00  0.00    +0.000 A 
ATOM     18 CL   UNL     1      -1.258  14.406  20.114  0.00  0.00    +0.000 Cl
ENDBRANCH   8  11
ENDBRANCH   1   9
BRANCH   4  19
ATOM     19  O   UNL     1       3.145   7.270  17.823  0.00  0.00    +0.000 OA
BRANCH  19  20
ATOM     20  C   UNL     1       3.280   5.980  18.281  0.00  0.00    +0.000 A 
ATOM     21  C   UNL     1       4.583   5.482  18.308  0.00  0.00    +0.000 A 
ATOM     22  C   UNL     1       4.809   4.179  18.736  0.00  0.00    +0.000 A 
ATOM     23  C   UNL     1       3.757   3.364  19.141  0.00  0.00    +0.000 A 
ATOM     24  C   UNL     1       2.447   3.862  19.146  0.00  0.00    +0.000 A 
ATOM     25  C   UNL     1       2.225   5.190  18.749  0.00  0.00    +0.000 A 
BRANCH  24  26
ATOM     26  C   UNL     1       1.274   2.998  19.527  0.00  0.00    +0.000 C 
ATOM     27  F   UNL     1       1.601   1.949  20.332  0.00  0.00    +0.000 F 
ATOM     28  F   UNL     1       0.305   3.689  20.189  0.00  0.00    +0.000 F 
ATOM     29  F   UNL     1       0.663   2.454  18.437  0.00  0.00    +0.000 F 
ENDBRANCH  24  26
BRANCH  22  30
ATOM     30  O   UNL     1       6.063   3.646  18.761  0.00  0.00    +0.000 OA
ATOM     31  H   UNL     1       6.199   3.203  19.616  0.00  0.00    +0.000 HD
ENDBRANCH  22  30
ENDBRANCH  19  20
ENDBRANCH   4  19
TORSDOF 6
ENDMDL
MODEL 5
REMARK VINA RESULT:      -8.8      3.227      4.042
REMARK  Name = 
REMARK  6 active torsions:
REMARK  status: ('A' for Active; 'I' for Inactive)
REMARK    1  A    between atoms: C_2  and  C_22
REMARK    2  A    between atoms: N_3  and  C_4
REMARK    3  A    between atoms: C_7  and  O_8
REMARK    4  A    between atoms: O_8  and  C_9
REMARK    5  A    between atoms: C_11  and  O_12
REMARK    6  A    between atoms: C_14  and  C_15
REMARK                            x       y       z     vdW  Elec       q    Type
REMARK                         _______ _______ _______ _____ _____    ______ ____
ROOT
ATOM      1  C   UNL     1       1.688   7.935  19.923  0.00  0.00    +0.000 A 
ATOM      2  C   UNL     1       1.860   6.801  20.718  0.00  0.00    +0.000 A 
ATOM      3  C   UNL     1       2.444   5.647  20.189  0.00  0.00    +0.000 A 
ATOM      4  C   UNL     1       2.863   5.618  18.861  0.00  0.00    +0.000 A 
ATOM      5  C   UNL     1       2.745   6.768  18.077  0.00  0.00    +0.000 A 
ATOM      6  C   UNL     1       2.118   7.905  18.592  0.00  0.00    +0.000 A 
ENDROOT
BRANCH   1   9
ATOM      7  O   UNL     1      -0.778   8.238  21.457  0.00  0.00    +0.000 OA
ATOM      8  C   UNL     1      -0.130   9.198  21.060  0.00  0.00    +0.000 C 
ATOM      9  N   UNL     1       1.079   9.117  20.387  0.00  0.00    +0.000 N 
ATOM     10  H   UNL     1       1.642   9.958  20.329  0.00  0.00    +0.000 HD
BRANCH   8  11
ATOM     11  C   UNL     1      -0.622  10.572  21.353  0.00  0.00    +0.000 A 
ATOM     12  C   UNL     1      -0.764  10.993  22.680  0.00  0.00    +0.000 A 
ATOM     13  F   UNL     1      -0.441  10.179  23.698  0.00  0.00    +0.000 F 
ATOM     14  C   UNL     1      -1.234  12.268  22.998  0.00  0.00    +0.000 A 
ATOM     15  C   UNL     1      -1.576  13.148  21.981  0.00  0.00    +0.000 A 
ATOM     16  C   UNL     1      -1.447  12.750  20.653  0.00  0.00    +0.000 A 
ATOM     17  C   UNL     1      -0.970  11.470  20.331  0.00  0.00    +0.000 A 
ATOM     18 CL   UNL     1      -0.796  11.130  18.644  0.00  0.00    +0.000 Cl
ENDBRANCH   8  11
ENDBRANCH   1   9
BRANCH   4  19
ATOM     19  O   UNL     1       3.430   4.438  18.441  0.00  0.00    +0.000 OA
BRANCH  19  20
ATOM     20  C   UNL     1       4.634   4.453  17.776  0.00  0.00    +0.000 A 
ATOM     21  C   UNL     1       5.765   4.603  18.579  0.00  0.00    +0.000 A 
ATOM     22  C   UNL     1       7.023   4.651  17.988  0.00  0.00    +0.000 A 
ATOM     23  C   UNL     1       7.171   4.547  16.608  0.00  0.00    +0.000 A 
ATOM     24  C   UNL     1       6.045   4.366  15.794  0.00  0.00    +0.000 A 
ATOM     25  C   UNL     1       4.780   4.281  16.396  0.00  0.00    +0.000 A 
BRANCH  24  26
ATOM     26  C   UNL     1       6.157   4.301  14.294  0.00  0.00    +0.000 C 
ATOM     27  F   UNL     1       7.076   5.158  13.772  0.00  0.00    +0.000 F 
ATOM     28  F   UNL     1       6.503   3.062  13.846  0.00  0.00    +0.000 F 
ATOM     29  F   UNL     1       4.977   4.601  13.679  0.00  0.00    +0.000 F 
ENDBRANCH  24  26
BRANCH  22  30
ATOM     30  O   UNL     1       8.152   4.816  18.732  0.00  0.00    +0.000 OA
ATOM     31  H   UNL     1       8.543   3.943  18.907  0.00  0.00    +0.000 HD
ENDBRANCH  22  30
ENDBRANCH  19  20
ENDBRANCH   4  19
TORSDOF 6
ENDMDL
MODEL 6
REMARK VINA RESULT:      -8.8      1.269      1.516
REMARK  Name = 
REMARK  6 active torsions:
REMARK  status: ('A' for Active; 'I' for Inactive)
REMARK    1  A    between atoms: C_2  and  C_22
REMARK    2  A    between atoms: N_3  and  C_4
REMARK    3  A    between atoms: C_7  and  O_8
REMARK    4  A    between atoms: O_8  and  C_9
REMARK    5  A    between atoms: C_11  and  O_12
REMARK    6  A    between atoms: C_14  and  C_15
REMARK                            x       y       z     vdW  Elec       q    Type
REMARK                         _______ _______ _______ _____ _____    ______ ____
ROOT
ATOM      1  C   UNL     1       0.558   9.615  19.619  0.00  0.00    +0.000 A 
ATOM      2  C   UNL     1       0.856   9.806  18.269  0.00  0.00    +0.000 A 
ATOM      3  C   UNL     1       1.773   8.974  17.622  0.00  0.00    +0.000 A 
ATOM      4  C   UNL     1       2.398   7.942  18.318  0.00  0.00    +0.000 A 
ATOM      5  C   UNL     1       2.062   7.711  19.655  0.00  0.00    +0.000 A 
ATOM      6  C   UNL     1       1.181   8.572  20.313  0.00  0.00    +0.000 A 
ENDROOT
BRANCH   1   9
ATOM      7  O   UNL     1       1.163  11.881  21.359  0.00  0.00    +0.000 OA
ATOM      8  C   UNL     1       0.023  11.463  21.198  0.00  0.00    +0.000 C 
ATOM      9  N   UNL     1      -0.333  10.437  20.336  0.00  0.00    +0.000 N 
ATOM     10  H   UNL     1      -1.313  10.343  20.096  0.00  0.00    +0.000 HD
BRANCH   8  11
ATOM     11  C   UNL     1      -1.096  12.120  21.926  0.00  0.00    +0.000 A 
ATOM     12  C   UNL     1      -1.713  11.462  22.997  0.00  0.00    +0.000 A 
ATOM     13  F   UNL     1      -1.291  10.250  23.393  0.00  0.00    +0.000 F 
ATOM     14  C   UNL     1      -2.774  12.036  23.697  0.00  0.00    +0.000 A 
ATOM     15  C   UNL     1      -3.242  13.290  23.329  0.00  0.00    +0.000 A 
ATOM     16  C   UNL     1      -2.647  13.962  22.264  0.00  0.00    +0.000 A 
ATOM     17  C   UNL     1      -1.577  13.388  21.562  0.00  0.00    +0.000 A 
ATOM     18 CL   UNL     1      -0.890  14.359  20.306  0.00  0.00    +0.000 Cl
ENDBRANCH   8  11
ENDBRANCH   1   9
BRANCH   4  19
ATOM     19  O   UNL     1       3.278   7.178  17.589  0.00  0.00    +0.000 OA
BRANCH  19  20
ATOM     20  C   UNL     1       3.742   5.988  18.099  0.00  0.00    +0.000 A 
ATOM     21  C   UNL     1       4.995   6.042  18.712  0.00  0.00    +0.000 A 
ATOM     22  C   UNL     1       5.551   4.881  19.236  0.00  0.00    +0.000 A 
ATOM     23  C   UNL     1       4.877   3.666  19.163  0.00  0.00    +0.000 A 
ATOM     24  C   UNL     1       3.605   3.605  18.577  0.00  0.00    +0.000 A 
ATOM     25  C   UNL     1       3.030   4.785  18.081  0.00  0.00    +0.000 A 
BRANCH  24  26
ATOM     26  C   UNL     1       2.864   2.302  18.431  0.00  0.00    +0.000 C 
ATOM     27  F   UNL     1       1.894   2.112  19.366  0.00  0.00    +0.000 F 
ATOM     28  F   UNL     1       2.249   2.180  17.223  0.00  0.00    +0.000 F 
ATOM     29  F   UNL     1       3.696   1.226  18.534  0.00  0.00    +0.000 F 
ENDBRANCH  24  26
BRANCH  22  30
ATOM     30  O   UNL     1       6.780   4.884  19.825  0.00  0.00    +0.000 OA
ATOM     31  H   UNL     1       7.215   5.734  19.637  0.00  0.00    +0.000 HD
ENDBRANCH  22  30
ENDBRANCH  19  20
ENDBRANCH   4  19
TORSDOF 6
ENDMDL
MODEL 7
REMARK VINA RESULT:      -8.7      3.340      3.989
REMARK  Name = 
REMARK  6 active torsions:
REMARK  status: ('A' for Active; 'I' for Inactive)
REMARK    1  A    between atoms: C_2  and  C_22
REMARK    2  A    between atoms: N_3  and  C_4
REMARK    3  A    between atoms: C_7  and  O_8
REMARK    4  A    between atoms: O_8  and  C_9
REMARK    5  A    between atoms: C_11  and  O_12
REMARK    6  A    between atoms: C_14  and  C_15
REMARK                            x       y       z     vdW  Elec       q    Type
REMARK                         _______ _______ _______ _____ _____    ______ ____
ROOT
ATOM      1  C   UNL     1       1.359   8.905  19.893  0.00  0.00    +0.000 A 
ATOM      2  C   UNL     1       1.868   8.662  18.616  0.00  0.00    +0.000 A 
ATOM      3  C   UNL     1       2.362   7.400  18.279  0.00  0.00    +0.000 A 
ATOM      4  C   UNL     1       2.349   6.368  19.215  0.00  0.00    +0.000 A 
ATOM      5  C   UNL     1       1.789   6.589  20.476  0.00  0.00    +0.000 A 
ATOM      6  C   UNL     1       1.339   7.864  20.827  0.00  0.00    +0.000 A 
ENDROOT
BRANCH   1   9
ATOM      7  O   UNL     1      -1.232  10.135  19.342  0.00  0.00    +0.000 OA
ATOM      8  C   UNL     1      -0.346  10.717  19.955  0.00  0.00    +0.000 C 
ATOM      9  N   UNL     1       0.876  10.162  20.304  0.00  0.00    +0.000 N 
ATOM     10  H   UNL     1       1.423  10.637  21.014  0.00  0.00    +0.000 HD
BRANCH   8  11
ATOM     11  C   UNL     1      -0.587  12.109  20.425  0.00  0.00    +0.000 A 
ATOM     12  C   UNL     1      -0.505  13.174  19.520  0.00  0.00    +0.000 A 
ATOM     13  F   UNL     1      -0.233  12.954  18.223  0.00  0.00    +0.000 F 
ATOM     14  C   UNL     1      -0.711  14.494  19.922  0.00  0.00    +0.000 A 
ATOM     15  C   UNL     1      -1.000  14.771  21.251  0.00  0.00    +0.000 A 
ATOM     16  C   UNL     1      -1.083  13.728  22.170  0.00  0.00    +0.000 A 
ATOM     17  C   UNL     1      -0.881  12.400  21.767  0.00  0.00    +0.000 A 
ATOM     18 CL   UNL     1      -1.079  11.199  22.996  0.00  0.00    +0.000 Cl
ENDBRANCH   8  11
ENDBRANCH   1   9
BRANCH   4  19
ATOM     19  O   UNL     1       2.851   5.164  18.781  0.00  0.00    +0.000 OA
BRANCH  19  20
ATOM     20  C   UNL     1       4.160   5.073  18.368  0.00  0.00    +0.000 A 
ATOM     21  C   UNL     1       5.121   5.261  19.362  0.00  0.00    +0.000 A 
ATOM     22  C   UNL     1       6.470   5.209  19.028  0.00  0.00    +0.000 A 
ATOM     23  C   UNL     1       6.876   4.967  17.719  0.00  0.00    +0.000 A 
ATOM     24  C   UNL     1       5.920   4.747  16.718  0.00  0.00    +0.000 A 
ATOM     25  C   UNL     1       4.560   4.764  17.064  0.00  0.00    +0.000 A 
BRANCH  24  26
ATOM     26  C   UNL     1       6.316   4.535  15.281  0.00  0.00    +0.000 C 
ATOM     27  F   UNL     1       7.604   4.881  15.007  0.00  0.00    +0.000 F 
ATOM     28  F   UNL     1       6.185   3.238  14.887  0.00  0.00    +0.000 F 
ATOM     29  F   UNL     1       5.545   5.262  14.424  0.00  0.00    +0.000 F 
ENDBRANCH  24  26
BRANCH  22  30
ATOM     30  O   UNL     1       7.441   5.406  19.963  0.00  0.00    +0.000 OA
ATOM     31  H   UNL     1       7.019   5.557  20.826  0.00  0.00    +0.000 HD
ENDBRANCH  22  30
ENDBRANCH  19  20
ENDBRANCH   4  19
TORSDOF 6
ENDMDL
MODEL 8
REMARK VINA RESULT:      -8.7      0.953      1.534
REMARK  Name = 
REMARK  6 active torsions:
REMARK  status: ('A' for Active; 'I' for Inactive)
REMARK    1  A    between atoms: C_2  and  C_22
REMARK    2  A    between atoms: N_3  and  C_4
REMARK    3  A    between atoms: C_7  and  O_8
REMARK    4  A    between atoms: O_8  and  C_9
REMARK    5  A    between atoms: C_11  and  O_12
REMARK    6  A    between atoms: C_14  and  C_15
REMARK                            x       y       z     vdW  Elec       q    Type
REMARK                         _______ _______ _______ _____ _____    ______ ____
ROOT
ATOM      1  C   UNL     1       0.687   9.636  19.593  0.00  0.00    +0.000 A 
ATOM      2  C   UNL     1       1.352   8.544  20.152  0.00  0.00    +0.000 A 
ATOM      3  C   UNL     1       2.272   7.812  19.397  0.00  0.00    +0.000 A 
ATOM      4  C   UNL     1       2.537   8.169  18.077  0.00  0.00    +0.000 A 
ATOM      5  C   UNL     1       1.917   9.295  17.530  0.00  0.00    +0.000 A 
ATOM      6  C   UNL     1       0.962   9.997  18.270  0.00  0.00    +0.000 A 
ENDROOT
BRANCH   1   9
ATOM      7  O   UNL     1       1.102  11.890  21.403  0.00  0.00    +0.000 OA
ATOM      8  C   UNL     1      -0.007  11.417  21.188  0.00  0.00    +0.000 C 
ATOM      9  N   UNL     1      -0.274  10.394  20.291  0.00  0.00    +0.000 N 
ATOM     10  H   UNL     1      -1.238  10.254  20.011  0.00  0.00    +0.000 HD
BRANCH   8  11
ATOM     11  C   UNL     1      -1.187  11.997  21.884  0.00  0.00    +0.000 A 
ATOM     12  C   UNL     1      -1.684  11.386  23.042  0.00  0.00    +0.000 A 
ATOM     13  F   UNL     1      -1.093  10.291  23.548  0.00  0.00    +0.000 F 
ATOM     14  C   UNL     1      -2.796  11.889  23.717  0.00  0.00    +0.000 A 
ATOM     15  C   UNL     1      -3.438  13.022  23.237  0.00  0.00    +0.000 A 
ATOM     16  C   UNL     1      -2.965  13.645  22.084  0.00  0.00    +0.000 A 
ATOM     17  C   UNL     1      -1.844  13.142  21.406  0.00  0.00    +0.000 A 
ATOM     18 CL   UNL     1      -1.324  14.051  20.029  0.00  0.00    +0.000 Cl
ENDBRANCH   8  11
ENDBRANCH   1   9
BRANCH   4  19
ATOM     19  O   UNL     1       3.463   7.390  17.424  0.00  0.00    +0.000 OA
BRANCH  19  20
ATOM     20  C   UNL     1       3.687   6.097  17.837  0.00  0.00    +0.000 A 
ATOM     21  C   UNL     1       5.004   5.794  18.184  0.00  0.00    +0.000 A 
ATOM     22  C   UNL     1       5.325   4.504  18.591  0.00  0.00    +0.000 A 
ATOM     23  C   UNL     1       4.353   3.511  18.661  0.00  0.00    +0.000 A 
ATOM     24  C   UNL     1       3.021   3.811  18.343  0.00  0.00    +0.000 A 
ATOM     25  C   UNL     1       2.692   5.123  17.968  0.00  0.00    +0.000 A 
BRANCH  24  26
ATOM     26  C   UNL     1       1.949   2.754  18.356  0.00  0.00    +0.000 C 
ATOM     27  F   UNL     1       0.688   3.245  18.203  0.00  0.00    +0.000 F 
ATOM     28  F   UNL     1       2.112   1.828  17.371  0.00  0.00    +0.000 F 
ATOM     29  F   UNL     1       1.935   2.053  19.526  0.00  0.00    +0.000 F 
ENDBRANCH  24  26
BRANCH  22  30
ATOM     30  O   UNL     1       6.601   4.160  18.921  0.00  0.00    +0.000 OA
ATOM     31  H   UNL     1       6.574   3.408  19.537  0.00  0.00    +0.000 HD
ENDBRANCH  22  30
ENDBRANCH  19  20
ENDBRANCH   4  19
TORSDOF 6
ENDMDL
MODEL 9
REMARK VINA RESULT:      -8.6      3.199      3.958
REMARK  Name = 
REMARK  6 active torsions:
REMARK  status: ('A' for Active; 'I' for Inactive)
REMARK    1  A    between atoms: C_2  and  C_22
REMARK    2  A    between atoms: N_3  and  C_4
REMARK    3  A    between atoms: C_7  and  O_8
REMARK    4  A    between atoms: O_8  and  C_9
REMARK    5  A    between atoms: C_11  and  O_12
REMARK    6  A    between atoms: C_14  and  C_15
REMARK                            x       y       z     vdW  Elec       q    Type
REMARK                         _______ _______ _______ _____ _____    ______ ____
ROOT
ATOM      1  C   UNL     1       1.740   7.986  19.998  0.00  0.00    +0.000 A 
ATOM      2  C   UNL     1       2.271   7.953  18.708  0.00  0.00    +0.000 A 
ATOM      3  C   UNL     1       2.755   6.758  18.172  0.00  0.00    +0.000 A 
ATOM      4  C   UNL     1       2.709   5.584  18.920  0.00  0.00    +0.000 A 
ATOM      5  C   UNL     1       2.128   5.599  20.190  0.00  0.00    +0.000 A 
ATOM      6  C   UNL     1       1.688   6.804  20.744  0.00  0.00    +0.000 A 
ENDROOT
BRANCH   1   9
ATOM      7  O   UNL     1      -0.362   9.796  19.083  0.00  0.00    +0.000 OA
ATOM      8  C   UNL     1       0.303  10.017  20.087  0.00  0.00    +0.000 C 
ATOM      9  N   UNL     1       1.265   9.165  20.607  0.00  0.00    +0.000 N 
ATOM     10  H   UNL     1       1.570   9.325  21.561  0.00  0.00    +0.000 HD
BRANCH   8  11
ATOM     11  C   UNL     1       0.046  11.260  20.865  0.00  0.00    +0.000 A 
ATOM     12  C   UNL     1      -0.670  11.195  22.066  0.00  0.00    +0.000 A 
ATOM     13  F   UNL     1      -1.111  10.018  22.541  0.00  0.00    +0.000 F 
ATOM     14  C   UNL     1      -0.944  12.337  22.819  0.00  0.00    +0.000 A 
ATOM     15  C   UNL     1      -0.504  13.576  22.373  0.00  0.00    +0.000 A 
ATOM     16  C   UNL     1       0.207  13.666  21.179  0.00  0.00    +0.000 A 
ATOM     17  C   UNL     1       0.487  12.518  20.423  0.00  0.00    +0.000 A 
ATOM     18 CL   UNL     1       1.434  12.764  18.997  0.00  0.00    +0.000 Cl
ENDBRANCH   8  11
ENDBRANCH   1   9
BRANCH   4  19
ATOM     19  O   UNL     1       3.204   4.461  18.299  0.00  0.00    +0.000 OA
BRANCH  19  20
ATOM     20  C   UNL     1       4.447   4.492  17.711  0.00  0.00    +0.000 A 
ATOM     21  C   UNL     1       5.522   4.671  18.582  0.00  0.00    +0.000 A 
ATOM     22  C   UNL     1       6.814   4.737  18.071  0.00  0.00    +0.000 A 
ATOM     23  C   UNL     1       7.051   4.623  16.704  0.00  0.00    +0.000 A 
ATOM     24  C   UNL     1       5.982   4.413  15.823  0.00  0.00    +0.000 A 
ATOM     25  C   UNL     1       4.683   4.310  16.345  0.00  0.00    +0.000 A 
BRANCH  24  26
ATOM     26  C   UNL     1       6.190   4.336  14.333  0.00  0.00    +0.000 C 
ATOM     27  F   UNL     1       7.176   5.153  13.871  0.00  0.00    +0.000 F 
ATOM     28  F   UNL     1       6.514   3.083  13.912  0.00  0.00    +0.000 F 
ATOM     29  F   UNL     1       5.066   4.681  13.641  0.00  0.00    +0.000 F 
ENDBRANCH  24  26
BRANCH  22  30
ATOM     30  O   UNL     1       7.890   4.929  18.883  0.00  0.00    +0.000 OA
ATOM     31  H   UNL     1       7.866   5.839  19.226  0.00  0.00    +0.000 HD
ENDBRANCH  22  30
ENDBRANCH  19  20
ENDBRANCH   4  19
TORSDOF 6
ENDMDL
