MODEL 1
REMARK VINA RESULT:      -8.7      0.000      0.000
REMARK  Name = 
REMARK  12 active torsions:
REMARK  status: ('A' for Active; 'I' for Inactive)
REMARK    1  A    between atoms: C_1  and  C_2
REMARK    2  A    between atoms: C_2  and  O_3
REMARK    3  A    between atoms: O_3  and  C_4
REMARK    4  A    between atoms: C_4  and  N_6
REMARK    5  A    between atoms: N_9  and  C_10
REMARK    6  A    between atoms: C_13  and  C_14
REMARK    7  A    between atoms: C_17  and  C_18
REMARK    8  A    between atoms: C_21  and  N_22
REMARK    9  A    between atoms: N_25  and  C_26
REMARK   10  A    between atoms: C_26  and  O_28
REMARK   11  A    between atoms: O_28  and  C_29
REMARK   12  A    between atoms: C_29  and  C_30
REMARK                            x       y       z     vdW  Elec       q    Type
REMARK                         _______ _______ _______ _____ _____    ______ ____
ROOT
ATOM      1  C   UNL     1       1.044   8.918  20.023  0.00  0.00    +0.000 A 
ATOM      2  C   UNL     1       1.629   7.715  20.451  0.00  0.00    +0.000 A 
ATOM      3  C   UNL     1       2.434   6.939  19.602  0.00  0.00    +0.000 A 
ATOM      4  C   UNL     1       2.674   7.322  18.276  0.00  0.00    +0.000 A 
ATOM      5  C   UNL     1       2.054   8.501  17.836  0.00  0.00    +0.000 A 
ATOM      6  C   UNL     1       1.278   9.292  18.693  0.00  0.00    +0.000 A 
ENDROOT
BRANCH   1  10
ATOM      7  C   UNL     1      -1.297  11.359  22.738  0.00  0.00    +0.000 A 
ATOM      8  C   UNL     1      -0.917  11.839  21.481  0.00  0.00    +0.000 A 
ATOM      9  C   UNL     1      -0.197  11.038  20.585  0.00  0.00    +0.000 A 
ATOM     10  C   UNL     1       0.196   9.733  20.922  0.00  0.00    +0.000 A 
ATOM     11  C   UNL     1      -0.238   9.245  22.166  0.00  0.00    +0.000 A 
ATOM     12  C   UNL     1      -0.987  10.036  23.046  0.00  0.00    +0.000 A 
BRANCH   7  16
ATOM     13  N   UNL     1      -4.030  12.490  22.395  0.00  0.00    +0.000 NA
ATOM     14  C   UNL     1      -3.323  12.622  23.465  0.00  0.00    +0.000 C 
ATOM     15  N   UNL     1      -3.745  13.207  24.626  0.00  0.00    +0.000 N 
ATOM     16  N   UNL     1      -2.025  12.206  23.591  0.00  0.00    +0.000 N 
ATOM     17  H   UNL     1      -4.595  13.762  24.505  0.00  0.00    +0.000 HD
ATOM     18  H   UNL     1      -3.049  13.761  25.106  0.00  0.00    +0.000 HD
ATOM     19  H   UNL     1      -1.568  12.369  24.475  0.00  0.00    +0.000 HD
BRANCH  13  20
ATOM     20  C   UNL     1      -5.287  13.009  22.379  0.00  0.00    +0.000 C 
ATOM     21  O   UNL     1      -5.569  14.201  22.328  0.00  0.00    +0.000 OA
BRANCH  20  22
ATOM     22  O   UNL     1      -6.187  12.003  22.427  0.00  0.00    +0.000 OA
BRANCH  22  24
ATOM     23  C   UNL     1      -7.464  10.922  20.673  0.00  0.00    +0.000 C 
ATOM     24  C   UNL     1      -7.311  12.148  21.553  0.00  0.00    +0.000 C 
ENDBRANCH  22  24
ENDBRANCH  20  22
ENDBRANCH  13  20
ENDBRANCH   7  16
ENDBRANCH   1  10
BRANCH   4  25
ATOM     25  C   UNL     1       3.579   6.556  17.388  0.00  0.00    +0.000 A 
ATOM     26  C   UNL     1       3.753   5.168  17.497  0.00  0.00    +0.000 A 
ATOM     27  C   UNL     1       4.640   4.477  16.656  0.00  0.00    +0.000 A 
ATOM     28  C   UNL     1       5.365   5.143  15.660  0.00  0.00    +0.000 A 
ATOM     29  C   UNL     1       5.201   6.521  15.552  0.00  0.00    +0.000 A 
ATOM     30  C   UNL     1       4.332   7.213  16.402  0.00  0.00    +0.000 A 
BRANCH  28  31
ATOM     31  N   UNL     1       6.219   4.412  14.816  0.00  0.00    +0.000 N 
ATOM     32  C   UNL     1       5.928   3.854  13.597  0.00  0.00    +0.000 C 
ATOM     33  N   UNL     1       7.041   3.167  13.187  0.00  0.00    +0.000 N 
ATOM     34  N   UNL     1       4.803   3.938  12.967  0.00  0.00    +0.000 NA
ATOM     35  H   UNL     1       6.982   3.955  15.296  0.00  0.00    +0.000 HD
ATOM     36  H   UNL     1       7.859   3.764  13.124  0.00  0.00    +0.000 HD
ATOM     37  H   UNL     1       6.895   2.725  12.275  0.00  0.00    +0.000 HD
BRANCH  34  38
ATOM     38  C   UNL     1       4.665   3.340  11.747  0.00  0.00    +0.000 C 
ATOM     39  O   UNL     1       5.040   2.209  11.452  0.00  0.00    +0.000 OA
BRANCH  38  40
ATOM     40  O   UNL     1       4.077   4.196  10.866  0.00  0.00    +0.000 OA
BRANCH  40  41
ATOM     41  C   UNL     1       3.153   3.576   9.962  0.00  0.00    +0.000 C 
ATOM     42  C   UNL     1       2.507   4.622   9.070  0.00  0.00    +0.000 C 
ENDBRANCH  40  41
ENDBRANCH  38  40
ENDBRANCH  34  38
ENDBRANCH  28  31
ENDBRANCH   4  25
TORSDOF 10
ENDMDL
MODEL 2
REMARK VINA RESULT:      -8.6      2.093     13.547
REMARK  Name = 
REMARK  12 active torsions:
REMARK  status: ('A' for Active; 'I' for Inactive)
REMARK    1  A    between atoms: C_1  and  C_2
REMARK    2  A    between atoms: C_2  and  O_3
REMARK    3  A    between atoms: O_3  and  C_4
REMARK    4  A    between atoms: C_4  and  N_6
REMARK    5  A    between atoms: N_9  and  C_10
REMARK    6  A    between atoms: C_13  and  C_14
REMARK    7  A    between atoms: C_17  and  C_18
REMARK    8  A    between atoms: C_21  and  N_22
REMARK    9  A    between atoms: N_25  and  C_26
REMARK   10  A    between atoms: C_26  and  O_28
REMARK   11  A    between atoms: O_28  and  C_29
REMARK   12  A    between atoms: C_29  and  C_30
REMARK                            x       y       z     vdW  Elec       q    Type
REMARK                         _______ _______ _______ _____ _____    ______ ____
ROOT
ATOM      1  C   UNL     1       2.964   7.189  18.236  0.00  0.00    +0.000 A 
ATOM      2  C   UNL     1       2.626   6.808  19.545  0.00  0.00    +0.000 A 
ATOM      3  C   UNL     1       1.806   7.605  20.360  0.00  0.00    +0.000 A 
ATOM      4  C   UNL     1       1.302   8.832  19.908  0.00  0.00    +0.000 A 
ATOM      5  C   UNL     1       1.677   9.232  18.617  0.00  0.00    +0.000 A 
ATOM      6  C   UNL     1       2.468   8.422  17.792  0.00  0.00    +0.000 A 
ENDROOT
BRANCH   1  10
ATOM      7  C   UNL     1       5.374   4.721  15.606  0.00  0.00    +0.000 A 
ATOM      8  C   UNL     1       5.535   6.109  15.641  0.00  0.00    +0.000 A 
ATOM      9  C   UNL     1       4.787   6.905  16.519  0.00  0.00    +0.000 A 
ATOM     10  C   UNL     1       3.829   6.346  17.380  0.00  0.00    +0.000 A 
ATOM     11  C   UNL     1       3.716   4.946  17.372  0.00  0.00    +0.000 A 
ATOM     12  C   UNL     1       4.487   4.149  16.517  0.00  0.00    +0.000 A 
BRANCH   7  16
ATOM     13  N   UNL     1       4.693   3.715  12.888  0.00  0.00    +0.000 NA
ATOM     14  C   UNL     1       5.863   3.620  13.420  0.00  0.00    +0.000 C 
ATOM     15  N   UNL     1       6.980   3.138  12.798  0.00  0.00    +0.000 N 
ATOM     16  N   UNL     1       6.157   3.974  14.710  0.00  0.00    +0.000 N 
ATOM     17  H   UNL     1       6.766   2.621  11.942  0.00  0.00    +0.000 HD
ATOM     18  H   UNL     1       7.591   2.582  13.380  0.00  0.00    +0.000 HD
ATOM     19  H   UNL     1       7.107   3.848  15.021  0.00  0.00    +0.000 HD
BRANCH  13  20
ATOM     20  C   UNL     1       4.520   3.263  11.617  0.00  0.00    +0.000 C 
ATOM     21  O   UNL     1       4.903   2.183  11.182  0.00  0.00    +0.000 OA
BRANCH  20  22
ATOM     22  O   UNL     1       3.854   4.193  10.897  0.00  0.00    +0.000 OA
BRANCH  22  24
ATOM     23  C   UNL     1       2.438   4.805   9.026  0.00  0.00    +0.000 C 
ATOM     24  C   UNL     1       3.018   3.675   9.857  0.00  0.00    +0.000 C 
ENDBRANCH  22  24
ENDBRANCH  20  22
ENDBRANCH  13  20
ENDBRANCH   7  16
ENDBRANCH   1  10
BRANCH   4  25
ATOM     25  C   UNL     1       0.378   9.650  20.725  0.00  0.00    +0.000 A 
ATOM     26  C   UNL     1       0.185   9.435  22.098  0.00  0.00    +0.000 A 
ATOM     27  C   UNL     1      -0.721  10.213  22.837  0.00  0.00    +0.000 A 
ATOM     28  C   UNL     1      -1.448  11.249  22.237  0.00  0.00    +0.000 A 
ATOM     29  C   UNL     1      -1.265  11.462  20.874  0.00  0.00    +0.000 A 
ATOM     30  C   UNL     1      -0.377  10.675  20.133  0.00  0.00    +0.000 A 
BRANCH  28  31
ATOM     31  N   UNL     1      -2.321  12.027  23.017  0.00  0.00    +0.000 N 
ATOM     32  C   UNL     1      -2.125  13.299  23.491  0.00  0.00    +0.000 C 
ATOM     33  N   UNL     1      -3.207  13.615  24.271  0.00  0.00    +0.000 N 
ATOM     34  N   UNL     1      -1.097  14.049  23.265  0.00  0.00    +0.000 NA
ATOM     35  H   UNL     1      -2.973  11.487  23.570  0.00  0.00    +0.000 HD
ATOM     36  H   UNL     1      -4.081  13.551  23.760  0.00  0.00    +0.000 HD
ATOM     37  H   UNL     1      -3.129  14.560  24.658  0.00  0.00    +0.000 HD
BRANCH  34  38
ATOM     38  C   UNL     1      -1.049  15.307  23.795  0.00  0.00    +0.000 C 
ATOM     39  O   UNL     1      -1.411  16.339  23.236  0.00  0.00    +0.000 OA
BRANCH  38  40
ATOM     40  O   UNL     1      -0.500  15.275  25.040  0.00  0.00    +0.000 OA
BRANCH  40  41
ATOM     41  C   UNL     1      -0.358  16.559  25.661  0.00  0.00    +0.000 C 
ATOM     42  C   UNL     1      -0.033  16.398  27.136  0.00  0.00    +0.000 C 
ENDBRANCH  40  41
ENDBRANCH  38  40
ENDBRANCH  34  38
ENDBRANCH  28  31
ENDBRANCH   4  25
TORSDOF 10
ENDMDL
MODEL 3
REMARK VINA RESULT:      -8.3      0.930     13.346
REMARK  Name = 
REMARK  12 active torsions:
REMARK  status: ('A' for Active; 'I' for Inactive)
REMARK    1  A    between atoms: C_1  and  C_2
REMARK    2  A    between atoms: C_2  and  O_3
REMARK    3  A    between atoms: O_3  and  C_4
REMARK    4  A    between atoms: C_4  and  N_6
REMARK    5  A    between atoms: N_9  and  C_10
REMARK    6  A    between atoms: C_13  and  C_14
REMARK    7  A    between atoms: C_17  and  C_18
REMARK    8  A    between atoms: C_21  and  N_22
REMARK    9  A    between atoms: N_25  and  C_26
REMARK   10  A    between atoms: C_26  and  O_28
REMARK   11  A    between atoms: O_28  and  C_29
REMARK   12  A    between atoms: C_29  and  C_30
REMARK                            x       y       z     vdW  Elec       q    Type
REMARK                         _______ _______ _______ _____ _____    ______ ____
ROOT
ATOM      1  C   UNL     1       3.076   7.071  18.204  0.00  0.00    +0.000 A 
ATOM      2  C   UNL     1       2.479   8.272  17.783  0.00  0.00    +0.000 A 
ATOM      3  C   UNL     1       1.628   9.009  18.622  0.00  0.00    +0.000 A 
ATOM      4  C   UNL     1       1.319   8.568  19.915  0.00  0.00    +0.000 A 
ATOM      5  C   UNL     1       1.880   7.346  20.318  0.00  0.00    +0.000 A 
ATOM      6  C   UNL     1       2.755   6.628  19.493  0.00  0.00    +0.000 A 
ENDROOT
BRANCH   1  10
ATOM      7  C   UNL     1       5.579   4.807  15.480  0.00  0.00    +0.000 A 
ATOM      8  C   UNL     1       5.709   6.194  15.595  0.00  0.00    +0.000 A 
ATOM      9  C   UNL     1       4.931   6.923  16.503  0.00  0.00    +0.000 A 
ATOM     10  C   UNL     1       3.973   6.296  17.316  0.00  0.00    +0.000 A 
ATOM     11  C   UNL     1       3.890   4.897  17.229  0.00  0.00    +0.000 A 
ATOM     12  C   UNL     1       4.693   4.166  16.343  0.00  0.00    +0.000 A 
BRANCH   7  16
ATOM     13  N   UNL     1       4.884   3.707  12.802  0.00  0.00    +0.000 NA
ATOM     14  C   UNL     1       6.080   3.731  13.284  0.00  0.00    +0.000 C 
ATOM     15  N   UNL     1       7.211   3.353  12.617  0.00  0.00    +0.000 N 
ATOM     16  N   UNL     1       6.392   4.128  14.556  0.00  0.00    +0.000 N 
ATOM     17  H   UNL     1       7.011   2.807  11.775  0.00  0.00    +0.000 HD
ATOM     18  H   UNL     1       7.896   2.864  13.176  0.00  0.00    +0.000 HD
ATOM     19  H   UNL     1       7.363   4.098  14.827  0.00  0.00    +0.000 HD
BRANCH  13  20
ATOM     20  C   UNL     1       4.702   3.225  11.543  0.00  0.00    +0.000 C 
ATOM     21  O   UNL     1       5.044   2.118  11.143  0.00  0.00    +0.000 OA
BRANCH  20  22
ATOM     22  O   UNL     1       4.078   4.159  10.792  0.00  0.00    +0.000 OA
BRANCH  22  24
ATOM     23  C   UNL     1       2.440   4.764   9.110  0.00  0.00    +0.000 C 
ATOM     24  C   UNL     1       2.937   3.694  10.064  0.00  0.00    +0.000 C 
ENDBRANCH  22  24
ENDBRANCH  20  22
ENDBRANCH  13  20
ENDBRANCH   7  16
ENDBRANCH   1  10
BRANCH   4  25
ATOM     25  C   UNL     1       0.483   9.367  20.839  0.00  0.00    +0.000 A 
ATOM     26  C   UNL     1      -0.348  10.410  20.402  0.00  0.00    +0.000 A 
ATOM     27  C   UNL     1      -1.107  11.166  21.309  0.00  0.00    +0.000 A 
ATOM     28  C   UNL     1      -1.082  10.893  22.683  0.00  0.00    +0.000 A 
ATOM     29  C   UNL     1      -0.254   9.865  23.122  0.00  0.00    +0.000 A 
ATOM     30  C   UNL     1       0.517   9.124  22.221  0.00  0.00    +0.000 A 
BRANCH  28  31
ATOM     31  N   UNL     1      -1.881  11.651  23.555  0.00  0.00    +0.000 N 
ATOM     32  C   UNL     1      -2.900  12.512  23.236  0.00  0.00    +0.000 C 
ATOM     33  N   UNL     1      -3.330  13.087  24.404  0.00  0.00    +0.000 N 
ATOM     34  N   UNL     1      -3.352  12.756  22.050  0.00  0.00    +0.000 NA
ATOM     35  H   UNL     1      -1.443  11.858  24.443  0.00  0.00    +0.000 HD
ATOM     36  H   UNL     1      -3.639  12.397  25.080  0.00  0.00    +0.000 HD
ATOM     37  H   UNL     1      -4.098  13.743  24.239  0.00  0.00    +0.000 HD
BRANCH  34  38
ATOM     38  C   UNL     1      -4.387  13.630  21.887  0.00  0.00    +0.000 C 
ATOM     39  O   UNL     1      -4.344  14.694  21.275  0.00  0.00    +0.000 OA
BRANCH  38  40
ATOM     40  O   UNL     1      -5.495  13.178  22.539  0.00  0.00    +0.000 OA
BRANCH  40  41
ATOM     41  C   UNL     1      -6.625  14.055  22.469  0.00  0.00    +0.000 C 
ATOM     42  C   UNL     1      -6.997  14.545  23.859  0.00  0.00    +0.000 C 
ENDBRANCH  40  41
ENDBRANCH  38  40
ENDBRANCH  34  38
ENDBRANCH  28  31
ENDBRANCH   4  25
TORSDOF 10
ENDMDL
MODEL 4
REMARK VINA RESULT:      -8.1      0.939     13.045
REMARK  Name = 
REMARK  12 active torsions:
REMARK  status: ('A' for Active; 'I' for Inactive)
REMARK    1  A    between atoms: C_1  and  C_2
REMARK    2  A    between atoms: C_2  and  O_3
REMARK    3  A    between atoms: O_3  and  C_4
REMARK    4  A    between atoms: C_4  and  N_6
REMARK    5  A    between atoms: N_9  and  C_10
REMARK    6  A    between atoms: C_13  and  C_14
REMARK    7  A    between atoms: C_17  and  C_18
REMARK    8  A    between atoms: C_21  and  N_22
REMARK    9  A    between atoms: N_25  and  C_26
REMARK   10  A    between atoms: C_26  and  O_28
REMARK   11  A    between atoms: O_28  and  C_29
REMARK   12  A    between atoms: C_29  and  C_30
REMARK                            x       y       z     vdW  Elec       q    Type
REMARK                         _______ _______ _______ _____ _____    ______ ____
ROOT
ATOM      1  C   UNL     1       3.237   6.803  18.093  0.00  0.00    +0.000 A 
ATOM      2  C   UNL     1       2.879   6.332  19.367  0.00  0.00    +0.000 A 
ATOM      3  C   UNL     1       2.083   7.090  20.239  0.00  0.00    +0.000 A 
ATOM      4  C   UNL     1       1.623   8.365  19.885  0.00  0.00    +0.000 A 
ATOM      5  C   UNL     1       2.017   8.852  18.629  0.00  0.00    +0.000 A 
ATOM      6  C   UNL     1       2.785   8.083  17.746  0.00  0.00    +0.000 A 
ENDROOT
BRANCH   1  10
ATOM      7  C   UNL     1       5.565   4.444  15.295  0.00  0.00    +0.000 A 
ATOM      8  C   UNL     1       5.631   5.840  15.291  0.00  0.00    +0.000 A 
ATOM      9  C   UNL     1       4.912   6.603  16.220  0.00  0.00    +0.000 A 
ATOM     10  C   UNL     1       4.078   6.001  17.175  0.00  0.00    +0.000 A 
ATOM     11  C   UNL     1       4.063   4.596  17.202  0.00  0.00    +0.000 A 
ATOM     12  C   UNL     1       4.808   3.834  16.294  0.00  0.00    +0.000 A 
BRANCH   7  16
ATOM     13  N   UNL     1       4.753   3.456  12.606  0.00  0.00    +0.000 NA
ATOM     14  C   UNL     1       5.955   3.386  13.068  0.00  0.00    +0.000 C 
ATOM     15  N   UNL     1       7.046   2.944  12.374  0.00  0.00    +0.000 N 
ATOM     16  N   UNL     1       6.314   3.731  14.343  0.00  0.00    +0.000 N 
ATOM     17  H   UNL     1       6.796   2.433  11.524  0.00  0.00    +0.000 HD
ATOM     18  H   UNL     1       7.705   2.397  12.912  0.00  0.00    +0.000 HD
ATOM     19  H   UNL     1       7.284   3.627  14.597  0.00  0.00    +0.000 HD
BRANCH  13  20
ATOM     20  C   UNL     1       4.519   3.017  11.340  0.00  0.00    +0.000 C 
ATOM     21  O   UNL     1       4.637   1.861  10.950  0.00  0.00    +0.000 OA
BRANCH  20  22
ATOM     22  O   UNL     1       4.129   4.057  10.570  0.00  0.00    +0.000 OA
BRANCH  22  24
ATOM     23  C   UNL     1       2.565   4.970   8.959  0.00  0.00    +0.000 C 
ATOM     24  C   UNL     1       2.777   4.000  10.107  0.00  0.00    +0.000 C 
ENDBRANCH  22  24
ENDBRANCH  20  22
ENDBRANCH  13  20
ENDBRANCH   7  16
ENDBRANCH   1  10
BRANCH   4  25
ATOM     25  C   UNL     1       0.722   9.147  20.761  0.00  0.00    +0.000 A 
ATOM     26  C   UNL     1       0.158   8.621  21.933  0.00  0.00    +0.000 A 
ATOM     27  C   UNL     1      -0.715   9.383  22.727  0.00  0.00    +0.000 A 
ATOM     28  C   UNL     1      -1.036  10.705  22.392  0.00  0.00    +0.000 A 
ATOM     29  C   UNL     1      -0.485  11.228  21.226  0.00  0.00    +0.000 A 
ATOM     30  C   UNL     1       0.369  10.464  20.425  0.00  0.00    +0.000 A 
BRANCH  28  31
ATOM     31  N   UNL     1      -1.888  11.445  23.229  0.00  0.00    +0.000 N 
ATOM     32  C   UNL     1      -2.859  12.343  22.866  0.00  0.00    +0.000 C 
ATOM     33  N   UNL     1      -3.372  12.879  24.019  0.00  0.00    +0.000 N 
ATOM     34  N   UNL     1      -3.206  12.648  21.658  0.00  0.00    +0.000 NA
ATOM     35  H   UNL     1      -1.521  11.603  24.157  0.00  0.00    +0.000 HD
ATOM     36  H   UNL     1      -3.751  12.169  24.636  0.00  0.00    +0.000 HD
ATOM     37  H   UNL     1      -4.110  13.560  23.821  0.00  0.00    +0.000 HD
BRANCH  34  38
ATOM     38  C   UNL     1      -4.206  13.554  21.450  0.00  0.00    +0.000 C 
ATOM     39  O   UNL     1      -4.395  14.580  22.097  0.00  0.00    +0.000 OA
BRANCH  38  40
ATOM     40  O   UNL     1      -5.010  13.143  20.431  0.00  0.00    +0.000 OA
BRANCH  40  41
ATOM     41  C   UNL     1      -5.766  11.958  20.710  0.00  0.00    +0.000 C 
ATOM     42  C   UNL     1      -6.960  12.290  21.589  0.00  0.00    +0.000 C 
ENDBRANCH  40  41
ENDBRANCH  38  40
ENDBRANCH  34  38
ENDBRANCH  28  31
ENDBRANCH   4  25
TORSDOF 10
ENDMDL
MODEL 5
REMARK VINA RESULT:      -8.0      1.602     13.115
REMARK  Name = 
REMARK  12 active torsions:
REMARK  status: ('A' for Active; 'I' for Inactive)
REMARK    1  A    between atoms: C_1  and  C_2
REMARK    2  A    between atoms: C_2  and  O_3
REMARK    3  A    between atoms: O_3  and  C_4
REMARK    4  A    between atoms: C_4  and  N_6
REMARK    5  A    between atoms: N_9  and  C_10
REMARK    6  A    between atoms: C_13  and  C_14
REMARK    7  A    between atoms: C_17  and  C_18
REMARK    8  A    between atoms: C_21  and  N_22
REMARK    9  A    between atoms: N_25  and  C_26
REMARK   10  A    between atoms: C_26  and  O_28
REMARK   11  A    between atoms: O_28  and  C_29
REMARK   12  A    between atoms: C_29  and  C_30
REMARK                            x       y       z     vdW  Elec       q    Type
REMARK                         _______ _______ _______ _____ _____    ______ ____
ROOT
ATOM      1  C   UNL     1       2.927   7.152  18.266  0.00  0.00    +0.000 A 
ATOM      2  C   UNL     1       2.365   8.354  17.805  0.00  0.00    +0.000 A 
ATOM      3  C   UNL     1       1.524   9.136  18.613  0.00  0.00    +0.000 A 
ATOM      4  C   UNL     1       1.191   8.740  19.915  0.00  0.00    +0.000 A 
ATOM      5  C   UNL     1       1.717   7.518  20.359  0.00  0.00    +0.000 A 
ATOM      6  C   UNL     1       2.582   6.754  19.565  0.00  0.00    +0.000 A 
ENDROOT
BRANCH   1  10
ATOM      7  C   UNL     1       5.397   4.742  15.640  0.00  0.00    +0.000 A 
ATOM      8  C   UNL     1       5.529   6.133  15.678  0.00  0.00    +0.000 A 
ATOM      9  C   UNL     1       4.762   6.910  16.556  0.00  0.00    +0.000 A 
ATOM     10  C   UNL     1       3.813   6.330  17.411  0.00  0.00    +0.000 A 
ATOM     11  C   UNL     1       3.729   4.927  17.400  0.00  0.00    +0.000 A 
ATOM     12  C   UNL     1       4.520   4.149  16.546  0.00  0.00    +0.000 A 
BRANCH   7  16
ATOM     13  N   UNL     1       4.740   3.709  12.925  0.00  0.00    +0.000 NA
ATOM     14  C   UNL     1       5.914   3.647  13.456  0.00  0.00    +0.000 C 
ATOM     15  N   UNL     1       7.043   3.195  12.833  0.00  0.00    +0.000 N 
ATOM     16  N   UNL     1       6.199   4.013  14.744  0.00  0.00    +0.000 N 
ATOM     17  H   UNL     1       6.841   2.670  11.979  0.00  0.00    +0.000 HD
ATOM     18  H   UNL     1       7.669   2.656  13.417  0.00  0.00    +0.000 HD
ATOM     19  H   UNL     1       7.153   3.914  15.054  0.00  0.00    +0.000 HD
BRANCH  13  20
ATOM     20  C   UNL     1       4.578   3.249  11.655  0.00  0.00    +0.000 C 
ATOM     21  O   UNL     1       4.982   2.174  11.226  0.00  0.00    +0.000 OA
BRANCH  20  22
ATOM     22  O   UNL     1       3.896   4.163  10.931  0.00  0.00    +0.000 OA
BRANCH  22  24
ATOM     23  C   UNL     1       2.429   4.748   9.091  0.00  0.00    +0.000 C 
ATOM     24  C   UNL     1       3.145   3.635   9.833  0.00  0.00    +0.000 C 
ENDBRANCH  22  24
ENDBRANCH  20  22
ENDBRANCH  13  20
ENDBRANCH   7  16
ENDBRANCH   1  10
BRANCH   4  25
ATOM     25  C   UNL     1       0.366   9.587  20.806  0.00  0.00    +0.000 A 
ATOM     26  C   UNL     1      -0.297  10.740  20.359  0.00  0.00    +0.000 A 
ATOM     27  C   UNL     1      -1.049  11.536  21.238  0.00  0.00    +0.000 A 
ATOM     28  C   UNL     1      -1.187  11.195  22.590  0.00  0.00    +0.000 A 
ATOM     29  C   UNL     1      -0.525  10.057  23.040  0.00  0.00    +0.000 A 
ATOM     30  C   UNL     1       0.240   9.274  22.169  0.00  0.00    +0.000 A 
BRANCH  28  31
ATOM     31  N   UNL     1      -1.974  11.999  23.431  0.00  0.00    +0.000 N 
ATOM     32  C   UNL     1      -2.584  13.192  23.133  0.00  0.00    +0.000 C 
ATOM     33  N   UNL     1      -3.170  13.649  24.284  0.00  0.00    +0.000 N 
ATOM     34  N   UNL     1      -2.581  13.786  21.985  0.00  0.00    +0.000 NA
ATOM     35  H   UNL     1      -1.780  11.882  24.416  0.00  0.00    +0.000 HD
ATOM     36  H   UNL     1      -3.839  12.987  24.664  0.00  0.00    +0.000 HD
ATOM     37  H   UNL     1      -3.650  14.541  24.133  0.00  0.00    +0.000 HD
BRANCH  34  38
ATOM     38  C   UNL     1      -3.249  14.967  21.834  0.00  0.00    +0.000 C 
ATOM     39  O   UNL     1      -4.354  15.235  22.297  0.00  0.00    +0.000 OA
BRANCH  38  40
ATOM     40  O   UNL     1      -2.529  15.819  21.052  0.00  0.00    +0.000 OA
BRANCH  40  41
ATOM     41  C   UNL     1      -1.385  15.228  20.425  0.00  0.00    +0.000 C 
ATOM     42  C   UNL     1      -0.165  16.115  20.610  0.00  0.00    +0.000 C 
ENDBRANCH  40  41
ENDBRANCH  38  40
ENDBRANCH  34  38
ENDBRANCH  28  31
ENDBRANCH   4  25
TORSDOF 10
ENDMDL
MODEL 6
REMARK VINA RESULT:      -8.0      3.556     13.581
REMARK  Name = 
REMARK  12 active torsions:
REMARK  status: ('A' for Active; 'I' for Inactive)
REMARK    1  A    between atoms: C_1  and  C_2
REMARK    2  A    between atoms: C_2  and  O_3
REMARK    3  A    between atoms: O_3  and  C_4
REMARK    4  A    between atoms: C_4  and  N_6
REMARK    5  A    between atoms: N_9  and  C_10
REMARK    6  A    between atoms: C_13  and  C_14
REMARK    7  A    between atoms: C_17  and  C_18
REMARK    8  A    between atoms: C_21  and  N_22
REMARK    9  A    between atoms: N_25  and  C_26
REMARK   10  A    between atoms: C_26  and  O_28
REMARK   11  A    between atoms: O_28  and  C_29
REMARK   12  A    between atoms: C_29  and  C_30
REMARK                            x       y       z     vdW  Elec       q    Type
REMARK                         _______ _______ _______ _____ _____    ______ ____
ROOT
ATOM      1  C   UNL     1       0.865   8.955  20.742  0.00  0.00    +0.000 A 
ATOM      2  C   UNL     1       0.610   8.899  22.122  0.00  0.00    +0.000 A 
ATOM      3  C   UNL     1      -0.076   9.925  22.791  0.00  0.00    +0.000 A 
ATOM      4  C   UNL     1      -0.522  11.066  22.112  0.00  0.00    +0.000 A 
ATOM      5  C   UNL     1      -0.228  11.142  20.742  0.00  0.00    +0.000 A 
ATOM      6  C   UNL     1       0.427  10.104  20.069  0.00  0.00    +0.000 A 
ENDROOT
BRANCH   1  10
ATOM      7  C   UNL     1       3.137   5.845  18.749  0.00  0.00    +0.000 A 
ATOM      8  C   UNL     1       2.553   5.623  19.999  0.00  0.00    +0.000 A 
ATOM      9  C   UNL     1       1.784   6.612  20.627  0.00  0.00    +0.000 A 
ATOM     10  C   UNL     1       1.589   7.872  20.040  0.00  0.00    +0.000 A 
ATOM     11  C   UNL     1       2.136   8.062  18.760  0.00  0.00    +0.000 A 
ATOM     12  C   UNL     1       2.877   7.061  18.119  0.00  0.00    +0.000 A 
BRANCH   7  16
ATOM     13  N   UNL     1       5.737   5.991  17.304  0.00  0.00    +0.000 NA
ATOM     14  C   UNL     1       5.139   4.888  17.605  0.00  0.00    +0.000 C 
ATOM     15  N   UNL     1       5.639   3.633  17.399  0.00  0.00    +0.000 N 
ATOM     16  N   UNL     1       3.892   4.813  18.164  0.00  0.00    +0.000 N 
ATOM     17  H   UNL     1       6.433   3.623  16.753  0.00  0.00    +0.000 HD
ATOM     18  H   UNL     1       4.962   2.943  17.105  0.00  0.00    +0.000 HD
ATOM     19  H   UNL     1       3.520   3.894  18.349  0.00  0.00    +0.000 HD
BRANCH  13  20
ATOM     20  C   UNL     1       6.947   5.924  16.688  0.00  0.00    +0.000 C 
ATOM     21  O   UNL     1       7.132   5.812  15.481  0.00  0.00    +0.000 OA
BRANCH  20  22
ATOM     22  O   UNL     1       7.927   6.004  17.615  0.00  0.00    +0.000 OA
BRANCH  22  24
ATOM     23  C   UNL     1       8.113   8.419  17.727  0.00  0.00    +0.000 C 
ATOM     24  C   UNL     1       7.848   7.134  18.490  0.00  0.00    +0.000 C 
ENDBRANCH  22  24
ENDBRANCH  20  22
ENDBRANCH  13  20
ENDBRANCH   7  16
ENDBRANCH   1  10
BRANCH   4  25
ATOM     25  C   UNL     1      -1.311  12.123  22.785  0.00  0.00    +0.000 A 
ATOM     26  C   UNL     1      -0.821  13.422  22.988  0.00  0.00    +0.000 A 
ATOM     27  C   UNL     1      -1.585  14.393  23.655  0.00  0.00    +0.000 A 
ATOM     28  C   UNL     1      -2.876  14.109  24.120  0.00  0.00    +0.000 A 
ATOM     29  C   UNL     1      -3.363  12.819  23.928  0.00  0.00    +0.000 A 
ATOM     30  C   UNL     1      -2.594  11.847  23.281  0.00  0.00    +0.000 A 
BRANCH  28  31
ATOM     31  N   UNL     1      -3.622  15.116  24.754  0.00  0.00    +0.000 N 
ATOM     32  C   UNL     1      -4.673  15.838  24.245  0.00  0.00    +0.000 C 
ATOM     33  N   UNL     1      -5.029  16.764  25.191  0.00  0.00    +0.000 N 
ATOM     34  N   UNL     1      -5.207  15.690  23.077  0.00  0.00    +0.000 NA
ATOM     35  H   UNL     1      -3.128  15.594  25.495  0.00  0.00    +0.000 HD
ATOM     36  H   UNL     1      -5.282  16.332  26.073  0.00  0.00    +0.000 HD
ATOM     37  H   UNL     1      -5.815  17.339  24.877  0.00  0.00    +0.000 HD
BRANCH  34  38
ATOM     38  C   UNL     1      -6.262  16.475  22.713  0.00  0.00    +0.000 C 
ATOM     39  O   UNL     1      -7.297  16.636  23.354  0.00  0.00    +0.000 OA
BRANCH  38  40
ATOM     40  O   UNL     1      -6.031  17.044  21.497  0.00  0.00    +0.000 OA
BRANCH  40  41
ATOM     41  C   UNL     1      -5.629  16.121  20.477  0.00  0.00    +0.000 C 
ATOM     42  C   UNL     1      -5.717  16.778  19.109  0.00  0.00    +0.000 C 
ENDBRANCH  40  41
ENDBRANCH  38  40
ENDBRANCH  34  38
ENDBRANCH  28  31
ENDBRANCH   4  25
TORSDOF 10
ENDMDL
MODEL 7
REMARK VINA RESULT:      -8.0      0.741      1.201
REMARK  Name = 
REMARK  12 active torsions:
REMARK  status: ('A' for Active; 'I' for Inactive)
REMARK    1  A    between atoms: C_1  and  C_2
REMARK    2  A    between atoms: C_2  and  O_3
REMARK    3  A    between atoms: O_3  and  C_4
REMARK    4  A    between atoms: C_4  and  N_6
REMARK    5  A    between atoms: N_9  and  C_10
REMARK    6  A    between atoms: C_13  and  C_14
REMARK    7  A    between atoms: C_17  and  C_18
REMARK    8  A    between atoms: C_21  and  N_22
REMARK    9  A    between atoms: N_25  and  C_26
REMARK   10  A    between atoms: C_26  and  O_28
REMARK   11  A    between atoms: O_28  and  C_29
REMARK   12  A    between atoms: C_29  and  C_30
REMARK                            x       y       z     vdW  Elec       q    Type
REMARK                         _______ _______ _______ _____ _____    ______ ____
ROOT
ATOM      1  C   UNL     1       1.383   8.684  19.960  0.00  0.00    +0.000 A 
ATOM      2  C   UNL     1       1.983   7.473  20.343  0.00  0.00    +0.000 A 
ATOM      3  C   UNL     1       2.771   6.724  19.455  0.00  0.00    +0.000 A 
ATOM      4  C   UNL     1       2.979   7.143  18.134  0.00  0.00    +0.000 A 
ATOM      5  C   UNL     1       2.343   8.330  17.740  0.00  0.00    +0.000 A 
ATOM      6  C   UNL     1       1.584   9.094  18.635  0.00  0.00    +0.000 A 
ENDROOT
BRANCH   1  10
ATOM      7  C   UNL     1      -1.188  10.886  22.672  0.00  0.00    +0.000 A 
ATOM      8  C   UNL     1      -0.365   9.856  23.135  0.00  0.00    +0.000 A 
ATOM      9  C   UNL     1       0.497   9.170  22.269  0.00  0.00    +0.000 A 
ATOM     10  C   UNL     1       0.551   9.471  20.899  0.00  0.00    +0.000 A 
ATOM     11  C   UNL     1      -0.242  10.544  20.457  0.00  0.00    +0.000 A 
ATOM     12  C   UNL     1      -1.078  11.250  21.331  0.00  0.00    +0.000 A 
BRANCH   7  16
ATOM     13  N   UNL     1      -3.563  12.609  22.162  0.00  0.00    +0.000 NA
ATOM     14  C   UNL     1      -3.180  12.237  23.336  0.00  0.00    +0.000 C 
ATOM     15  N   UNL     1      -3.844  12.488  24.503  0.00  0.00    +0.000 N 
ATOM     16  N   UNL     1      -2.027  11.543  23.589  0.00  0.00    +0.000 N 
ATOM     17  H   UNL     1      -4.555  13.217  24.407  0.00  0.00    +0.000 HD
ATOM     18  H   UNL     1      -3.254  12.700  25.296  0.00  0.00    +0.000 HD
ATOM     19  H   UNL     1      -1.824  11.312  24.549  0.00  0.00    +0.000 HD
BRANCH  13  20
ATOM     20  C   UNL     1      -4.696  13.354  22.056  0.00  0.00    +0.000 C 
ATOM     21  O   UNL     1      -4.743  14.557  21.829  0.00  0.00    +0.000 OA
BRANCH  20  22
ATOM     22  O   UNL     1      -5.773  12.559  22.239  0.00  0.00    +0.000 OA
BRANCH  22  24
ATOM     23  C   UNL     1      -6.848  14.062  23.809  0.00  0.00    +0.000 C 
ATOM     24  C   UNL     1      -6.993  13.244  22.539  0.00  0.00    +0.000 C 
ENDBRANCH  22  24
ENDBRANCH  20  22
ENDBRANCH  13  20
ENDBRANCH   7  16
ENDBRANCH   1  10
BRANCH   4  25
ATOM     25  C   UNL     1       3.867   6.406  17.207  0.00  0.00    +0.000 A 
ATOM     26  C   UNL     1       3.936   5.004  17.175  0.00  0.00    +0.000 A 
ATOM     27  C   UNL     1       4.809   4.337  16.301  0.00  0.00    +0.000 A 
ATOM     28  C   UNL     1       5.625   5.045  15.409  0.00  0.00    +0.000 A 
ATOM     29  C   UNL     1       5.566   6.435  15.442  0.00  0.00    +0.000 A 
ATOM     30  C   UNL     1       4.710   7.100  16.326  0.00  0.00    +0.000 A 
BRANCH  28  31
ATOM     31  N   UNL     1       6.462   4.340  14.527  0.00  0.00    +0.000 N 
ATOM     32  C   UNL     1       6.130   3.756  13.331  0.00  0.00    +0.000 C 
ATOM     33  N   UNL     1       7.247   3.113  12.866  0.00  0.00    +0.000 N 
ATOM     34  N   UNL     1       4.969   3.785  12.763  0.00  0.00    +0.000 NA
ATOM     35  H   UNL     1       7.270   3.922  14.968  0.00  0.00    +0.000 HD
ATOM     36  H   UNL     1       8.034   3.743  12.753  0.00  0.00    +0.000 HD
ATOM     37  H   UNL     1       7.070   2.655  11.968  0.00  0.00    +0.000 HD
BRANCH  34  38
ATOM     38  C   UNL     1       4.791   3.168  11.558  0.00  0.00    +0.000 C 
ATOM     39  O   UNL     1       5.117   2.017  11.282  0.00  0.00    +0.000 OA
BRANCH  38  40
ATOM     40  O   UNL     1       4.224   4.028  10.666  0.00  0.00    +0.000 OA
BRANCH  40  41
ATOM     41  C   UNL     1       2.952   3.606  10.160  0.00  0.00    +0.000 C 
ATOM     42  C   UNL     1       2.440   4.597   9.129  0.00  0.00    +0.000 C 
ENDBRANCH  40  41
ENDBRANCH  38  40
ENDBRANCH  34  38
ENDBRANCH  28  31
ENDBRANCH   4  25
TORSDOF 10
ENDMDL
MODEL 8
REMARK VINA RESULT:      -7.9      3.363     13.515
REMARK  Name = 
REMARK  12 active torsions:
REMARK  status: ('A' for Active; 'I' for Inactive)
REMARK    1  A    between atoms: C_1  and  C_2
REMARK    2  A    between atoms: C_2  and  O_3
REMARK    3  A    between atoms: O_3  and  C_4
REMARK    4  A    between atoms: C_4  and  N_6
REMARK    5  A    between atoms: N_9  and  C_10
REMARK    6  A    between atoms: C_13  and  C_14
REMARK    7  A    between atoms: C_17  and  C_18
REMARK    8  A    between atoms: C_21  and  N_22
REMARK    9  A    between atoms: N_25  and  C_26
REMARK   10  A    between atoms: C_26  and  O_28
REMARK   11  A    between atoms: O_28  and  C_29
REMARK   12  A    between atoms: C_29  and  C_30
REMARK                            x       y       z     vdW  Elec       q    Type
REMARK                         _______ _______ _______ _____ _____    ______ ____
ROOT
ATOM      1  C   UNL     1       1.012   8.974  20.633  0.00  0.00    +0.000 A 
ATOM      2  C   UNL     1       0.864   8.944  22.030  0.00  0.00    +0.000 A 
ATOM      3  C   UNL     1       0.133   9.926  22.718  0.00  0.00    +0.000 A 
ATOM      4  C   UNL     1      -0.468  10.995  22.040  0.00  0.00    +0.000 A 
ATOM      5  C   UNL     1      -0.281  11.048  20.651  0.00  0.00    +0.000 A 
ATOM      6  C   UNL     1       0.420  10.051  19.961  0.00  0.00    +0.000 A 
ENDROOT
BRANCH   1  10
ATOM      7  C   UNL     1       3.123   5.871  18.459  0.00  0.00    +0.000 A 
ATOM      8  C   UNL     1       2.934   7.140  17.904  0.00  0.00    +0.000 A 
ATOM      9  C   UNL     1       2.289   8.156  18.620  0.00  0.00    +0.000 A 
ATOM     10  C   UNL     1       1.784   7.937  19.911  0.00  0.00    +0.000 A 
ATOM     11  C   UNL     1       2.028   6.675  20.477  0.00  0.00    +0.000 A 
ATOM     12  C   UNL     1       2.703   5.670  19.773  0.00  0.00    +0.000 A 
BRANCH   7  16
ATOM     13  N   UNL     1       5.680   6.064  16.944  0.00  0.00    +0.000 NA
ATOM     14  C   UNL     1       5.015   4.970  17.102  0.00  0.00    +0.000 C 
ATOM     15  N   UNL     1       5.418   3.731  16.690  0.00  0.00    +0.000 N 
ATOM     16  N   UNL     1       3.784   4.893  17.696  0.00  0.00    +0.000 N 
ATOM     17  H   UNL     1       6.188   3.768  16.017  0.00  0.00    +0.000 HD
ATOM     18  H   UNL     1       4.684   3.139  16.326  0.00  0.00    +0.000 HD
ATOM     19  H   UNL     1       3.354   3.983  17.757  0.00  0.00    +0.000 HD
BRANCH  13  20
ATOM     20  C   UNL     1       6.862   6.013  16.275  0.00  0.00    +0.000 C 
ATOM     21  O   UNL     1       7.085   5.358  15.262  0.00  0.00    +0.000 OA
BRANCH  20  22
ATOM     22  O   UNL     1       7.764   6.802  16.898  0.00  0.00    +0.000 OA
BRANCH  22  24
ATOM     23  C   UNL     1       8.336   8.819  18.116  0.00  0.00    +0.000 C 
ATOM     24  C   UNL     1       7.248   8.038  17.403  0.00  0.00    +0.000 C 
ENDBRANCH  22  24
ENDBRANCH  20  22
ENDBRANCH  13  20
ENDBRANCH   7  16
ENDBRANCH   1  10
BRANCH   4  25
ATOM     25  C   UNL     1      -1.303  11.998  22.739  0.00  0.00    +0.000 A 
ATOM     26  C   UNL     1      -2.593  11.715  23.212  0.00  0.00    +0.000 A 
ATOM     27  C   UNL     1      -3.369  12.698  23.846  0.00  0.00    +0.000 A 
ATOM     28  C   UNL     1      -2.875  13.992  24.054  0.00  0.00    +0.000 A 
ATOM     29  C   UNL     1      -1.598  14.280  23.581  0.00  0.00    +0.000 A 
ATOM     30  C   UNL     1      -0.833  13.307  22.931  0.00  0.00    +0.000 A 
BRANCH  28  31
ATOM     31  N   UNL     1      -3.670  14.939  24.722  0.00  0.00    +0.000 N 
ATOM     32  C   UNL     1      -4.572  15.819  24.180  0.00  0.00    +0.000 C 
ATOM     33  N   UNL     1      -5.043  16.602  25.201  0.00  0.00    +0.000 N 
ATOM     34  N   UNL     1      -4.895  15.910  22.931  0.00  0.00    +0.000 NA
ATOM     35  H   UNL     1      -3.291  15.246  25.608  0.00  0.00    +0.000 HD
ATOM     36  H   UNL     1      -5.473  16.053  25.938  0.00  0.00    +0.000 HD
ATOM     37  H   UNL     1      -5.730  17.284  24.866  0.00  0.00    +0.000 HD
BRANCH  34  38
ATOM     38  C   UNL     1      -5.826  16.829  22.540  0.00  0.00    +0.000 C 
ATOM     39  O   UNL     1      -6.913  17.028  23.075  0.00  0.00    +0.000 OA
BRANCH  38  40
ATOM     40  O   UNL     1      -5.399  17.489  21.428  0.00  0.00    +0.000 OA
BRANCH  40  41
ATOM     41  C   UNL     1      -5.239  16.661  20.269  0.00  0.00    +0.000 C 
ATOM     42  C   UNL     1      -5.238  17.511  19.010  0.00  0.00    +0.000 C 
ENDBRANCH  40  41
ENDBRANCH  38  40
ENDBRANCH  34  38
ENDBRANCH  28  31
ENDBRANCH   4  25
TORSDOF 10
ENDMDL
MODEL 9
REMARK VINA RESULT:      -7.8      3.287     13.633
REMARK  Name = 
REMARK  12 active torsions:
REMARK  status: ('A' for Active; 'I' for Inactive)
REMARK    1  A    between atoms: C_1  and  C_2
REMARK    2  A    between atoms: C_2  and  O_3
REMARK    3  A    between atoms: O_3  and  C_4
REMARK    4  A    between atoms: C_4  and  N_6
REMARK    5  A    between atoms: N_9  and  C_10
REMARK    6  A    between atoms: C_13  and  C_14
REMARK    7  A    between atoms: C_17  and  C_18
REMARK    8  A    between atoms: C_21  and  N_22
REMARK    9  A    between atoms: N_25  and  C_26
REMARK   10  A    between atoms: C_26  and  O_28
REMARK   11  A    between atoms: O_28  and  C_29
REMARK   12  A    between atoms: C_29  and  C_30
REMARK                            x       y       z     vdW  Elec       q    Type
REMARK                         _______ _______ _______ _____ _____    ______ ____
ROOT
ATOM      1  C   UNL     1       1.024   8.791  20.395  0.00  0.00    +0.000 A 
ATOM      2  C   UNL     1       0.965  10.095  19.876  0.00  0.00    +0.000 A 
ATOM      3  C   UNL     1       0.274  11.123  20.536  0.00  0.00    +0.000 A 
ATOM      4  C   UNL     1      -0.407  10.889  21.738  0.00  0.00    +0.000 A 
ATOM      5  C   UNL     1      -0.384   9.577  22.232  0.00  0.00    +0.000 A 
ATOM      6  C   UNL     1       0.333   8.558  21.591  0.00  0.00    +0.000 A 
ENDROOT
BRANCH   1  10
ATOM      7  C   UNL     1       3.008   5.562  18.284  0.00  0.00    +0.000 A 
ATOM      8  C   UNL     1       2.911   6.839  17.723  0.00  0.00    +0.000 A 
ATOM      9  C   UNL     1       2.308   7.894  18.420  0.00  0.00    +0.000 A 
ATOM     10  C   UNL     1       1.754   7.708  19.696  0.00  0.00    +0.000 A 
ATOM     11  C   UNL     1       1.905   6.434  20.269  0.00  0.00    +0.000 A 
ATOM     12  C   UNL     1       2.538   5.389  19.585  0.00  0.00    +0.000 A 
BRANCH   7  16
ATOM     13  N   UNL     1       5.903   5.108  17.758  0.00  0.00    +0.000 NA
ATOM     14  C   UNL     1       4.969   4.292  17.407  0.00  0.00    +0.000 C 
ATOM     15  N   UNL     1       5.162   3.066  16.834  0.00  0.00    +0.000 N 
ATOM     16  N   UNL     1       3.630   4.545  17.541  0.00  0.00    +0.000 N 
ATOM     17  H   UNL     1       6.110   2.941  16.473  0.00  0.00    +0.000 HD
ATOM     18  H   UNL     1       4.496   2.817  16.116  0.00  0.00    +0.000 HD
ATOM     19  H   UNL     1       2.989   3.835  17.223  0.00  0.00    +0.000 HD
BRANCH  13  20
ATOM     20  C   UNL     1       7.194   4.763  17.507  0.00  0.00    +0.000 C 
ATOM     21  O   UNL     1       7.662   4.491  16.407  0.00  0.00    +0.000 OA
BRANCH  20  22
ATOM     22  O   UNL     1       7.893   4.767  18.664  0.00  0.00    +0.000 OA
BRANCH  22  24
ATOM     23  C   UNL     1       8.185   7.174  18.619  0.00  0.00    +0.000 C 
ATOM     24  C   UNL     1       7.780   5.964  19.440  0.00  0.00    +0.000 C 
ENDBRANCH  22  24
ENDBRANCH  20  22
ENDBRANCH  13  20
ENDBRANCH   7  16
ENDBRANCH   1  10
BRANCH   4  25
ATOM     25  C   UNL     1      -1.078  11.977  22.485  0.00  0.00    +0.000 A 
ATOM     26  C   UNL     1      -0.564  13.281  22.553  0.00  0.00    +0.000 A 
ATOM     27  C   UNL     1      -1.213  14.282  23.294  0.00  0.00    +0.000 A 
ATOM     28  C   UNL     1      -2.411  14.023  23.972  0.00  0.00    +0.000 A 
ATOM     29  C   UNL     1      -2.921  12.730  23.913  0.00  0.00    +0.000 A 
ATOM     30  C   UNL     1      -2.265  11.727  23.191  0.00  0.00    +0.000 A 
BRANCH  28  31
ATOM     31  N   UNL     1      -3.047  15.060  24.676  0.00  0.00    +0.000 N 
ATOM     32  C   UNL     1      -4.173  15.759  24.319  0.00  0.00    +0.000 C 
ATOM     33  N   UNL     1      -4.371  16.727  25.269  0.00  0.00    +0.000 N 
ATOM     34  N   UNL     1      -4.895  15.557  23.266  0.00  0.00    +0.000 NA
ATOM     35  H   UNL     1      -2.438  15.571  25.301  0.00  0.00    +0.000 HD
ATOM     36  H   UNL     1      -4.469  16.336  26.199  0.00  0.00    +0.000 HD
ATOM     37  H   UNL     1      -5.203  17.288  25.065  0.00  0.00    +0.000 HD
BRANCH  34  38
ATOM     38  C   UNL     1      -6.002  16.326  23.049  0.00  0.00    +0.000 C 
ATOM     39  O   UNL     1      -6.056  17.550  23.126  0.00  0.00    +0.000 OA
BRANCH  38  40
ATOM     40  O   UNL     1      -7.076  15.538  22.765  0.00  0.00    +0.000 OA
BRANCH  40  41
ATOM     41  C   UNL     1      -6.792  14.134  22.734  0.00  0.00    +0.000 C 
ATOM     42  C   UNL     1      -7.211  13.541  21.400  0.00  0.00    +0.000 C 
ENDBRANCH  40  41
ENDBRANCH  38  40
ENDBRANCH  34  38
ENDBRANCH  28  31
ENDBRANCH   4  25
TORSDOF 10
ENDMDL
