MODEL 1
REMARK VINA RESULT:      -7.5      0.000      0.000
REMARK  Name = 
REMARK  4 active torsions:
REMARK  status: ('A' for Active; 'I' for Inactive)
REMARK    1  A    between atoms: C_1  and  O_2
REMARK    2  A    between atoms: O_2  and  C_3
REMARK    3  A    between atoms: C_9  and  C_10
REMARK    4  A    between atoms: C_18  and  C_19
REMARK                            x       y       z     vdW  Elec       q    Type
REMARK                         _______ _______ _______ _____ _____    ______ ____
ROOT
ATOM      1  C   UNL     1      -0.756  12.644  22.058  0.00  0.00    +0.000 A 
ATOM      2  C   UNL     1       0.354  13.375  21.595  0.00  0.00    +0.000 A 
ATOM      3  C   UNL     1       0.936  13.082  20.359  0.00  0.00    +0.000 A 
ATOM      4  C   UNL     1       0.398  12.052  19.622  0.00  0.00    +0.000 A 
ATOM      5  C   UNL     1      -0.723  11.348  20.041  0.00  0.00    +0.000 A 
ATOM      6  C   UNL     1      -1.315  11.637  21.260  0.00  0.00    +0.000 A 
ATOM      7  C   UNL     1      -1.050  10.294  19.038  0.00  0.00    +0.000 C 
ATOM      8  C   UNL     1       0.310  10.275  18.272  0.00  0.00    +0.000 C 
ATOM      9  O   UNL     1       0.960  11.566  18.468  0.00  0.00    +0.000 OA
ENDROOT
BRANCH   7  10
ATOM     10  C   UNL     1      -2.238  10.632  18.146  0.00  0.00    +0.000 A 
ATOM     11  C   UNL     1      -3.346  11.358  18.621  0.00  0.00    +0.000 A 
ATOM     12  C   UNL     1      -4.400  11.690  17.766  0.00  0.00    +0.000 A 
ATOM     13 BR   UNL     1      -5.862  12.688  18.430  0.00  0.00    +0.000 Br
ATOM     14  C   UNL     1      -4.380  11.305  16.430  0.00  0.00    +0.000 A 
ATOM     15  C   UNL     1      -3.294  10.574  15.955  0.00  0.00    +0.000 A 
ATOM     16 BR   UNL     1      -3.251  10.045  14.139  0.00  0.00    +0.000 Br
ATOM     17  C   UNL     1      -2.232  10.238  16.800  0.00  0.00    +0.000 A 
ENDBRANCH   7  10
BRANCH   8  18
ATOM     18  C   UNL     1       1.212   9.127  18.728  0.00  0.00    +0.000 A 
ATOM     19  C   UNL     1       2.080   8.523  17.806  0.00  0.00    +0.000 A 
ATOM     20  C   UNL     1       2.860   7.424  18.178  0.00  0.00    +0.000 A 
ATOM     21  C   UNL     1       2.779   6.911  19.470  0.00  0.00    +0.000 A 
ATOM     22  C   UNL     1       1.928   7.502  20.398  0.00  0.00    +0.000 A 
ATOM     23  C   UNL     1       1.153   8.603  20.030  0.00  0.00    +0.000 A 
ENDBRANCH   8  18
BRANCH   1  25
ATOM     24  C   UNL     1      -2.620  12.168  23.452  0.00  0.00    +0.000 C 
ATOM     25  O   UNL     1      -1.364  12.814  23.273  0.00  0.00    +0.000 OA
ENDBRANCH   1  25
TORSDOF 3
ENDMDL
MODEL 2
REMARK VINA RESULT:      -7.4      0.272      1.890
REMARK  Name = 
REMARK  4 active torsions:
REMARK  status: ('A' for Active; 'I' for Inactive)
REMARK    1  A    between atoms: C_1  and  O_2
REMARK    2  A    between atoms: O_2  and  C_3
REMARK    3  A    between atoms: C_9  and  C_10
REMARK    4  A    between atoms: C_18  and  C_19
REMARK                            x       y       z     vdW  Elec       q    Type
REMARK                         _______ _______ _______ _____ _____    ______ ____
ROOT
ATOM      1  C   UNL     1      -0.433  12.718  21.947  0.00  0.00    +0.000 A 
ATOM      2  C   UNL     1       0.702  13.381  21.444  0.00  0.00    +0.000 A 
ATOM      3  C   UNL     1       1.252  13.018  20.212  0.00  0.00    +0.000 A 
ATOM      4  C   UNL     1       0.656  11.988  19.520  0.00  0.00    +0.000 A 
ATOM      5  C   UNL     1      -0.489  11.353  19.978  0.00  0.00    +0.000 A 
ATOM      6  C   UNL     1      -1.050  11.711  21.193  0.00  0.00    +0.000 A 
ATOM      7  C   UNL     1      -0.879  10.280  19.017  0.00  0.00    +0.000 C 
ATOM      8  C   UNL     1       0.467  10.172  18.235  0.00  0.00    +0.000 C 
ATOM      9  O   UNL     1       1.179  11.437  18.376  0.00  0.00    +0.000 OA
ENDROOT
BRANCH   7  10
ATOM     10  C   UNL     1      -2.063  10.641  18.130  0.00  0.00    +0.000 A 
ATOM     11  C   UNL     1      -2.129  10.256  16.779  0.00  0.00    +0.000 A 
ATOM     12  C   UNL     1      -3.250  10.566  16.004  0.00  0.00    +0.000 A 
ATOM     13 BR   UNL     1      -3.318  10.011  14.197  0.00  0.00    +0.000 Br
ATOM     14  C   UNL     1      -4.321  11.266  16.549  0.00  0.00    +0.000 A 
ATOM     15  C   UNL     1      -4.258  11.663  17.882  0.00  0.00    +0.000 A 
ATOM     16 BR   UNL     1      -5.707  12.614  18.640  0.00  0.00    +0.000 Br
ATOM     17  C   UNL     1      -3.143  11.357  18.669  0.00  0.00    +0.000 A 
ENDBRANCH   7  10
BRANCH   8  18
ATOM     18  C   UNL     1       1.322   9.000  18.720  0.00  0.00    +0.000 A 
ATOM     19  C   UNL     1       2.173   8.345  17.816  0.00  0.00    +0.000 A 
ATOM     20  C   UNL     1       2.909   7.226  18.215  0.00  0.00    +0.000 A 
ATOM     21  C   UNL     1       2.801   6.742  19.517  0.00  0.00    +0.000 A 
ATOM     22  C   UNL     1       1.967   7.384  20.427  0.00  0.00    +0.000 A 
ATOM     23  C   UNL     1       1.237   8.504  20.032  0.00  0.00    +0.000 A 
ENDBRANCH   8  18
BRANCH   1  25
ATOM     24  C   UNL     1      -2.432  12.838  23.226  0.00  0.00    +0.000 C 
ATOM     25  O   UNL     1      -1.015  12.960  23.164  0.00  0.00    +0.000 OA
ENDBRANCH   1  25
TORSDOF 3
ENDMDL
MODEL 3
REMARK VINA RESULT:      -7.3      8.224     10.211
REMARK  Name = 
REMARK  4 active torsions:
REMARK  status: ('A' for Active; 'I' for Inactive)
REMARK    1  A    between atoms: C_1  and  O_2
REMARK    2  A    between atoms: O_2  and  C_3
REMARK    3  A    between atoms: C_9  and  C_10
REMARK    4  A    between atoms: C_18  and  C_19
REMARK                            x       y       z     vdW  Elec       q    Type
REMARK                         _______ _______ _______ _____ _____    ______ ____
ROOT
ATOM      1  C   UNL     1       7.617   7.906  17.956  0.00  0.00    +0.000 A 
ATOM      2  C   UNL     1       8.212   7.047  18.900  0.00  0.00    +0.000 A 
ATOM      3  C   UNL     1       7.899   5.686  18.920  0.00  0.00    +0.000 A 
ATOM      4  C   UNL     1       6.987   5.220  18.001  0.00  0.00    +0.000 A 
ATOM      5  C   UNL     1       6.423   6.043  17.036  0.00  0.00    +0.000 A 
ATOM      6  C   UNL     1       6.733   7.393  16.998  0.00  0.00    +0.000 A 
ATOM      7  C   UNL     1       5.470   5.251  16.204  0.00  0.00    +0.000 C 
ATOM      8  C   UNL     1       5.303   4.023  17.154  0.00  0.00    +0.000 C 
ATOM      9  O   UNL     1       6.483   3.944  18.007  0.00  0.00    +0.000 OA
ENDROOT
BRANCH   7  10
ATOM     10  C   UNL     1       6.007   4.879  14.828  0.00  0.00    +0.000 A 
ATOM     11  C   UNL     1       5.326   3.993  13.975  0.00  0.00    +0.000 A 
ATOM     12  C   UNL     1       5.823   3.706  12.701  0.00  0.00    +0.000 A 
ATOM     13 BR   UNL     1       4.868   2.530  11.569  0.00  0.00    +0.000 Br
ATOM     14  C   UNL     1       7.005   4.285  12.252  0.00  0.00    +0.000 A 
ATOM     15  C   UNL     1       7.693   5.152  13.096  0.00  0.00    +0.000 A 
ATOM     16 BR   UNL     1       9.302   5.950  12.499  0.00  0.00    +0.000 Br
ATOM     17  C   UNL     1       7.205   5.449  14.371  0.00  0.00    +0.000 A 
ENDBRANCH   7  10
BRANCH   8  18
ATOM     18  C   UNL     1       4.023   4.111  17.987  0.00  0.00    +0.000 A 
ATOM     19  C   UNL     1       2.780   3.904  17.368  0.00  0.00    +0.000 A 
ATOM     20  C   UNL     1       1.593   4.051  18.091  0.00  0.00    +0.000 A 
ATOM     21  C   UNL     1       1.630   4.411  19.435  0.00  0.00    +0.000 A 
ATOM     22  C   UNL     1       2.854   4.613  20.066  0.00  0.00    +0.000 A 
ATOM     23  C   UNL     1       4.039   4.461  19.348  0.00  0.00    +0.000 A 
ENDBRANCH   8  18
BRANCH   1  25
ATOM     24  C   UNL     1       8.900   9.785  18.640  0.00  0.00    +0.000 C 
ATOM     25  O   UNL     1       7.812   9.260  17.887  0.00  0.00    +0.000 OA
ENDBRANCH   1  25
TORSDOF 3
ENDMDL
MODEL 4
REMARK VINA RESULT:      -7.3      3.348      6.235
REMARK  Name = 
REMARK  4 active torsions:
REMARK  status: ('A' for Active; 'I' for Inactive)
REMARK    1  A    between atoms: C_1  and  O_2
REMARK    2  A    between atoms: O_2  and  C_3
REMARK    3  A    between atoms: C_9  and  C_10
REMARK    4  A    between atoms: C_18  and  C_19
REMARK                            x       y       z     vdW  Elec       q    Type
REMARK                         _______ _______ _______ _____ _____    ______ ____
ROOT
ATOM      1  C   UNL     1       2.838  13.093  18.697  0.00  0.00    +0.000 A 
ATOM      2  C   UNL     1       2.239  13.422  19.928  0.00  0.00    +0.000 A 
ATOM      3  C   UNL     1       1.277  12.585  20.499  0.00  0.00    +0.000 A 
ATOM      4  C   UNL     1       0.929  11.443  19.814  0.00  0.00    +0.000 A 
ATOM      5  C   UNL     1       1.540  11.079  18.622  0.00  0.00    +0.000 A 
ATOM      6  C   UNL     1       2.503  11.895  18.051  0.00  0.00    +0.000 A 
ATOM      7  C   UNL     1       0.939   9.808  18.125  0.00  0.00    +0.000 C 
ATOM      8  C   UNL     1      -0.354   9.807  18.999  0.00  0.00    +0.000 C 
ATOM      9  O   UNL     1      -0.100  10.616  20.187  0.00  0.00    +0.000 OA
ENDROOT
BRANCH   7  10
ATOM     10  C   UNL     1       1.813   8.580  18.343  0.00  0.00    +0.000 A 
ATOM     11  C   UNL     1       1.572   7.666  19.384  0.00  0.00    +0.000 A 
ATOM     12  C   UNL     1       2.367   6.526  19.532  0.00  0.00    +0.000 A 
ATOM     13 BR   UNL     1       1.998   5.304  20.927  0.00  0.00    +0.000 Br
ATOM     14  C   UNL     1       3.417   6.274  18.656  0.00  0.00    +0.000 A 
ATOM     15  C   UNL     1       3.672   7.180  17.630  0.00  0.00    +0.000 A 
ATOM     16 BR   UNL     1       5.096   6.851  16.429  0.00  0.00    +0.000 Br
ATOM     17  C   UNL     1       2.883   8.323  17.472  0.00  0.00    +0.000 A 
ENDBRANCH   7  10
BRANCH   8  18
ATOM     18  C   UNL     1      -1.571  10.324  18.229  0.00  0.00    +0.000 A 
ATOM     19  C   UNL     1      -2.449  11.226  18.849  0.00  0.00    +0.000 A 
ATOM     20  C   UNL     1      -3.607  11.655  18.194  0.00  0.00    +0.000 A 
ATOM     21  C   UNL     1      -3.906  11.186  16.918  0.00  0.00    +0.000 A 
ATOM     22  C   UNL     1      -3.043  10.296  16.286  0.00  0.00    +0.000 A 
ATOM     23  C   UNL     1      -1.884   9.872  16.936  0.00  0.00    +0.000 A 
ENDBRANCH   8  18
BRANCH   1  25
ATOM     24  C   UNL     1       4.337  14.935  18.764  0.00  0.00    +0.000 C 
ATOM     25  O   UNL     1       3.748  13.869  18.028  0.00  0.00    +0.000 OA
ENDBRANCH   1  25
TORSDOF 3
ENDMDL
MODEL 5
REMARK VINA RESULT:      -7.1      3.352      6.411
REMARK  Name = 
REMARK  4 active torsions:
REMARK  status: ('A' for Active; 'I' for Inactive)
REMARK    1  A    between atoms: C_1  and  O_2
REMARK    2  A    between atoms: O_2  and  C_3
REMARK    3  A    between atoms: C_9  and  C_10
REMARK    4  A    between atoms: C_18  and  C_19
REMARK                            x       y       z     vdW  Elec       q    Type
REMARK                         _______ _______ _______ _____ _____    ______ ____
ROOT
ATOM      1  C   UNL     1       2.755  13.070  18.796  0.00  0.00    +0.000 A 
ATOM      2  C   UNL     1       2.142  13.342  20.033  0.00  0.00    +0.000 A 
ATOM      3  C   UNL     1       1.183  12.472  20.559  0.00  0.00    +0.000 A 
ATOM      4  C   UNL     1       0.854  11.356  19.825  0.00  0.00    +0.000 A 
ATOM      5  C   UNL     1       1.480  11.048  18.625  0.00  0.00    +0.000 A 
ATOM      6  C   UNL     1       2.439  11.896  18.098  0.00  0.00    +0.000 A 
ATOM      7  C   UNL     1       0.897   9.791  18.071  0.00  0.00    +0.000 C 
ATOM      8  C   UNL     1      -0.404   9.742  18.932  0.00  0.00    +0.000 C 
ATOM      9  O   UNL     1      -0.170  10.503  20.154  0.00  0.00    +0.000 OA
ENDROOT
BRANCH   7  10
ATOM     10  C   UNL     1       1.783   8.565  18.248  0.00  0.00    +0.000 A 
ATOM     11  C   UNL     1       2.874   8.303  17.400  0.00  0.00    +0.000 A 
ATOM     12  C   UNL     1       3.694   7.192  17.616  0.00  0.00    +0.000 A 
ATOM     13 BR   UNL     1       5.168   6.883  16.473  0.00  0.00    +0.000 Br
ATOM     14  C   UNL     1       3.445   6.318  18.669  0.00  0.00    +0.000 A 
ATOM     15  C   UNL     1       2.358   6.562  19.504  0.00  0.00    +0.000 A 
ATOM     16 BR   UNL     1       2.007   5.384  20.943  0.00  0.00    +0.000 Br
ATOM     17  C   UNL     1       1.532   7.671  19.300  0.00  0.00    +0.000 A 
ENDBRANCH   7  10
BRANCH   8  18
ATOM     18  C   UNL     1      -1.618  10.276  18.171  0.00  0.00    +0.000 A 
ATOM     19  C   UNL     1      -2.473  11.199  18.795  0.00  0.00    +0.000 A 
ATOM     20  C   UNL     1      -3.629  11.646  18.150  0.00  0.00    +0.000 A 
ATOM     21  C   UNL     1      -3.951  11.175  16.880  0.00  0.00    +0.000 A 
ATOM     22  C   UNL     1      -3.112  10.265  16.245  0.00  0.00    +0.000 A 
ATOM     23  C   UNL     1      -1.954   9.823  16.885  0.00  0.00    +0.000 A 
ENDBRANCH   8  18
BRANCH   1  25
ATOM     24  C   UNL     1       3.783  15.208  18.669  0.00  0.00    +0.000 C 
ATOM     25  O   UNL     1       3.663  13.882  18.168  0.00  0.00    +0.000 OA
ENDBRANCH   1  25
TORSDOF 3
ENDMDL
MODEL 6
REMARK VINA RESULT:      -7.1      0.960      1.069
REMARK  Name = 
REMARK  4 active torsions:
REMARK  status: ('A' for Active; 'I' for Inactive)
REMARK    1  A    between atoms: C_1  and  O_2
REMARK    2  A    between atoms: O_2  and  C_3
REMARK    3  A    between atoms: C_9  and  C_10
REMARK    4  A    between atoms: C_18  and  C_19
REMARK                            x       y       z     vdW  Elec       q    Type
REMARK                         _______ _______ _______ _____ _____    ______ ____
ROOT
ATOM      1  C   UNL     1       0.364  13.005  21.398  0.00  0.00    +0.000 A 
ATOM      2  C   UNL     1       1.473  13.482  20.673  0.00  0.00    +0.000 A 
ATOM      3  C   UNL     1       1.844  12.885  19.466  0.00  0.00    +0.000 A 
ATOM      4  C   UNL     1       1.102  11.815  19.021  0.00  0.00    +0.000 A 
ATOM      5  C   UNL     1      -0.020  11.359  19.699  0.00  0.00    +0.000 A 
ATOM      6  C   UNL     1      -0.405  11.949  20.892  0.00  0.00    +0.000 A 
ATOM      7  C   UNL     1      -0.593  10.187  18.976  0.00  0.00    +0.000 C 
ATOM      8  C   UNL     1       0.639   9.843  18.081  0.00  0.00    +0.000 C 
ATOM      9  O   UNL     1       1.445  11.050  17.934  0.00  0.00    +0.000 OA
ENDROOT
BRANCH   7  10
ATOM     10  C   UNL     1      -1.849  10.505  18.174  0.00  0.00    +0.000 A 
ATOM     11  C   UNL     1      -2.950  11.169  18.744  0.00  0.00    +0.000 A 
ATOM     12  C   UNL     1      -4.070  11.485  17.970  0.00  0.00    +0.000 A 
ATOM     13 BR   UNL     1      -5.523  12.402  18.760  0.00  0.00    +0.000 Br
ATOM     14  C   UNL     1      -4.123  11.144  16.623  0.00  0.00    +0.000 A 
ATOM     15  C   UNL     1      -3.043  10.474  16.054  0.00  0.00    +0.000 A 
ATOM     16 BR   UNL     1      -3.097  10.006  14.222  0.00  0.00    +0.000 Br
ATOM     17  C   UNL     1      -1.916  10.155  16.817  0.00  0.00    +0.000 A 
ENDBRANCH   7  10
BRANCH   8  18
ATOM     18  C   UNL     1       1.466   8.692  18.657  0.00  0.00    +0.000 A 
ATOM     19  C   UNL     1       2.360   8.000  17.825  0.00  0.00    +0.000 A 
ATOM     20  C   UNL     1       3.072   6.899  18.308  0.00  0.00    +0.000 A 
ATOM     21  C   UNL     1       2.897   6.470  19.621  0.00  0.00    +0.000 A 
ATOM     22  C   UNL     1       2.019   7.149  20.461  0.00  0.00    +0.000 A 
ATOM     23  C   UNL     1       1.313   8.252  19.983  0.00  0.00    +0.000 A 
ENDBRANCH   8  18
BRANCH   1  25
ATOM     24  C   UNL     1      -0.208  14.892  22.724  0.00  0.00    +0.000 C 
ATOM     25  O   UNL     1      -0.049  13.482  22.614  0.00  0.00    +0.000 OA
ENDBRANCH   1  25
TORSDOF 3
ENDMDL
MODEL 7
REMARK VINA RESULT:      -7.1      1.796      4.875
REMARK  Name = 
REMARK  4 active torsions:
REMARK  status: ('A' for Active; 'I' for Inactive)
REMARK    1  A    between atoms: C_1  and  O_2
REMARK    2  A    between atoms: O_2  and  C_3
REMARK    3  A    between atoms: C_9  and  C_10
REMARK    4  A    between atoms: C_18  and  C_19
REMARK                            x       y       z     vdW  Elec       q    Type
REMARK                         _______ _______ _______ _____ _____    ______ ____
ROOT
ATOM      1  C   UNL     1       0.206   8.986  21.510  0.00  0.00    +0.000 A 
ATOM      2  C   UNL     1      -0.236   9.398  22.781  0.00  0.00    +0.000 A 
ATOM      3  C   UNL     1      -0.885  10.625  22.947  0.00  0.00    +0.000 A 
ATOM      4  C   UNL     1      -1.063  11.415  21.834  0.00  0.00    +0.000 A 
ATOM      5  C   UNL     1      -0.673  11.006  20.566  0.00  0.00    +0.000 A 
ATOM      6  C   UNL     1      -0.039   9.788  20.387  0.00  0.00    +0.000 A 
ATOM      7  C   UNL     1      -0.988  12.081  19.581  0.00  0.00    +0.000 C 
ATOM      8  C   UNL     1      -1.191  13.260  20.584  0.00  0.00    +0.000 C 
ATOM      9  O   UNL     1      -1.549  12.697  21.881  0.00  0.00    +0.000 OA
ENDROOT
BRANCH   7  10
ATOM     10  C   UNL     1      -2.217  11.800  18.726  0.00  0.00    +0.000 A 
ATOM     11  C   UNL     1      -2.120  11.242  17.439  0.00  0.00    +0.000 A 
ATOM     12  C   UNL     1      -3.269  10.956  16.697  0.00  0.00    +0.000 A 
ATOM     13 BR   UNL     1      -3.104  10.181  14.980  0.00  0.00    +0.000 Br
ATOM     14  C   UNL     1      -4.533  11.222  17.213  0.00  0.00    +0.000 A 
ATOM     15  C   UNL     1      -4.638  11.787  18.481  0.00  0.00    +0.000 A 
ATOM     16 BR   UNL     1      -6.350  12.154  19.198  0.00  0.00    +0.000 Br
ATOM     17  C   UNL     1      -3.496  12.076  19.233  0.00  0.00    +0.000 A 
ENDBRANCH   7  10
BRANCH   8  18
ATOM     18  C   UNL     1       0.051  14.146  20.689  0.00  0.00    +0.000 A 
ATOM     19  C   UNL     1       0.810  14.413  19.539  0.00  0.00    +0.000 A 
ATOM     20  C   UNL     1       1.990  15.157  19.621  0.00  0.00    +0.000 A 
ATOM     21  C   UNL     1       2.430  15.640  20.851  0.00  0.00    +0.000 A 
ATOM     22  C   UNL     1       1.687  15.390  22.001  0.00  0.00    +0.000 A 
ATOM     23  C   UNL     1       0.506  14.653  21.919  0.00  0.00    +0.000 A 
ENDBRANCH   8  18
BRANCH   1  25
ATOM     24  C   UNL     1       1.815   7.874  20.161  0.00  0.00    +0.000 C 
ATOM     25  O   UNL     1       0.898   7.833  21.250  0.00  0.00    +0.000 OA
ENDBRANCH   1  25
TORSDOF 3
ENDMDL
MODEL 8
REMARK VINA RESULT:      -7.0      2.084      3.105
REMARK  Name = 
REMARK  4 active torsions:
REMARK  status: ('A' for Active; 'I' for Inactive)
REMARK    1  A    between atoms: C_1  and  O_2
REMARK    2  A    between atoms: O_2  and  C_3
REMARK    3  A    between atoms: C_9  and  C_10
REMARK    4  A    between atoms: C_18  and  C_19
REMARK                            x       y       z     vdW  Elec       q    Type
REMARK                         _______ _______ _______ _____ _____    ______ ____
ROOT
ATOM      1  C   UNL     1      -0.149  15.159  19.497  0.00  0.00    +0.000 A 
ATOM      2  C   UNL     1       1.055  14.760  18.888  0.00  0.00    +0.000 A 
ATOM      3  C   UNL     1       1.263  13.426  18.527  0.00  0.00    +0.000 A 
ATOM      4  C   UNL     1       0.262  12.522  18.799  0.00  0.00    +0.000 A 
ATOM      5  C   UNL     1      -0.949  12.904  19.360  0.00  0.00    +0.000 A 
ATOM      6  C   UNL     1      -1.172  14.225  19.712  0.00  0.00    +0.000 A 
ATOM      7  C   UNL     1      -1.813  11.701  19.541  0.00  0.00    +0.000 C 
ATOM      8  C   UNL     1      -0.712  10.604  19.400  0.00  0.00    +0.000 C 
ATOM      9  O   UNL     1       0.395  11.166  18.633  0.00  0.00    +0.000 OA
ENDROOT
BRANCH   7  10
ATOM     10  C   UNL     1      -2.925  11.574  18.508  0.00  0.00    +0.000 A 
ATOM     11  C   UNL     1      -4.231  12.033  18.756  0.00  0.00    +0.000 A 
ATOM     12  C   UNL     1      -5.219  11.941  17.772  0.00  0.00    +0.000 A 
ATOM     13 BR   UNL     1      -6.957  12.592  18.129  0.00  0.00    +0.000 Br
ATOM     14  C   UNL     1      -4.933  11.387  16.529  0.00  0.00    +0.000 A 
ATOM     15  C   UNL     1      -3.646  10.917  16.279  0.00  0.00    +0.000 A 
ATOM     16 BR   UNL     1      -3.241  10.163  14.592  0.00  0.00    +0.000 Br
ATOM     17  C   UNL     1      -2.650  11.006  17.255  0.00  0.00    +0.000 A 
ENDBRANCH   7  10
BRANCH   8  18
ATOM     18  C   UNL     1      -0.236  10.087  20.759  0.00  0.00    +0.000 A 
ATOM     19  C   UNL     1      -0.912  10.484  21.924  0.00  0.00    +0.000 A 
ATOM     20  C   UNL     1      -0.453  10.086  23.182  0.00  0.00    +0.000 A 
ATOM     21  C   UNL     1       0.687   9.295  23.296  0.00  0.00    +0.000 A 
ATOM     22  C   UNL     1       1.365   8.887  22.151  0.00  0.00    +0.000 A 
ATOM     23  C   UNL     1       0.905   9.278  20.894  0.00  0.00    +0.000 A 
ENDBRANCH   8  18
BRANCH   1  25
ATOM     24  C   UNL     1      -0.459  17.451  18.950  0.00  0.00    +0.000 C 
ATOM     25  O   UNL     1      -0.431  16.426  19.938  0.00  0.00    +0.000 OA
ENDBRANCH   1  25
TORSDOF 3
ENDMDL
MODEL 9
REMARK VINA RESULT:      -7.0      1.966      4.570
REMARK  Name = 
REMARK  4 active torsions:
REMARK  status: ('A' for Active; 'I' for Inactive)
REMARK    1  A    between atoms: C_1  and  O_2
REMARK    2  A    between atoms: O_2  and  C_3
REMARK    3  A    between atoms: C_9  and  C_10
REMARK    4  A    between atoms: C_18  and  C_19
REMARK                            x       y       z     vdW  Elec       q    Type
REMARK                         _______ _______ _______ _____ _____    ______ ____
ROOT
ATOM      1  C   UNL     1      -0.036   9.473  21.637  0.00  0.00    +0.000 A 
ATOM      2  C   UNL     1      -0.323  10.342  22.706  0.00  0.00    +0.000 A 
ATOM      3  C   UNL     1      -0.757  11.648  22.464  0.00  0.00    +0.000 A 
ATOM      4  C   UNL     1      -0.878  12.055  21.155  0.00  0.00    +0.000 A 
ATOM      5  C   UNL     1      -0.642  11.199  20.089  0.00  0.00    +0.000 A 
ATOM      6  C   UNL     1      -0.222   9.898  20.315  0.00  0.00    +0.000 A 
ATOM      7  C   UNL     1      -0.844  11.935  18.807  0.00  0.00    +0.000 C 
ATOM      8  C   UNL     1      -0.791  13.391  19.368  0.00  0.00    +0.000 C 
ATOM      9  O   UNL     1      -1.150  13.347  20.781  0.00  0.00    +0.000 OA
ENDROOT
BRANCH   7  10
ATOM     10  C   UNL     1      -2.155  11.608  18.103  0.00  0.00    +0.000 A 
ATOM     11  C   UNL     1      -2.192  11.089  16.797  0.00  0.00    +0.000 A 
ATOM     12  C   UNL     1      -3.410  10.759  16.195  0.00  0.00    +0.000 A 
ATOM     13 BR   UNL     1      -3.422  10.039  14.447  0.00  0.00    +0.000 Br
ATOM     14  C   UNL     1      -4.610  10.942  16.873  0.00  0.00    +0.000 A 
ATOM     15  C   UNL     1      -4.583  11.468  18.162  0.00  0.00    +0.000 A 
ATOM     16 BR   UNL     1      -6.208  11.721  19.098  0.00  0.00    +0.000 Br
ATOM     17  C   UNL     1      -3.372  11.801  18.775  0.00  0.00    +0.000 A 
ENDBRANCH   7  10
BRANCH   8  18
ATOM     18  C   UNL     1       0.580  14.037  19.165  0.00  0.00    +0.000 A 
ATOM     19  C   UNL     1       0.741  15.409  19.413  0.00  0.00    +0.000 A 
ATOM     20  C   UNL     1       1.964  16.038  19.164  0.00  0.00    +0.000 A 
ATOM     21  C   UNL     1       3.039  15.309  18.661  0.00  0.00    +0.000 A 
ATOM     22  C   UNL     1       2.898  13.946  18.415  0.00  0.00    +0.000 A 
ATOM     23  C   UNL     1       1.680  13.316  18.668  0.00  0.00    +0.000 A 
ENDBRANCH   8  18
BRANCH   1  25
ATOM     24  C   UNL     1       1.441   7.795  20.829  0.00  0.00    +0.000 C 
ATOM     25  O   UNL     1       0.446   8.196  21.765  0.00  0.00    +0.000 OA
ENDBRANCH   1  25
TORSDOF 3
ENDMDL
