MODEL 1
REMARK VINA RESULT:      -8.2      0.000      0.000
REMARK  Name = 
REMARK  11 active torsions:
REMARK  status: ('A' for Active; 'I' for Inactive)
REMARK    1  A    between atoms: C_1  and  C_2
REMARK    2  A    between atoms: C_2  and  C_3
REMARK    3  A    between atoms: C_2  and  C_4
REMARK    4  A    between atoms: C_2  and  C_5
REMARK    5  A    between atoms: C_7  and  C_8
REMARK    6  A    between atoms: N_10  and  N_11
REMARK    7  A    between atoms: N_11  and  C_12
REMARK    8  A    between atoms: C_15  and  O_16
REMARK    9  A    between atoms: O_16  and  C_17
REMARK   10  A    between atoms: N_23  and  C_24
REMARK   11  A    between atoms: C_24  and  C_25
REMARK                            x       y       z     vdW  Elec       q    Type
REMARK                         _______ _______ _______ _____ _____    ______ ____
ROOT
ATOM      1  C   UNL     1       2.411   7.851  18.362  0.00  0.00    +0.000 C 
ATOM      2  O   UNL     1       2.710   8.224  17.229  0.00  0.00    +0.000 OA
ATOM      3  N   UNL     1       1.751   8.732  19.217  0.00  0.00    +0.000 N 
ATOM      4  H   UNL     1       1.742   9.714  18.967  0.00  0.00    +0.000 HD
ENDROOT
BRANCH   1   7
ATOM      5  C   UNL     1       2.581   4.412  19.611  0.00  0.00    +0.000 A 
ATOM      6  C   UNL     1       1.852   5.608  19.467  0.00  0.00    +0.000 A 
ATOM      7  C   UNL     1       2.700   6.522  18.859  0.00  0.00    +0.000 A 
ATOM      8  N   UNL     1       3.922   5.892  18.849  0.00  0.00    +0.000 N 
ATOM      9  N   UNL     1       3.859   4.602  19.266  0.00  0.00    +0.000 NA
BRANCH   5  11
ATOM     10  C   UNL     1       2.790   2.637  21.410  0.00  0.00    +0.000 C 
ATOM     11  C   UNL     1       2.085   3.063  20.102  0.00  0.00    +0.000 C 
ATOM     12  C   UNL     1       2.370   1.994  19.033  0.00  0.00    +0.000 C 
ATOM     13  C   UNL     1       0.572   3.110  20.394  0.00  0.00    +0.000 C 
ENDBRANCH   5  11
BRANCH   8  14
ATOM     14  C   UNL     1       5.217   6.446  18.458  0.00  0.00    +0.000 C 
BRANCH  14  15
ATOM     15  C   UNL     1       5.774   5.815  17.205  0.00  0.00    +0.000 A 
ATOM     16  C   UNL     1       6.919   5.006  17.264  0.00  0.00    +0.000 A 
ATOM     17  C   UNL     1       7.399   4.371  16.115  0.00  0.00    +0.000 A 
ATOM     18  C   UNL     1       6.746   4.541  14.895  0.00  0.00    +0.000 A 
ATOM     19  C   UNL     1       5.610   5.343  14.823  0.00  0.00    +0.000 A 
ATOM     20  C   UNL     1       5.125   5.972  15.970  0.00  0.00    +0.000 A 
ENDBRANCH  14  15
ENDBRANCH   8  14
ENDBRANCH   1   7
BRANCH   3  21
ATOM     21  N   UNL     1       1.349   8.356  20.509  0.00  0.00    +0.000 N 
ATOM     22  H   UNL     1       0.695   7.569  20.467  0.00  0.00    +0.000 HD
BRANCH  21  23
ATOM     23  C   UNL     1       0.730   9.335  21.316  0.00  0.00    +0.000 A 
ATOM     24  C   UNL     1       0.693  10.644  20.794  0.00  0.00    +0.000 A 
ATOM     25  C   UNL     1       0.002  11.662  21.443  0.00  0.00    +0.000 A 
ATOM     26  C   UNL     1      -0.709  11.387  22.608  0.00  0.00    +0.000 A 
ATOM     27  C   UNL     1      -0.668  10.101  23.151  0.00  0.00    +0.000 A 
ATOM     28  C   UNL     1       0.026   9.073  22.489  0.00  0.00    +0.000 A 
BRANCH  26  29
ATOM     29  O   UNL     1      -1.340  12.458  23.155  0.00  0.00    +0.000 OA
BRANCH  29  30
ATOM     30  C   UNL     1      -2.759  12.498  23.139  0.00  0.00    +0.000 C 
ATOM     31  F   UNL     1      -3.354  11.698  24.047  0.00  0.00    +0.000 F 
ATOM     32  F   UNL     1      -3.158  13.770  23.357  0.00  0.00    +0.000 F 
ATOM     33  F   UNL     1      -3.189  12.127  21.913  0.00  0.00    +0.000 F 
ENDBRANCH  29  30
ENDBRANCH  26  29
ENDBRANCH  21  23
ENDBRANCH   3  21
TORSDOF 8
ENDMDL
MODEL 2
REMARK VINA RESULT:      -8.0      0.109      1.346
REMARK  Name = 
REMARK  11 active torsions:
REMARK  status: ('A' for Active; 'I' for Inactive)
REMARK    1  A    between atoms: C_1  and  C_2
REMARK    2  A    between atoms: C_2  and  C_3
REMARK    3  A    between atoms: C_2  and  C_4
REMARK    4  A    between atoms: C_2  and  C_5
REMARK    5  A    between atoms: C_7  and  C_8
REMARK    6  A    between atoms: N_10  and  N_11
REMARK    7  A    between atoms: N_11  and  C_12
REMARK    8  A    between atoms: C_15  and  O_16
REMARK    9  A    between atoms: O_16  and  C_17
REMARK   10  A    between atoms: N_23  and  C_24
REMARK   11  A    between atoms: C_24  and  C_25
REMARK                            x       y       z     vdW  Elec       q    Type
REMARK                         _______ _______ _______ _____ _____    ______ ____
ROOT
ATOM      1  C   UNL     1       2.365   7.896  18.396  0.00  0.00    +0.000 C 
ATOM      2  O   UNL     1       2.629   8.252  17.250  0.00  0.00    +0.000 OA
ATOM      3  N   UNL     1       1.751   8.798  19.266  0.00  0.00    +0.000 N 
ATOM      4  H   UNL     1       1.750   9.777  19.005  0.00  0.00    +0.000 HD
ENDROOT
BRANCH   1   7
ATOM      5  C   UNL     1       2.522   4.464  19.666  0.00  0.00    +0.000 A 
ATOM      6  C   UNL     1       1.803   5.666  19.527  0.00  0.00    +0.000 A 
ATOM      7  C   UNL     1       2.649   6.568  18.898  0.00  0.00    +0.000 A 
ATOM      8  N   UNL     1       3.864   5.926  18.871  0.00  0.00    +0.000 N 
ATOM      9  N   UNL     1       3.796   4.638  19.298  0.00  0.00    +0.000 NA
BRANCH   5  11
ATOM     10  C   UNL     1       2.264   1.996  19.144  0.00  0.00    +0.000 C 
ATOM     11  C   UNL     1       2.022   3.123  20.174  0.00  0.00    +0.000 C 
ATOM     12  C   UNL     1       0.510   3.210  20.445  0.00  0.00    +0.000 C 
ATOM     13  C   UNL     1       2.756   2.721  21.469  0.00  0.00    +0.000 C 
ENDBRANCH   5  11
BRANCH   8  14
ATOM     14  C   UNL     1       5.158   6.464  18.454  0.00  0.00    +0.000 C 
BRANCH  14  15
ATOM     15  C   UNL     1       5.720   5.772  17.235  0.00  0.00    +0.000 A 
ATOM     16  C   UNL     1       5.130   5.960  15.976  0.00  0.00    +0.000 A 
ATOM     17  C   UNL     1       5.686   5.371  14.837  0.00  0.00    +0.000 A 
ATOM     18  C   UNL     1       6.833   4.585  14.944  0.00  0.00    +0.000 A 
ATOM     19  C   UNL     1       7.427   4.389  16.188  0.00  0.00    +0.000 A 
ATOM     20  C   UNL     1       6.877   4.982  17.325  0.00  0.00    +0.000 A 
ENDBRANCH  14  15
ENDBRANCH   8  14
ENDBRANCH   1   7
BRANCH   3  21
ATOM     21  N   UNL     1       1.390   8.442  20.575  0.00  0.00    +0.000 N 
ATOM     22  H   UNL     1       0.772   7.624  20.568  0.00  0.00    +0.000 HD
BRANCH  21  23
ATOM     23  C   UNL     1       0.740   9.415  21.365  0.00  0.00    +0.000 A 
ATOM     24  C   UNL     1       0.675  10.716  20.827  0.00  0.00    +0.000 A 
ATOM     25  C   UNL     1      -0.047  11.724  21.457  0.00  0.00    +0.000 A 
ATOM     26  C   UNL     1      -0.759  11.446  22.620  0.00  0.00    +0.000 A 
ATOM     27  C   UNL     1      -0.691  10.168  23.179  0.00  0.00    +0.000 A 
ATOM     28  C   UNL     1       0.033   9.149  22.536  0.00  0.00    +0.000 A 
BRANCH  26  29
ATOM     29  O   UNL     1      -1.421  12.508  23.149  0.00  0.00    +0.000 OA
BRANCH  29  30
ATOM     30  C   UNL     1      -2.841  12.490  23.165  0.00  0.00    +0.000 C 
ATOM     31  F   UNL     1      -3.413  13.666  23.494  0.00  0.00    +0.000 F 
ATOM     32  F   UNL     1      -3.282  12.123  21.943  0.00  0.00    +0.000 F 
ATOM     33  F   UNL     1      -3.253  11.563  24.058  0.00  0.00    +0.000 F 
ENDBRANCH  29  30
ENDBRANCH  26  29
ENDBRANCH  21  23
ENDBRANCH   3  21
TORSDOF 8
ENDMDL
MODEL 3
REMARK VINA RESULT:      -8.0      0.408      1.292
REMARK  Name = 
REMARK  11 active torsions:
REMARK  status: ('A' for Active; 'I' for Inactive)
REMARK    1  A    between atoms: C_1  and  C_2
REMARK    2  A    between atoms: C_2  and  C_3
REMARK    3  A    between atoms: C_2  and  C_4
REMARK    4  A    between atoms: C_2  and  C_5
REMARK    5  A    between atoms: C_7  and  C_8
REMARK    6  A    between atoms: N_10  and  N_11
REMARK    7  A    between atoms: N_11  and  C_12
REMARK    8  A    between atoms: C_15  and  O_16
REMARK    9  A    between atoms: O_16  and  C_17
REMARK   10  A    between atoms: N_23  and  C_24
REMARK   11  A    between atoms: C_24  and  C_25
REMARK                            x       y       z     vdW  Elec       q    Type
REMARK                         _______ _______ _______ _____ _____    ______ ____
ROOT
ATOM      1  C   UNL     1       2.417   8.016  18.139  0.00  0.00    +0.000 C 
ATOM      2  O   UNL     1       2.712   8.325  16.987  0.00  0.00    +0.000 OA
ATOM      3  N   UNL     1       1.722   8.928  18.933  0.00  0.00    +0.000 N 
ATOM      4  H   UNL     1       1.683   9.891  18.620  0.00  0.00    +0.000 HD
ENDROOT
BRANCH   1   7
ATOM      5  C   UNL     1       2.690   4.683  19.632  0.00  0.00    +0.000 A 
ATOM      6  C   UNL     1       1.936   5.853  19.427  0.00  0.00    +0.000 A 
ATOM      7  C   UNL     1       2.746   6.732  18.723  0.00  0.00    +0.000 A 
ATOM      8  N   UNL     1       3.978   6.122  18.716  0.00  0.00    +0.000 N 
ATOM      9  N   UNL     1       3.952   4.865  19.228  0.00  0.00    +0.000 NA
BRANCH   5  11
ATOM     10  C   UNL     1       3.176   2.203  19.847  0.00  0.00    +0.000 C 
ATOM     11  C   UNL     1       2.236   3.366  20.238  0.00  0.00    +0.000 C 
ATOM     12  C   UNL     1       0.822   3.032  19.733  0.00  0.00    +0.000 C 
ATOM     13  C   UNL     1       2.228   3.447  21.778  0.00  0.00    +0.000 C 
ENDBRANCH   5  11
BRANCH   8  14
ATOM     14  C   UNL     1       5.249   6.665  18.239  0.00  0.00    +0.000 C 
BRANCH  14  15
ATOM     15  C   UNL     1       5.798   5.921  17.045  0.00  0.00    +0.000 A 
ATOM     16  C   UNL     1       6.911   5.079  17.181  0.00  0.00    +0.000 A 
ATOM     17  C   UNL     1       7.381   4.342  16.091  0.00  0.00    +0.000 A 
ATOM     18  C   UNL     1       6.748   4.442  14.852  0.00  0.00    +0.000 A 
ATOM     19  C   UNL     1       5.643   5.276  14.703  0.00  0.00    +0.000 A 
ATOM     20  C   UNL     1       5.168   6.007  15.793  0.00  0.00    +0.000 A 
ENDBRANCH  14  15
ENDBRANCH   8  14
ENDBRANCH   1   7
BRANCH   3  21
ATOM     21  N   UNL     1       1.324   8.622  20.245  0.00  0.00    +0.000 N 
ATOM     22  H   UNL     1       0.772   7.759  20.260  0.00  0.00    +0.000 HD
BRANCH  21  23
ATOM     23  C   UNL     1       0.562   9.585  20.942  0.00  0.00    +0.000 A 
ATOM     24  C   UNL     1       0.032   9.183  22.185  0.00  0.00    +0.000 A 
ATOM     25  C   UNL     1      -0.628  10.083  23.014  0.00  0.00    +0.000 A 
ATOM     26  C   UNL     1      -0.737  11.420  22.643  0.00  0.00    +0.000 A 
ATOM     27  C   UNL     1      -0.235  11.833  21.407  0.00  0.00    +0.000 A 
ATOM     28  C   UNL     1       0.438  10.923  20.574  0.00  0.00    +0.000 A 
BRANCH  26  29
ATOM     29  O   UNL     1      -1.406  12.204  23.529  0.00  0.00    +0.000 OA
BRANCH  29  30
ATOM     30  C   UNL     1      -2.793  12.431  23.329  0.00  0.00    +0.000 C 
ATOM     31  F   UNL     1      -3.216  12.239  22.063  0.00  0.00    +0.000 F 
ATOM     32  F   UNL     1      -3.487  11.608  24.145  0.00  0.00    +0.000 F 
ATOM     33  F   UNL     1      -3.078  13.705  23.675  0.00  0.00    +0.000 F 
ENDBRANCH  29  30
ENDBRANCH  26  29
ENDBRANCH  21  23
ENDBRANCH   3  21
TORSDOF 8
ENDMDL
MODEL 4
REMARK VINA RESULT:      -8.0      5.004      9.236
REMARK  Name = 
REMARK  11 active torsions:
REMARK  status: ('A' for Active; 'I' for Inactive)
REMARK    1  A    between atoms: C_1  and  C_2
REMARK    2  A    between atoms: C_2  and  C_3
REMARK    3  A    between atoms: C_2  and  C_4
REMARK    4  A    between atoms: C_2  and  C_5
REMARK    5  A    between atoms: C_7  and  C_8
REMARK    6  A    between atoms: N_10  and  N_11
REMARK    7  A    between atoms: N_11  and  C_12
REMARK    8  A    between atoms: C_15  and  O_16
REMARK    9  A    between atoms: O_16  and  C_17
REMARK   10  A    between atoms: N_23  and  C_24
REMARK   11  A    between atoms: C_24  and  C_25
REMARK                            x       y       z     vdW  Elec       q    Type
REMARK                         _______ _______ _______ _____ _____    ______ ____
ROOT
ATOM      1  C   UNL     1       0.132   9.657  21.731  0.00  0.00    +0.000 C 
ATOM      2  O   UNL     1      -0.804   9.770  22.519  0.00  0.00    +0.000 OA
ATOM      3  N   UNL     1       0.893   8.488  21.740  0.00  0.00    +0.000 N 
ATOM      4  H   UNL     1       0.798   7.870  22.537  0.00  0.00    +0.000 HD
ENDROOT
BRANCH   1   7
ATOM      5  C   UNL     1       1.371  12.448  19.709  0.00  0.00    +0.000 A 
ATOM      6  C   UNL     1       1.113  11.902  20.980  0.00  0.00    +0.000 A 
ATOM      7  C   UNL     1       0.487  10.682  20.772  0.00  0.00    +0.000 A 
ATOM      8  N   UNL     1       0.239  10.657  19.420  0.00  0.00    +0.000 N 
ATOM      9  N   UNL     1       0.802  11.701  18.757  0.00  0.00    +0.000 NA
BRANCH   5  11
ATOM     10  C   UNL     1       3.117  13.476  18.183  0.00  0.00    +0.000 C 
ATOM     11  C   UNL     1       2.150  13.707  19.367  0.00  0.00    +0.000 C 
ATOM     12  C   UNL     1       2.978  14.143  20.587  0.00  0.00    +0.000 C 
ATOM     13  C   UNL     1       1.193  14.845  18.958  0.00  0.00    +0.000 C 
ENDBRANCH   5  11
BRANCH   8  14
ATOM     14  C   UNL     1      -0.532   9.674  18.663  0.00  0.00    +0.000 C 
BRANCH  14  15
ATOM     15  C   UNL     1      -1.742  10.269  17.983  0.00  0.00    +0.000 A 
ATOM     16  C   UNL     1      -2.059   9.922  16.661  0.00  0.00    +0.000 A 
ATOM     17  C   UNL     1      -3.212  10.423  16.053  0.00  0.00    +0.000 A 
ATOM     18  C   UNL     1      -4.059  11.280  16.754  0.00  0.00    +0.000 A 
ATOM     19  C   UNL     1      -3.755  11.635  18.066  0.00  0.00    +0.000 A 
ATOM     20  C   UNL     1      -2.607  11.129  18.678  0.00  0.00    +0.000 A 
ENDBRANCH  14  15
ENDBRANCH   8  14
ENDBRANCH   1   7
BRANCH   3  21
ATOM     21  N   UNL     1       1.952   8.282  20.840  0.00  0.00    +0.000 N 
ATOM     22  H   UNL     1       1.991   9.039  20.152  0.00  0.00    +0.000 HD
BRANCH  21  23
ATOM     23  C   UNL     1       1.960   7.080  20.100  0.00  0.00    +0.000 A 
ATOM     24  C   UNL     1       2.474   7.156  18.789  0.00  0.00    +0.000 A 
ATOM     25  C   UNL     1       2.646   6.016  18.012  0.00  0.00    +0.000 A 
ATOM     26  C   UNL     1       2.351   4.763  18.542  0.00  0.00    +0.000 A 
ATOM     27  C   UNL     1       1.823   4.668  19.831  0.00  0.00    +0.000 A 
ATOM     28  C   UNL     1       1.657   5.822  20.616  0.00  0.00    +0.000 A 
BRANCH  26  29
ATOM     29  O   UNL     1       2.553   3.724  17.690  0.00  0.00    +0.000 OA
BRANCH  29  30
ATOM     30  C   UNL     1       3.843   3.132  17.627  0.00  0.00    +0.000 C 
ATOM     31  F   UNL     1       3.841   1.784  17.599  0.00  0.00    +0.000 F 
ATOM     32  F   UNL     1       4.471   3.585  16.520  0.00  0.00    +0.000 F 
ATOM     33  F   UNL     1       4.553   3.526  18.706  0.00  0.00    +0.000 F 
ENDBRANCH  29  30
ENDBRANCH  26  29
ENDBRANCH  21  23
ENDBRANCH   3  21
TORSDOF 8
ENDMDL
MODEL 5
REMARK VINA RESULT:      -8.0      4.745      9.454
REMARK  Name = 
REMARK  11 active torsions:
REMARK  status: ('A' for Active; 'I' for Inactive)
REMARK    1  A    between atoms: C_1  and  C_2
REMARK    2  A    between atoms: C_2  and  C_3
REMARK    3  A    between atoms: C_2  and  C_4
REMARK    4  A    between atoms: C_2  and  C_5
REMARK    5  A    between atoms: C_7  and  C_8
REMARK    6  A    between atoms: N_10  and  N_11
REMARK    7  A    between atoms: N_11  and  C_12
REMARK    8  A    between atoms: C_15  and  O_16
REMARK    9  A    between atoms: O_16  and  C_17
REMARK   10  A    between atoms: N_23  and  C_24
REMARK   11  A    between atoms: C_24  and  C_25
REMARK                            x       y       z     vdW  Elec       q    Type
REMARK                         _______ _______ _______ _____ _____    ______ ____
ROOT
ATOM      1  C   UNL     1      -0.630  11.317  21.986  0.00  0.00    +0.000 C 
ATOM      2  O   UNL     1      -1.325  11.224  22.996  0.00  0.00    +0.000 OA
ATOM      3  N   UNL     1       0.164  10.237  21.603  0.00  0.00    +0.000 N 
ATOM      4  H   UNL     1       0.320   9.502  22.283  0.00  0.00    +0.000 HD
ENDROOT
BRANCH   1   7
ATOM      5  C   UNL     1      -0.008  14.349  20.028  0.00  0.00    +0.000 A 
ATOM      6  C   UNL     1       0.334  13.527  21.118  0.00  0.00    +0.000 A 
ATOM      7  C   UNL     1      -0.600  12.502  21.154  0.00  0.00    +0.000 A 
ATOM      8  N   UNL     1      -1.539  12.868  20.219  0.00  0.00    +0.000 N 
ATOM      9  N   UNL     1      -1.176  13.964  19.502  0.00  0.00    +0.000 NA
BRANCH   5  11
ATOM     10  C   UNL     1       1.296  16.449  20.595  0.00  0.00    +0.000 C 
ATOM     11  C   UNL     1       0.757  15.536  19.469  0.00  0.00    +0.000 C 
ATOM     12  C   UNL     1      -0.177  16.373  18.578  0.00  0.00    +0.000 C 
ATOM     13  C   UNL     1       1.972  15.064  18.645  0.00  0.00    +0.000 C 
ENDBRANCH   5  11
BRANCH   8  14
ATOM     14  C   UNL     1      -2.824  12.233  19.936  0.00  0.00    +0.000 C 
BRANCH  14  15
ATOM     15  C   UNL     1      -2.823  11.449  18.645  0.00  0.00    +0.000 A 
ATOM     16  C   UNL     1      -3.847  11.628  17.703  0.00  0.00    +0.000 A 
ATOM     17  C   UNL     1      -3.814  10.950  16.481  0.00  0.00    +0.000 A 
ATOM     18  C   UNL     1      -2.762  10.083  16.189  0.00  0.00    +0.000 A 
ATOM     19  C   UNL     1      -1.740   9.895  17.116  0.00  0.00    +0.000 A 
ATOM     20  C   UNL     1      -1.768  10.576  18.334  0.00  0.00    +0.000 A 
ENDBRANCH  14  15
ENDBRANCH   8  14
ENDBRANCH   1   7
BRANCH   3  21
ATOM     21  N   UNL     1       0.951  10.266  20.441  0.00  0.00    +0.000 N 
ATOM     22  H   UNL     1       0.460  10.755  19.687  0.00  0.00    +0.000 HD
BRANCH  21  23
ATOM     23  C   UNL     1       1.369   9.031  19.899  0.00  0.00    +0.000 A 
ATOM     24  C   UNL     1       1.719   9.034  18.533  0.00  0.00    +0.000 A 
ATOM     25  C   UNL     1       2.261   7.908  17.923  0.00  0.00    +0.000 A 
ATOM     26  C   UNL     1       2.509   6.762  18.673  0.00  0.00    +0.000 A 
ATOM     27  C   UNL     1       2.151   6.734  20.023  0.00  0.00    +0.000 A 
ATOM     28  C   UNL     1       1.610   7.876  20.638  0.00  0.00    +0.000 A 
BRANCH  26  29
ATOM     29  O   UNL     1       3.034   5.725  17.970  0.00  0.00    +0.000 OA
BRANCH  29  30
ATOM     30  C   UNL     1       2.274   4.532  17.841  0.00  0.00    +0.000 C 
ATOM     31  F   UNL     1       2.111   3.844  18.989  0.00  0.00    +0.000 F 
ATOM     32  F   UNL     1       1.056   4.847  17.351  0.00  0.00    +0.000 F 
ATOM     33  F   UNL     1       2.889   3.721  16.953  0.00  0.00    +0.000 F 
ENDBRANCH  29  30
ENDBRANCH  26  29
ENDBRANCH  21  23
ENDBRANCH   3  21
TORSDOF 8
ENDMDL
MODEL 6
REMARK VINA RESULT:      -7.9      4.783      9.234
REMARK  Name = 
REMARK  11 active torsions:
REMARK  status: ('A' for Active; 'I' for Inactive)
REMARK    1  A    between atoms: C_1  and  C_2
REMARK    2  A    between atoms: C_2  and  C_3
REMARK    3  A    between atoms: C_2  and  C_4
REMARK    4  A    between atoms: C_2  and  C_5
REMARK    5  A    between atoms: C_7  and  C_8
REMARK    6  A    between atoms: N_10  and  N_11
REMARK    7  A    between atoms: N_11  and  C_12
REMARK    8  A    between atoms: C_15  and  O_16
REMARK    9  A    between atoms: O_16  and  C_17
REMARK   10  A    between atoms: N_23  and  C_24
REMARK   11  A    between atoms: C_24  and  C_25
REMARK                            x       y       z     vdW  Elec       q    Type
REMARK                         _______ _______ _______ _____ _____    ______ ____
ROOT
ATOM      1  C   UNL     1       0.025  10.412  21.787  0.00  0.00    +0.000 C 
ATOM      2  O   UNL     1      -0.602  10.410  22.845  0.00  0.00    +0.000 OA
ATOM      3  N   UNL     1       0.542   9.212  21.299  0.00  0.00    +0.000 N 
ATOM      4  H   UNL     1       0.584   8.424  21.934  0.00  0.00    +0.000 HD
ENDROOT
BRANCH   1   7
ATOM      5  C   UNL     1       1.142  13.343  19.897  0.00  0.00    +0.000 A 
ATOM      6  C   UNL     1       1.383  12.402  20.915  0.00  0.00    +0.000 A 
ATOM      7  C   UNL     1       0.249  11.608  21.003  0.00  0.00    +0.000 A 
ATOM      8  N   UNL     1      -0.661  12.230  20.181  0.00  0.00    +0.000 N 
ATOM      9  N   UNL     1      -0.125  13.259  19.476  0.00  0.00    +0.000 NA
BRANCH   5  11
ATOM     10  C   UNL     1       3.247  14.700  20.298  0.00  0.00    +0.000 C 
ATOM     11  C   UNL     1       2.103  14.363  19.313  0.00  0.00    +0.000 C 
ATOM     12  C   UNL     1       1.342  15.662  18.997  0.00  0.00    +0.000 C 
ATOM     13  C   UNL     1       2.757  13.822  18.025  0.00  0.00    +0.000 C 
ENDBRANCH   5  11
BRANCH   8  14
ATOM     14  C   UNL     1      -2.077  11.913  20.003  0.00  0.00    +0.000 C 
BRANCH  14  15
ATOM     15  C   UNL     1      -2.383  11.325  18.646  0.00  0.00    +0.000 A 
ATOM     16  C   UNL     1      -1.537  10.359  18.082  0.00  0.00    +0.000 A 
ATOM     17  C   UNL     1      -1.852   9.768  16.856  0.00  0.00    +0.000 A 
ATOM     18  C   UNL     1      -3.013  10.137  16.177  0.00  0.00    +0.000 A 
ATOM     19  C   UNL     1      -3.861  11.096  16.726  0.00  0.00    +0.000 A 
ATOM     20  C   UNL     1      -3.551  11.683  17.953  0.00  0.00    +0.000 A 
ENDBRANCH  14  15
ENDBRANCH   8  14
ENDBRANCH   1   7
BRANCH   3  21
ATOM     21  N   UNL     1       1.234   9.141  20.079  0.00  0.00    +0.000 N 
ATOM     22  H   UNL     1       0.620   9.401  19.302  0.00  0.00    +0.000 HD
BRANCH  21  23
ATOM     23  C   UNL     1       1.812   7.903  19.723  0.00  0.00    +0.000 A 
ATOM     24  C   UNL     1       1.633   6.843  20.635  0.00  0.00    +0.000 A 
ATOM     25  C   UNL     1       2.051   5.552  20.333  0.00  0.00    +0.000 A 
ATOM     26  C   UNL     1       2.617   5.276  19.092  0.00  0.00    +0.000 A 
ATOM     27  C   UNL     1       2.820   6.316  18.183  0.00  0.00    +0.000 A 
ATOM     28  C   UNL     1       2.391   7.619  18.488  0.00  0.00    +0.000 A 
BRANCH  26  29
ATOM     29  O   UNL     1       2.991   3.982  18.912  0.00  0.00    +0.000 OA
BRANCH  29  30
ATOM     30  C   UNL     1       2.019   3.045  18.469  0.00  0.00    +0.000 C 
ATOM     31  F   UNL     1       0.906   3.597  17.944  0.00  0.00    +0.000 F 
ATOM     32  F   UNL     1       2.584   2.245  17.539  0.00  0.00    +0.000 F 
ATOM     33  F   UNL     1       1.649   2.277  19.517  0.00  0.00    +0.000 F 
ENDBRANCH  29  30
ENDBRANCH  26  29
ENDBRANCH  21  23
ENDBRANCH   3  21
TORSDOF 8
ENDMDL
MODEL 7
REMARK VINA RESULT:      -7.9      4.826      9.292
REMARK  Name = 
REMARK  11 active torsions:
REMARK  status: ('A' for Active; 'I' for Inactive)
REMARK    1  A    between atoms: C_1  and  C_2
REMARK    2  A    between atoms: C_2  and  C_3
REMARK    3  A    between atoms: C_2  and  C_4
REMARK    4  A    between atoms: C_2  and  C_5
REMARK    5  A    between atoms: C_7  and  C_8
REMARK    6  A    between atoms: N_10  and  N_11
REMARK    7  A    between atoms: N_11  and  C_12
REMARK    8  A    between atoms: C_15  and  O_16
REMARK    9  A    between atoms: O_16  and  C_17
REMARK   10  A    between atoms: N_23  and  C_24
REMARK   11  A    between atoms: C_24  and  C_25
REMARK                            x       y       z     vdW  Elec       q    Type
REMARK                         _______ _______ _______ _____ _____    ______ ____
ROOT
ATOM      1  C   UNL     1      -0.028  10.380  21.712  0.00  0.00    +0.000 C 
ATOM      2  O   UNL     1      -0.703  10.353  22.739  0.00  0.00    +0.000 OA
ATOM      3  N   UNL     1       0.538   9.197  21.237  0.00  0.00    +0.000 N 
ATOM      4  H   UNL     1       0.568   8.403  21.867  0.00  0.00    +0.000 HD
ENDROOT
BRANCH   1   7
ATOM      5  C   UNL     1       1.111  13.329  19.864  0.00  0.00    +0.000 A 
ATOM      6  C   UNL     1       1.354  12.360  20.855  0.00  0.00    +0.000 A 
ATOM      7  C   UNL     1       0.205  11.588  20.949  0.00  0.00    +0.000 A 
ATOM      8  N   UNL     1      -0.708  12.247  20.161  0.00  0.00    +0.000 N 
ATOM      9  N   UNL     1      -0.165  13.281  19.468  0.00  0.00    +0.000 NA
BRANCH   5  11
ATOM     10  C   UNL     1       3.144  14.776  20.318  0.00  0.00    +0.000 C 
ATOM     11  C   UNL     1       2.082  14.342  19.282  0.00  0.00    +0.000 C 
ATOM     12  C   UNL     1       1.308  15.594  18.834  0.00  0.00    +0.000 C 
ATOM     13  C   UNL     1       2.839  13.744  18.078  0.00  0.00    +0.000 C 
ENDBRANCH   5  11
BRANCH   8  14
ATOM     14  C   UNL     1      -2.134  11.964  20.006  0.00  0.00    +0.000 C 
BRANCH  14  15
ATOM     15  C   UNL     1      -2.461  11.284  18.698  0.00  0.00    +0.000 A 
ATOM     16  C   UNL     1      -3.614  11.637  17.981  0.00  0.00    +0.000 A 
ATOM     17  C   UNL     1      -3.885  11.053  16.740  0.00  0.00    +0.000 A 
ATOM     18  C   UNL     1      -3.011  10.107  16.205  0.00  0.00    +0.000 A 
ATOM     19  C   UNL     1      -1.865   9.746  16.908  0.00  0.00    +0.000 A 
ATOM     20  C   UNL     1      -1.589  10.333  18.144  0.00  0.00    +0.000 A 
ENDBRANCH  14  15
ENDBRANCH   8  14
ENDBRANCH   1   7
BRANCH   3  21
ATOM     21  N   UNL     1       1.288   9.153  20.050  0.00  0.00    +0.000 N 
ATOM     22  H   UNL     1       0.716   9.449  19.253  0.00  0.00    +0.000 HD
BRANCH  21  23
ATOM     23  C   UNL     1       1.863   7.918  19.681  0.00  0.00    +0.000 A 
ATOM     24  C   UNL     1       1.659   6.842  20.570  0.00  0.00    +0.000 A 
ATOM     25  C   UNL     1       2.072   5.553  20.251  0.00  0.00    +0.000 A 
ATOM     26  C   UNL     1       2.660   5.296  19.016  0.00  0.00    +0.000 A 
ATOM     27  C   UNL     1       2.887   6.352  18.130  0.00  0.00    +0.000 A 
ATOM     28  C   UNL     1       2.462   7.653  18.452  0.00  0.00    +0.000 A 
BRANCH  26  29
ATOM     29  O   UNL     1       3.027   4.003  18.818  0.00  0.00    +0.000 OA
BRANCH  29  30
ATOM     30  C   UNL     1       2.277   3.211  17.908  0.00  0.00    +0.000 C 
ATOM     31  F   UNL     1       2.339   1.883  18.139  0.00  0.00    +0.000 F 
ATOM     32  F   UNL     1       0.985   3.599  17.961  0.00  0.00    +0.000 F 
ATOM     33  F   UNL     1       2.735   3.438  16.658  0.00  0.00    +0.000 F 
ENDBRANCH  29  30
ENDBRANCH  26  29
ENDBRANCH  21  23
ENDBRANCH   3  21
TORSDOF 8
ENDMDL
MODEL 8
REMARK VINA RESULT:      -7.9      4.782      9.243
REMARK  Name = 
REMARK  11 active torsions:
REMARK  status: ('A' for Active; 'I' for Inactive)
REMARK    1  A    between atoms: C_1  and  C_2
REMARK    2  A    between atoms: C_2  and  C_3
REMARK    3  A    between atoms: C_2  and  C_4
REMARK    4  A    between atoms: C_2  and  C_5
REMARK    5  A    between atoms: C_7  and  C_8
REMARK    6  A    between atoms: N_10  and  N_11
REMARK    7  A    between atoms: N_11  and  C_12
REMARK    8  A    between atoms: C_15  and  O_16
REMARK    9  A    between atoms: O_16  and  C_17
REMARK   10  A    between atoms: N_23  and  C_24
REMARK   11  A    between atoms: C_24  and  C_25
REMARK                            x       y       z     vdW  Elec       q    Type
REMARK                         _______ _______ _______ _____ _____    ______ ____
ROOT
ATOM      1  C   UNL     1       0.053  10.416  21.759  0.00  0.00    +0.000 C 
ATOM      2  O   UNL     1      -0.553  10.404  22.829  0.00  0.00    +0.000 OA
ATOM      3  N   UNL     1       0.559   9.221  21.249  0.00  0.00    +0.000 N 
ATOM      4  H   UNL     1       0.613   8.427  21.875  0.00  0.00    +0.000 HD
ENDROOT
BRANCH   1   7
ATOM      5  C   UNL     1       1.133  13.369  19.880  0.00  0.00    +0.000 A 
ATOM      6  C   UNL     1       1.391  12.420  20.887  0.00  0.00    +0.000 A 
ATOM      7  C   UNL     1       0.262  11.620  20.982  0.00  0.00    +0.000 A 
ATOM      8  N   UNL     1      -0.661  12.244  20.176  0.00  0.00    +0.000 N 
ATOM      9  N   UNL     1      -0.138  13.282  19.473  0.00  0.00    +0.000 NA
BRANCH   5  11
ATOM     10  C   UNL     1       1.324  15.625  18.737  0.00  0.00    +0.000 C 
ATOM     11  C   UNL     1       2.083  14.398  19.293  0.00  0.00    +0.000 C 
ATOM     12  C   UNL     1       2.877  13.762  18.139  0.00  0.00    +0.000 C 
ATOM     13  C   UNL     1       3.059  14.916  20.368  0.00  0.00    +0.000 C 
ENDBRANCH   5  11
BRANCH   8  14
ATOM     14  C   UNL     1      -2.077  11.922  20.011  0.00  0.00    +0.000 C 
BRANCH  14  15
ATOM     15  C   UNL     1      -2.394  11.328  18.659  0.00  0.00    +0.000 A 
ATOM     16  C   UNL     1      -1.549  10.365  18.089  0.00  0.00    +0.000 A 
ATOM     17  C   UNL     1      -1.873   9.769  16.867  0.00  0.00    +0.000 A 
ATOM     18  C   UNL     1      -3.041  10.133  16.199  0.00  0.00    +0.000 A 
ATOM     19  C   UNL     1      -3.888  11.090  16.753  0.00  0.00    +0.000 A 
ATOM     20  C   UNL     1      -3.569  11.680  17.976  0.00  0.00    +0.000 A 
ENDBRANCH  14  15
ENDBRANCH   8  14
ENDBRANCH   1   7
BRANCH   3  21
ATOM     21  N   UNL     1       1.227   9.162  20.015  0.00  0.00    +0.000 N 
ATOM     22  H   UNL     1       0.591   9.405  19.250  0.00  0.00    +0.000 HD
BRANCH  21  23
ATOM     23  C   UNL     1       1.825   7.936  19.650  0.00  0.00    +0.000 A 
ATOM     24  C   UNL     1       1.636   6.858  20.539  0.00  0.00    +0.000 A 
ATOM     25  C   UNL     1       2.073   5.576  20.224  0.00  0.00    +0.000 A 
ATOM     26  C   UNL     1       2.671   5.328  18.991  0.00  0.00    +0.000 A 
ATOM     27  C   UNL     1       2.884   6.386  18.106  0.00  0.00    +0.000 A 
ATOM     28  C   UNL     1       2.435   7.680  18.424  0.00  0.00    +0.000 A 
BRANCH  26  29
ATOM     29  O   UNL     1       3.061   4.041  18.797  0.00  0.00    +0.000 OA
BRANCH  29  30
ATOM     30  C   UNL     1       2.107   3.101  18.324  0.00  0.00    +0.000 C 
ATOM     31  F   UNL     1       2.587   2.223  17.419  0.00  0.00    +0.000 F 
ATOM     32  F   UNL     1       1.620   2.412  19.378  0.00  0.00    +0.000 F 
ATOM     33  F   UNL     1       1.085   3.773  17.750  0.00  0.00    +0.000 F 
ENDBRANCH  29  30
ENDBRANCH  26  29
ENDBRANCH  21  23
ENDBRANCH   3  21
TORSDOF 8
ENDMDL
MODEL 9
REMARK VINA RESULT:      -7.9      4.784      9.442
REMARK  Name = 
REMARK  11 active torsions:
REMARK  status: ('A' for Active; 'I' for Inactive)
REMARK    1  A    between atoms: C_1  and  C_2
REMARK    2  A    between atoms: C_2  and  C_3
REMARK    3  A    between atoms: C_2  and  C_4
REMARK    4  A    between atoms: C_2  and  C_5
REMARK    5  A    between atoms: C_7  and  C_8
REMARK    6  A    between atoms: N_10  and  N_11
REMARK    7  A    between atoms: N_11  and  C_12
REMARK    8  A    between atoms: C_15  and  O_16
REMARK    9  A    between atoms: O_16  and  C_17
REMARK   10  A    between atoms: N_23  and  C_24
REMARK   11  A    between atoms: C_24  and  C_25
REMARK                            x       y       z     vdW  Elec       q    Type
REMARK                         _______ _______ _______ _____ _____    ______ ____
ROOT
ATOM      1  C   UNL     1      -0.094  11.092  21.994  0.00  0.00    +0.000 C 
ATOM      2  O   UNL     1      -0.560  11.093  23.132  0.00  0.00    +0.000 OA
ATOM      3  N   UNL     1       0.422   9.908  21.470  0.00  0.00    +0.000 N 
ATOM      4  H   UNL     1       0.606   9.148  22.114  0.00  0.00    +0.000 HD
ENDROOT
BRANCH   1   7
ATOM      5  C   UNL     1       0.543  14.073  19.964  0.00  0.00    +0.000 A 
ATOM      6  C   UNL     1       0.926  13.235  21.028  0.00  0.00    +0.000 A 
ATOM      7  C   UNL     1      -0.063  12.270  21.152  0.00  0.00    +0.000 A 
ATOM      8  N   UNL     1      -1.054  12.692  20.298  0.00  0.00    +0.000 N 
ATOM      9  N   UNL     1      -0.688  13.760  19.544  0.00  0.00    +0.000 NA
BRANCH   5  11
ATOM     10  C   UNL     1       2.075  16.048  20.396  0.00  0.00    +0.000 C 
ATOM     11  C   UNL     1       1.329  15.209  19.333  0.00  0.00    +0.000 C 
ATOM     12  C   UNL     1       0.366  16.139  18.576  0.00  0.00    +0.000 C 
ATOM     13  C   UNL     1       2.392  14.662  18.358  0.00  0.00    +0.000 C 
ENDBRANCH   5  11
BRANCH   8  14
ATOM     14  C   UNL     1      -2.396  12.136  20.131  0.00  0.00    +0.000 C 
BRANCH  14  15
ATOM     15  C   UNL     1      -2.575  11.410  18.819  0.00  0.00    +0.000 A 
ATOM     16  C   UNL     1      -3.705  11.648  18.023  0.00  0.00    +0.000 A 
ATOM     17  C   UNL     1      -3.842  11.024  16.780  0.00  0.00    +0.000 A 
ATOM     18  C   UNL     1      -2.854  10.153  16.321  0.00  0.00    +0.000 A 
ATOM     19  C   UNL     1      -1.728   9.908  17.102  0.00  0.00    +0.000 A 
ATOM     20  C   UNL     1      -1.587  10.535  18.340  0.00  0.00    +0.000 A 
ENDBRANCH  14  15
ENDBRANCH   8  14
ENDBRANCH   1   7
BRANCH   3  21
ATOM     21  N   UNL     1       0.935   9.832  20.165  0.00  0.00    +0.000 N 
ATOM     22  H   UNL     1       0.194  10.001  19.477  0.00  0.00    +0.000 HD
BRANCH  21  23
ATOM     23  C   UNL     1       1.563   8.630  19.774  0.00  0.00    +0.000 A 
ATOM     24  C   UNL     1       1.470   7.553  20.678  0.00  0.00    +0.000 A 
ATOM     25  C   UNL     1       1.942   6.288  20.346  0.00  0.00    +0.000 A 
ATOM     26  C   UNL     1       2.481   6.055  19.084  0.00  0.00    +0.000 A 
ATOM     27  C   UNL     1       2.600   7.114  18.182  0.00  0.00    +0.000 A 
ATOM     28  C   UNL     1       2.115   8.390  18.517  0.00  0.00    +0.000 A 
BRANCH  26  29
ATOM     29  O   UNL     1       2.914   4.784  18.876  0.00  0.00    +0.000 OA
BRANCH  29  30
ATOM     30  C   UNL     1       2.319   4.021  17.836  0.00  0.00    +0.000 C 
ATOM     31  F   UNL     1       1.111   4.466  17.434  0.00  0.00    +0.000 F 
ATOM     32  F   UNL     1       3.152   4.015  16.774  0.00  0.00    +0.000 F 
ATOM     33  F   UNL     1       2.173   2.748  18.264  0.00  0.00    +0.000 F 
ENDBRANCH  29  30
ENDBRANCH  26  29
ENDBRANCH  21  23
ENDBRANCH   3  21
TORSDOF 8
ENDMDL
