MODEL 1
REMARK VINA RESULT:      -8.0      0.000      0.000
REMARK  Name = 
REMARK  8 active torsions:
REMARK  status: ('A' for Active; 'I' for Inactive)
REMARK    1  A    between atoms: C_1  and  C_2
REMARK    2  A    between atoms: C_6  and  C_7
REMARK    3  A    between atoms: C_9  and  C_10
REMARK    4  A    between atoms: C_10  and  S_11
REMARK    5  A    between atoms: S_11  and  C_13
REMARK    6  A    between atoms: C_13  and  C_14
REMARK    7  A    between atoms: N_16  and  C_17
REMARK    8  A    between atoms: C_23  and  C_24
REMARK                            x       y       z     vdW  Elec       q    Type
REMARK                         _______ _______ _______ _____ _____    ______ ____
ROOT
ATOM      1  C   UNL     1       4.452   5.420  18.979  0.00  0.00    +0.000 C 
ENDROOT
BRANCH   1   4
ATOM      2  C   UNL     1       6.287   4.900  15.972  0.00  0.00    +0.000 A 
ATOM      3  N   UNL     1       5.133   4.954  16.609  0.00  0.00    +0.000 NA
ATOM      4  C   UNL     1       5.482   5.269  17.914  0.00  0.00    +0.000 A 
ATOM      5  C   UNL     1       6.855   5.404  17.991  0.00  0.00    +0.000 A 
ATOM      6  C   UNL     1       7.837   5.757  19.021  0.00  0.00    +0.000 C 
ATOM      7  O   UNL     1       7.374   5.153  16.749  0.00  0.00    +0.000 OA
BRANCH   2  13
ATOM      8  C   UNL     1       5.460   2.466  11.651  0.00  0.00    +0.000 C 
ATOM      9  C   UNL     1       6.167   3.528  12.437  0.00  0.00    +0.000 A 
ATOM     10  C   UNL     1       7.164   4.308  11.832  0.00  0.00    +0.000 A 
ATOM     11  C   UNL     1       7.882   5.211  12.597  0.00  0.00    +0.000 A 
ATOM     12  C   UNL     1       7.594   5.311  13.953  0.00  0.00    +0.000 A 
ATOM     13  C   UNL     1       6.552   4.628  14.566  0.00  0.00    +0.000 A 
ATOM     14  C   UNL     1       5.840   3.713  13.791  0.00  0.00    +0.000 A 
ENDBRANCH   2  13
ENDBRANCH   1   4
BRANCH   1  15
ATOM     15  S   UNL     1       2.795   5.815  18.340  0.00  0.00    +0.000 S 
ATOM     16  O   UNL     1       1.819   4.644  18.729  0.00  0.00    +0.000 OA
BRANCH  15  17
ATOM     17  C   UNL     1       2.428   7.255  19.381  0.00  0.00    +0.000 C 
BRANCH  17  18
ATOM     18  C   UNL     1       1.980   8.435  18.543  0.00  0.00    +0.000 C 
ATOM     19  O   UNL     1       2.383   8.606  17.395  0.00  0.00    +0.000 OA
ATOM     20  N   UNL     1       1.117   9.315  19.169  0.00  0.00    +0.000 N 
ATOM     21  H   UNL     1       0.988   9.213  20.173  0.00  0.00    +0.000 HD
BRANCH  20  22
ATOM     22  C   UNL     1       0.645  10.542  18.515  0.00  0.00    +0.000 C 
ATOM     23  C   UNL     1      -0.827  10.855  18.847  0.00  0.00    +0.000 C 
ATOM     24  C   UNL     1      -1.045  11.359  20.277  0.00  0.00    +0.000 C 
ATOM     25  C   UNL     1      -0.160  12.561  20.597  0.00  0.00    +0.000 C 
ATOM     26  C   UNL     1       1.284  12.234  20.278  0.00  0.00    +0.000 C 
ATOM     27  C   UNL     1       1.534  11.746  18.863  0.00  0.00    +0.000 C 
ENDBRANCH  20  22
ENDBRANCH  17  18
ENDBRANCH  15  17
ENDBRANCH   1  15
TORSDOF 6
ENDMDL
MODEL 2
REMARK VINA RESULT:      -8.0      2.779      7.892
REMARK  Name = 
REMARK  8 active torsions:
REMARK  status: ('A' for Active; 'I' for Inactive)
REMARK    1  A    between atoms: C_1  and  C_2
REMARK    2  A    between atoms: C_6  and  C_7
REMARK    3  A    between atoms: C_9  and  C_10
REMARK    4  A    between atoms: C_10  and  S_11
REMARK    5  A    between atoms: S_11  and  C_13
REMARK    6  A    between atoms: C_13  and  C_14
REMARK    7  A    between atoms: N_16  and  C_17
REMARK    8  A    between atoms: C_23  and  C_24
REMARK                            x       y       z     vdW  Elec       q    Type
REMARK                         _______ _______ _______ _____ _____    ______ ____
ROOT
ATOM      1  C   UNL     1       4.222   3.236  19.524  0.00  0.00    +0.000 C 
ENDROOT
BRANCH   1   4
ATOM      2  C   UNL     1       2.342   6.244  19.831  0.00  0.00    +0.000 A 
ATOM      3  N   UNL     1       3.345   5.575  19.294  0.00  0.00    +0.000 NA
ATOM      4  C   UNL     1       3.253   4.314  19.864  0.00  0.00    +0.000 A 
ATOM      5  C   UNL     1       2.169   4.287  20.721  0.00  0.00    +0.000 A 
ATOM      6  C   UNL     1       1.508   3.296  21.574  0.00  0.00    +0.000 C 
ATOM      7  O   UNL     1       1.593   5.529  20.712  0.00  0.00    +0.000 OA
BRANCH   2  13
ATOM      8  C   UNL     1       0.175  10.560  21.234  0.00  0.00    +0.000 C 
ATOM      9  C   UNL     1       0.938   9.746  20.232  0.00  0.00    +0.000 A 
ATOM     10  C   UNL     1       1.261  10.290  18.980  0.00  0.00    +0.000 A 
ATOM     11  C   UNL     1       1.871   9.493  18.026  0.00  0.00    +0.000 A 
ATOM     12  C   UNL     1       2.139   8.166  18.341  0.00  0.00    +0.000 A 
ATOM     13  C   UNL     1       1.922   7.619  19.598  0.00  0.00    +0.000 A 
ATOM     14  C   UNL     1       1.298   8.426  20.550  0.00  0.00    +0.000 A 
ENDBRANCH   2  13
ENDBRANCH   1   4
BRANCH   1  15
ATOM     15  S   UNL     1       3.684   2.180  18.144  0.00  0.00    +0.000 S 
ATOM     16  O   UNL     1       2.243   1.636  18.463  0.00  0.00    +0.000 OA
BRANCH  15  17
ATOM     17  C   UNL     1       3.559   3.448  16.852  0.00  0.00    +0.000 C 
BRANCH  17  18
ATOM     18  C   UNL     1       4.929   3.834  16.332  0.00  0.00    +0.000 C 
ATOM     19  O   UNL     1       5.267   3.617  15.171  0.00  0.00    +0.000 OA
ATOM     20  N   UNL     1       5.775   4.414  17.259  0.00  0.00    +0.000 N 
ATOM     21  H   UNL     1       5.496   4.379  18.237  0.00  0.00    +0.000 HD
BRANCH  20  22
ATOM     22  C   UNL     1       7.157   4.782  16.929  0.00  0.00    +0.000 C 
ATOM     23  C   UNL     1       7.262   6.204  16.344  0.00  0.00    +0.000 C 
ATOM     24  C   UNL     1       7.058   7.315  17.377  0.00  0.00    +0.000 C 
ATOM     25  C   UNL     1       7.998   7.162  18.571  0.00  0.00    +0.000 C 
ATOM     26  C   UNL     1       7.874   5.765  19.143  0.00  0.00    +0.000 C 
ATOM     27  C   UNL     1       8.086   4.641  18.145  0.00  0.00    +0.000 C 
ENDBRANCH  20  22
ENDBRANCH  17  18
ENDBRANCH  15  17
ENDBRANCH   1  15
TORSDOF 6
ENDMDL
MODEL 3
REMARK VINA RESULT:      -7.9      4.022      6.936
REMARK  Name = 
REMARK  8 active torsions:
REMARK  status: ('A' for Active; 'I' for Inactive)
REMARK    1  A    between atoms: C_1  and  C_2
REMARK    2  A    between atoms: C_6  and  C_7
REMARK    3  A    between atoms: C_9  and  C_10
REMARK    4  A    between atoms: C_10  and  S_11
REMARK    5  A    between atoms: S_11  and  C_13
REMARK    6  A    between atoms: C_13  and  C_14
REMARK    7  A    between atoms: N_16  and  C_17
REMARK    8  A    between atoms: C_23  and  C_24
REMARK                            x       y       z     vdW  Elec       q    Type
REMARK                         _______ _______ _______ _____ _____    ______ ____
ROOT
ATOM      1  C   UNL     1       6.778   6.019  16.122  0.00  0.00    +0.000 C 
ENDROOT
BRANCH   1   4
ATOM      2  C   UNL     1       8.284   8.505  18.179  0.00  0.00    +0.000 A 
ATOM      3  N   UNL     1       7.699   8.162  17.047  0.00  0.00    +0.000 NA
ATOM      4  C   UNL     1       7.439   6.808  17.199  0.00  0.00    +0.000 A 
ATOM      5  C   UNL     1       7.877   6.403  18.445  0.00  0.00    +0.000 A 
ATOM      6  C   UNL     1       7.869   5.164  19.228  0.00  0.00    +0.000 C 
ATOM      7  O   UNL     1       8.433   7.488  19.069  0.00  0.00    +0.000 OA
BRANCH   2  13
ATOM      8  C   UNL     1       9.601  13.286  17.346  0.00  0.00    +0.000 C 
ATOM      9  C   UNL     1       9.368  12.139  18.283  0.00  0.00    +0.000 A 
ATOM     10  C   UNL     1       9.645  12.279  19.651  0.00  0.00    +0.000 A 
ATOM     11  C   UNL     1       9.528  11.180  20.487  0.00  0.00    +0.000 A 
ATOM     12  C   UNL     1       9.143   9.964  19.936  0.00  0.00    +0.000 A 
ATOM     13  C   UNL     1       8.768   9.810  18.609  0.00  0.00    +0.000 A 
ATOM     14  C   UNL     1       8.899  10.917  17.771  0.00  0.00    +0.000 A 
ENDBRANCH   2  13
ENDBRANCH   1   4
BRANCH   1  15
ATOM     15  S   UNL     1       5.184   5.297  16.620  0.00  0.00    +0.000 S 
ATOM     16  O   UNL     1       5.466   4.044  17.528  0.00  0.00    +0.000 OA
BRANCH  15  17
ATOM     17  C   UNL     1       4.574   6.652  17.661  0.00  0.00    +0.000 C 
BRANCH  17  18
ATOM     18  C   UNL     1       3.143   6.407  18.093  0.00  0.00    +0.000 C 
ATOM     19  O   UNL     1       2.287   7.287  18.033  0.00  0.00    +0.000 OA
ATOM     20  N   UNL     1       2.880   5.143  18.587  0.00  0.00    +0.000 N 
ATOM     21  H   UNL     1       3.675   4.541  18.789  0.00  0.00    +0.000 HD
BRANCH  20  22
ATOM     22  C   UNL     1       1.559   4.770  19.109  0.00  0.00    +0.000 C 
ATOM     23  C   UNL     1       1.170   3.325  18.742  0.00  0.00    +0.000 C 
ATOM     24  C   UNL     1       1.942   2.259  19.525  0.00  0.00    +0.000 C 
ATOM     25  C   UNL     1       1.836   2.471  21.033  0.00  0.00    +0.000 C 
ATOM     26  C   UNL     1       2.233   3.891  21.379  0.00  0.00    +0.000 C 
ATOM     27  C   UNL     1       1.475   4.971  20.630  0.00  0.00    +0.000 C 
ENDBRANCH  20  22
ENDBRANCH  17  18
ENDBRANCH  15  17
ENDBRANCH   1  15
TORSDOF 6
ENDMDL
MODEL 4
REMARK VINA RESULT:      -7.8      2.038      9.621
REMARK  Name = 
REMARK  8 active torsions:
REMARK  status: ('A' for Active; 'I' for Inactive)
REMARK    1  A    between atoms: C_1  and  C_2
REMARK    2  A    between atoms: C_6  and  C_7
REMARK    3  A    between atoms: C_9  and  C_10
REMARK    4  A    between atoms: C_10  and  S_11
REMARK    5  A    between atoms: S_11  and  C_13
REMARK    6  A    between atoms: C_13  and  C_14
REMARK    7  A    between atoms: N_16  and  C_17
REMARK    8  A    between atoms: C_23  and  C_24
REMARK                            x       y       z     vdW  Elec       q    Type
REMARK                         _______ _______ _______ _____ _____    ______ ____
ROOT
ATOM      1  C   UNL     1       4.103   4.877  17.438  0.00  0.00    +0.000 C 
ENDROOT
BRANCH   1   4
ATOM      2  C   UNL     1       2.236   6.977  19.625  0.00  0.00    +0.000 A 
ATOM      3  N   UNL     1       2.908   6.810  18.502  0.00  0.00    +0.000 NA
ATOM      4  C   UNL     1       3.300   5.480  18.538  0.00  0.00    +0.000 A 
ATOM      5  C   UNL     1       2.822   4.902  19.698  0.00  0.00    +0.000 A 
ATOM      6  C   UNL     1       2.837   3.571  20.313  0.00  0.00    +0.000 C 
ATOM      7  O   UNL     1       2.151   5.865  20.403  0.00  0.00    +0.000 OA
BRANCH   2  13
ATOM      8  C   UNL     1      -0.111   9.611  23.208  0.00  0.00    +0.000 C 
ATOM      9  C   UNL     1       0.473   9.510  21.831  0.00  0.00    +0.000 A 
ATOM     10  C   UNL     1       0.365  10.587  20.938  0.00  0.00    +0.000 A 
ATOM     11  C   UNL     1       0.813  10.442  19.636  0.00  0.00    +0.000 A 
ATOM     12  C   UNL     1       1.354   9.220  19.251  0.00  0.00    +0.000 A 
ATOM     13  C   UNL     1       1.565   8.167  20.130  0.00  0.00    +0.000 A 
ATOM     14  C   UNL     1       1.101   8.317  21.436  0.00  0.00    +0.000 A 
ENDBRANCH   2  13
ENDBRANCH   1   4
BRANCH   1  15
ATOM     15  S   UNL     1       5.894   5.140  17.612  0.00  0.00    +0.000 S 
ATOM     16  O   UNL     1       6.335   4.644  19.038  0.00  0.00    +0.000 OA
BRANCH  15  17
ATOM     17  C   UNL     1       6.475   3.950  16.371  0.00  0.00    +0.000 C 
BRANCH  17  18
ATOM     18  C   UNL     1       6.353   4.517  14.972  0.00  0.00    +0.000 C 
ATOM     19  O   UNL     1       6.350   5.728  14.760  0.00  0.00    +0.000 OA
ATOM     20  N   UNL     1       6.214   3.583  13.962  0.00  0.00    +0.000 N 
ATOM     21  H   UNL     1       6.027   2.620  14.234  0.00  0.00    +0.000 HD
BRANCH  20  22
ATOM     22  C   UNL     1       6.017   3.974  12.561  0.00  0.00    +0.000 C 
ATOM     23  C   UNL     1       7.325   3.921  11.748  0.00  0.00    +0.000 C 
ATOM     24  C   UNL     1       7.804   2.500  11.437  0.00  0.00    +0.000 C 
ATOM     25  C   UNL     1       6.719   1.671  10.753  0.00  0.00    +0.000 C 
ATOM     26  C   UNL     1       5.444   1.722  11.569  0.00  0.00    +0.000 C 
ATOM     27  C   UNL     1       4.937   3.118  11.881  0.00  0.00    +0.000 C 
ENDBRANCH  20  22
ENDBRANCH  17  18
ENDBRANCH  15  17
ENDBRANCH   1  15
TORSDOF 6
ENDMDL
MODEL 5
REMARK VINA RESULT:      -7.7      2.205      9.194
REMARK  Name = 
REMARK  8 active torsions:
REMARK  status: ('A' for Active; 'I' for Inactive)
REMARK    1  A    between atoms: C_1  and  C_2
REMARK    2  A    between atoms: C_6  and  C_7
REMARK    3  A    between atoms: C_9  and  C_10
REMARK    4  A    between atoms: C_10  and  S_11
REMARK    5  A    between atoms: S_11  and  C_13
REMARK    6  A    between atoms: C_13  and  C_14
REMARK    7  A    between atoms: N_16  and  C_17
REMARK    8  A    between atoms: C_23  and  C_24
REMARK                            x       y       z     vdW  Elec       q    Type
REMARK                         _______ _______ _______ _____ _____    ______ ____
ROOT
ATOM      1  C   UNL     1       2.910   5.565  19.762  0.00  0.00    +0.000 C 
ENDROOT
BRANCH   1   4
ATOM      2  C   UNL     1       1.120   8.556  20.490  0.00  0.00    +0.000 A 
ATOM      3  N   UNL     1       1.524   7.352  20.849  0.00  0.00    +0.000 NA
ATOM      4  C   UNL     1       2.269   6.909  19.766  0.00  0.00    +0.000 A 
ATOM      5  C   UNL     1       2.284   7.895  18.798  0.00  0.00    +0.000 A 
ATOM      6  C   UNL     1       2.896   8.087  17.480  0.00  0.00    +0.000 C 
ATOM      7  O   UNL     1       1.535   8.946  19.255  0.00  0.00    +0.000 OA
BRANCH   2  13
ATOM      8  C   UNL     1      -1.577  12.782  20.872  0.00  0.00    +0.000 C 
ATOM      9  C   UNL     1      -1.039  11.517  21.470  0.00  0.00    +0.000 A 
ATOM     10  C   UNL     1      -1.277  11.217  22.820  0.00  0.00    +0.000 A 
ATOM     11  C   UNL     1      -0.686  10.100  23.385  0.00  0.00    +0.000 A 
ATOM     12  C   UNL     1       0.136   9.309  22.591  0.00  0.00    +0.000 A 
ATOM     13  C   UNL     1       0.317   9.518  21.231  0.00  0.00    +0.000 A 
ATOM     14  C   UNL     1      -0.273  10.651  20.671  0.00  0.00    +0.000 A 
ENDBRANCH   2  13
ENDBRANCH   1   4
BRANCH   1  15
ATOM     15  S   UNL     1       1.842   4.248  19.104  0.00  0.00    +0.000 S 
ATOM     16  O   UNL     1       1.626   4.501  17.567  0.00  0.00    +0.000 OA
BRANCH  15  17
ATOM     17  C   UNL     1       2.970   2.841  19.314  0.00  0.00    +0.000 C 
BRANCH  17  18
ATOM     18  C   UNL     1       4.391   3.222  18.956  0.00  0.00    +0.000 C 
ATOM     19  O   UNL     1       5.291   3.231  19.793  0.00  0.00    +0.000 OA
ATOM     20  N   UNL     1       4.594   3.588  17.639  0.00  0.00    +0.000 N 
ATOM     21  H   UNL     1       3.771   3.746  17.062  0.00  0.00    +0.000 HD
BRANCH  20  22
ATOM     22  C   UNL     1       5.900   4.049  17.150  0.00  0.00    +0.000 C 
ATOM     23  C   UNL     1       6.158   3.638  15.688  0.00  0.00    +0.000 C 
ATOM     24  C   UNL     1       5.333   4.429  14.668  0.00  0.00    +0.000 C 
ATOM     25  C   UNL     1       5.514   5.936  14.836  0.00  0.00    +0.000 C 
ATOM     26  C   UNL     1       5.246   6.327  16.275  0.00  0.00    +0.000 C 
ATOM     27  C   UNL     1       6.059   5.569  17.309  0.00  0.00    +0.000 C 
ENDBRANCH  20  22
ENDBRANCH  17  18
ENDBRANCH  15  17
ENDBRANCH   1  15
TORSDOF 6
ENDMDL
MODEL 6
REMARK VINA RESULT:      -7.7      3.862      6.263
REMARK  Name = 
REMARK  8 active torsions:
REMARK  status: ('A' for Active; 'I' for Inactive)
REMARK    1  A    between atoms: C_1  and  C_2
REMARK    2  A    between atoms: C_6  and  C_7
REMARK    3  A    between atoms: C_9  and  C_10
REMARK    4  A    between atoms: C_10  and  S_11
REMARK    5  A    between atoms: S_11  and  C_13
REMARK    6  A    between atoms: C_13  and  C_14
REMARK    7  A    between atoms: N_16  and  C_17
REMARK    8  A    between atoms: C_23  and  C_24
REMARK                            x       y       z     vdW  Elec       q    Type
REMARK                         _______ _______ _______ _____ _____    ______ ____
ROOT
ATOM      1  C   UNL     1       0.737  10.771  18.790  0.00  0.00    +0.000 C 
ENDROOT
BRANCH   1   4
ATOM      2  C   UNL     1       2.220   7.538  18.629  0.00  0.00    +0.000 A 
ATOM      3  N   UNL     1       1.851   8.655  18.031  0.00  0.00    +0.000 NA
ATOM      4  C   UNL     1       1.293   9.414  19.049  0.00  0.00    +0.000 A 
ATOM      5  C   UNL     1       1.370   8.704  20.232  0.00  0.00    +0.000 A 
ATOM      6  C   UNL     1       1.020   8.931  21.637  0.00  0.00    +0.000 C 
ATOM      7  O   UNL     1       1.951   7.494  19.961  0.00  0.00    +0.000 OA
BRANCH   2  13
ATOM      8  C   UNL     1       2.536   2.619  17.635  0.00  0.00    +0.000 C 
ATOM      9  C   UNL     1       3.072   4.014  17.512  0.00  0.00    +0.000 A 
ATOM     10  C   UNL     1       4.288   4.247  16.854  0.00  0.00    +0.000 A 
ATOM     11  C   UNL     1       4.823   5.524  16.841  0.00  0.00    +0.000 A 
ATOM     12  C   UNL     1       4.134   6.540  17.492  0.00  0.00    +0.000 A 
ATOM     13  C   UNL     1       2.884   6.369  18.069  0.00  0.00    +0.000 A 
ATOM     14  C   UNL     1       2.357   5.077  18.088  0.00  0.00    +0.000 A 
ENDBRANCH   2  13
ENDBRANCH   1   4
BRANCH   1  15
ATOM     15  S   UNL     1      -0.992  10.965  19.323  0.00  0.00    +0.000 S 
ATOM     16  O   UNL     1      -1.343  12.498  19.329  0.00  0.00    +0.000 OA
BRANCH  15  17
ATOM     17  C   UNL     1      -1.812  10.180  17.908  0.00  0.00    +0.000 C 
BRANCH  17  18
ATOM     18  C   UNL     1      -3.071  10.928  17.522  0.00  0.00    +0.000 C 
ATOM     19  O   UNL     1      -3.300  11.258  16.361  0.00  0.00    +0.000 OA
ATOM     20  N   UNL     1      -3.921  11.239  18.567  0.00  0.00    +0.000 N 
ATOM     21  H   UNL     1      -3.571  11.109  19.513  0.00  0.00    +0.000 HD
BRANCH  20  22
ATOM     22  C   UNL     1      -5.149  12.020  18.367  0.00  0.00    +0.000 C 
ATOM     23  C   UNL     1      -6.375  11.127  18.097  0.00  0.00    +0.000 C 
ATOM     24  C   UNL     1      -6.879  10.377  19.333  0.00  0.00    +0.000 C 
ATOM     25  C   UNL     1      -7.158  11.323  20.498  0.00  0.00    +0.000 C 
ATOM     26  C   UNL     1      -5.940  12.185  20.760  0.00  0.00    +0.000 C 
ATOM     27  C   UNL     1      -5.425  12.952  19.557  0.00  0.00    +0.000 C 
ENDBRANCH  20  22
ENDBRANCH  17  18
ENDBRANCH  15  17
ENDBRANCH   1  15
TORSDOF 6
ENDMDL
MODEL 7
REMARK VINA RESULT:      -7.7      4.622      7.516
REMARK  Name = 
REMARK  8 active torsions:
REMARK  status: ('A' for Active; 'I' for Inactive)
REMARK    1  A    between atoms: C_1  and  C_2
REMARK    2  A    between atoms: C_6  and  C_7
REMARK    3  A    between atoms: C_9  and  C_10
REMARK    4  A    between atoms: C_10  and  S_11
REMARK    5  A    between atoms: S_11  and  C_13
REMARK    6  A    between atoms: C_13  and  C_14
REMARK    7  A    between atoms: N_16  and  C_17
REMARK    8  A    between atoms: C_23  and  C_24
REMARK                            x       y       z     vdW  Elec       q    Type
REMARK                         _______ _______ _______ _____ _____    ______ ____
ROOT
ATOM      1  C   UNL     1       5.712   6.989  16.849  0.00  0.00    +0.000 C 
ENDROOT
BRANCH   1   4
ATOM      2  C   UNL     1       8.326   8.947  18.266  0.00  0.00    +0.000 A 
ATOM      3  N   UNL     1       7.257   8.856  17.498  0.00  0.00    +0.000 NA
ATOM      4  C   UNL     1       6.891   7.521  17.587  0.00  0.00    +0.000 A 
ATOM      5  C   UNL     1       7.769   6.870  18.432  0.00  0.00    +0.000 A 
ATOM      6  C   UNL     1       7.923   5.517  18.975  0.00  0.00    +0.000 C 
ATOM      7  O   UNL     1       8.699   7.781  18.857  0.00  0.00    +0.000 OA
BRANCH   2  13
ATOM      8  C   UNL     1      11.139  12.915  16.988  0.00  0.00    +0.000 C 
ATOM      9  C   UNL     1      10.462  12.073  18.028  0.00  0.00    +0.000 A 
ATOM     10  C   UNL     1      10.617  12.376  19.390  0.00  0.00    +0.000 A 
ATOM     11  C   UNL     1      10.075  11.529  20.342  0.00  0.00    +0.000 A 
ATOM     12  C   UNL     1       9.396  10.395  19.914  0.00  0.00    +0.000 A 
ATOM     13  C   UNL     1       9.140  10.114  18.579  0.00  0.00    +0.000 A 
ATOM     14  C   UNL     1       9.698  10.966  17.625  0.00  0.00    +0.000 A 
ENDBRANCH   2  13
ENDBRANCH   1   4
BRANCH   1  15
ATOM     15  S   UNL     1       6.150   6.058  15.348  0.00  0.00    +0.000 S 
ATOM     16  O   UNL     1       7.624   5.531  15.501  0.00  0.00    +0.000 OA
BRANCH  15  17
ATOM     17  C   UNL     1       5.005   4.663  15.538  0.00  0.00    +0.000 C 
BRANCH  17  18
ATOM     18  C   UNL     1       5.080   4.082  16.935  0.00  0.00    +0.000 C 
ATOM     19  O   UNL     1       6.103   3.554  17.365  0.00  0.00    +0.000 OA
ATOM     20  N   UNL     1       3.913   4.156  17.673  0.00  0.00    +0.000 N 
ATOM     21  H   UNL     1       3.062   4.423  17.182  0.00  0.00    +0.000 HD
BRANCH  20  22
ATOM     22  C   UNL     1       3.803   3.577  19.017  0.00  0.00    +0.000 C 
ATOM     23  C   UNL     1       3.003   4.476  19.979  0.00  0.00    +0.000 C 
ATOM     24  C   UNL     1       1.496   4.491  19.704  0.00  0.00    +0.000 C 
ATOM     25  C   UNL     1       0.908   3.083  19.680  0.00  0.00    +0.000 C 
ATOM     26  C   UNL     1       1.696   2.214  18.722  0.00  0.00    +0.000 C 
ATOM     27  C   UNL     1       3.192   2.168  18.978  0.00  0.00    +0.000 C 
ENDBRANCH  20  22
ENDBRANCH  17  18
ENDBRANCH  15  17
ENDBRANCH   1  15
TORSDOF 6
ENDMDL
MODEL 8
REMARK VINA RESULT:      -7.6      2.130      9.123
REMARK  Name = 
REMARK  8 active torsions:
REMARK  status: ('A' for Active; 'I' for Inactive)
REMARK    1  A    between atoms: C_1  and  C_2
REMARK    2  A    between atoms: C_6  and  C_7
REMARK    3  A    between atoms: C_9  and  C_10
REMARK    4  A    between atoms: C_10  and  S_11
REMARK    5  A    between atoms: S_11  and  C_13
REMARK    6  A    between atoms: C_13  and  C_14
REMARK    7  A    between atoms: N_16  and  C_17
REMARK    8  A    between atoms: C_23  and  C_24
REMARK                            x       y       z     vdW  Elec       q    Type
REMARK                         _______ _______ _______ _____ _____    ______ ____
ROOT
ATOM      1  C   UNL     1       5.819   4.291  18.937  0.00  0.00    +0.000 C 
ENDROOT
BRANCH   1   4
ATOM      2  C   UNL     1       2.956   6.403  19.082  0.00  0.00    +0.000 A 
ATOM      3  N   UNL     1       4.265   6.250  19.145  0.00  0.00    +0.000 NA
ATOM      4  C   UNL     1       4.457   4.892  18.937  0.00  0.00    +0.000 A 
ATOM      5  C   UNL     1       3.228   4.291  18.742  0.00  0.00    +0.000 A 
ATOM      6  C   UNL     1       2.736   2.943  18.440  0.00  0.00    +0.000 C 
ATOM      7  O   UNL     1       2.264   5.257  18.850  0.00  0.00    +0.000 OA
BRANCH   2  13
ATOM      8  C   UNL     1       0.083   9.627  21.659  0.00  0.00    +0.000 C 
ATOM      9  C   UNL     1       0.815   9.240  20.409  0.00  0.00    +0.000 A 
ATOM     10  C   UNL     1       0.736  10.050  19.266  0.00  0.00    +0.000 A 
ATOM     11  C   UNL     1       1.329   9.627  18.088  0.00  0.00    +0.000 A 
ATOM     12  C   UNL     1       1.982   8.400  18.075  0.00  0.00    +0.000 A 
ATOM     13  C   UNL     1       2.163   7.618  19.207  0.00  0.00    +0.000 A 
ATOM     14  C   UNL     1       1.554   8.046  20.387  0.00  0.00    +0.000 A 
ENDBRANCH   2  13
ENDBRANCH   1   4
BRANCH   1  15
ATOM     15  S   UNL     1       6.820   4.751  17.489  0.00  0.00    +0.000 S 
ATOM     16  O   UNL     1       8.264   4.153  17.669  0.00  0.00    +0.000 OA
BRANCH  15  17
ATOM     17  C   UNL     1       5.941   3.793  16.223  0.00  0.00    +0.000 C 
BRANCH  17  18
ATOM     18  C   UNL     1       6.267   4.296  14.832  0.00  0.00    +0.000 C 
ATOM     19  O   UNL     1       6.525   5.478  14.613  0.00  0.00    +0.000 OA
ATOM     20  N   UNL     1       6.220   3.345  13.830  0.00  0.00    +0.000 N 
ATOM     21  H   UNL     1       5.808   2.443  14.057  0.00  0.00    +0.000 HD
BRANCH  20  22
ATOM     22  C   UNL     1       6.444   3.687  12.420  0.00  0.00    +0.000 C 
ATOM     23  C   UNL     1       7.059   2.520  11.624  0.00  0.00    +0.000 C 
ATOM     24  C   UNL     1       6.078   1.378  11.343  0.00  0.00    +0.000 C 
ATOM     25  C   UNL     1       4.807   1.876  10.659  0.00  0.00    +0.000 C 
ATOM     26  C   UNL     1       4.207   3.014  11.459  0.00  0.00    +0.000 C 
ATOM     27  C   UNL     1       5.152   4.167  11.742  0.00  0.00    +0.000 C 
ENDBRANCH  20  22
ENDBRANCH  17  18
ENDBRANCH  15  17
ENDBRANCH   1  15
TORSDOF 6
ENDMDL
MODEL 9
REMARK VINA RESULT:      -7.5      2.942      5.044
REMARK  Name = 
REMARK  8 active torsions:
REMARK  status: ('A' for Active; 'I' for Inactive)
REMARK    1  A    between atoms: C_1  and  C_2
REMARK    2  A    between atoms: C_6  and  C_7
REMARK    3  A    between atoms: C_9  and  C_10
REMARK    4  A    between atoms: C_10  and  S_11
REMARK    5  A    between atoms: S_11  and  C_13
REMARK    6  A    between atoms: C_13  and  C_14
REMARK    7  A    between atoms: N_16  and  C_17
REMARK    8  A    between atoms: C_23  and  C_24
REMARK                            x       y       z     vdW  Elec       q    Type
REMARK                         _______ _______ _______ _____ _____    ______ ____
ROOT
ATOM      1  C   UNL     1       4.447   5.921  18.722  0.00  0.00    +0.000 C 
ENDROOT
BRANCH   1   4
ATOM      2  C   UNL     1       6.099   5.330  15.624  0.00  0.00    +0.000 A 
ATOM      3  N   UNL     1       5.074   5.121  16.428  0.00  0.00    +0.000 NA
ATOM      4  C   UNL     1       5.365   5.882  17.551  0.00  0.00    +0.000 A 
ATOM      5  C   UNL     1       6.569   6.531  17.353  0.00  0.00    +0.000 A 
ATOM      6  C   UNL     1       7.401   7.485  18.092  0.00  0.00    +0.000 C 
ATOM      7  O   UNL     1       7.048   6.166  16.123  0.00  0.00    +0.000 OA
BRANCH   2  13
ATOM      8  C   UNL     1       4.902   2.520  11.630  0.00  0.00    +0.000 C 
ATOM      9  C   UNL     1       5.796   3.516  12.307  0.00  0.00    +0.000 A 
ATOM     10  C   UNL     1       6.954   3.976  11.662  0.00  0.00    +0.000 A 
ATOM     11  C   UNL     1       7.825   4.812  12.340  0.00  0.00    +0.000 A 
ATOM     12  C   UNL     1       7.523   5.165  13.650  0.00  0.00    +0.000 A 
ATOM     13  C   UNL     1       6.343   4.809  14.286  0.00  0.00    +0.000 A 
ATOM     14  C   UNL     1       5.475   3.958  13.601  0.00  0.00    +0.000 A 
ENDBRANCH   2  13
ENDBRANCH   1   4
BRANCH   1  15
ATOM     15  S   UNL     1       2.920   6.864  18.421  0.00  0.00    +0.000 S 
ATOM     16  O   UNL     1       2.005   6.035  17.447  0.00  0.00    +0.000 OA
BRANCH  15  17
ATOM     17  C   UNL     1       2.213   6.794  20.091  0.00  0.00    +0.000 C 
BRANCH  17  18
ATOM     18  C   UNL     1       2.054   5.361  20.558  0.00  0.00    +0.000 C 
ATOM     19  O   UNL     1       2.372   5.009  21.692  0.00  0.00    +0.000 OA
ATOM     20  N   UNL     1       1.562   4.480  19.614  0.00  0.00    +0.000 N 
ATOM     21  H   UNL     1       1.512   4.803  18.650  0.00  0.00    +0.000 HD
BRANCH  20  22
ATOM     22  C   UNL     1       1.414   3.046  19.889  0.00  0.00    +0.000 C 
ATOM     23  C   UNL     1       1.131   2.230  18.613  0.00  0.00    +0.000 C 
ATOM     24  C   UNL     1       2.347   2.077  17.694  0.00  0.00    +0.000 C 
ATOM     25  C   UNL     1       3.552   1.503  18.435  0.00  0.00    +0.000 C 
ATOM     26  C   UNL     1       3.826   2.323  19.679  0.00  0.00    +0.000 C 
ATOM     27  C   UNL     1       2.643   2.480  20.617  0.00  0.00    +0.000 C 
ENDBRANCH  20  22
ENDBRANCH  17  18
ENDBRANCH  15  17
ENDBRANCH   1  15
TORSDOF 6
ENDMDL
