MODEL 1
REMARK VINA RESULT:      -8.1      0.000      0.000
REMARK  Name = 
REMARK  8 active torsions:
REMARK  status: ('A' for Active; 'I' for Inactive)
REMARK    1  A    between atoms: C_1  and  C_2
REMARK    2  A    between atoms: C_5  and  C_6
REMARK    3  A    between atoms: C_8  and  C_9
REMARK    4  A    between atoms: C_9  and  N_10
REMARK    5  A    between atoms: N_10  and  C_11
REMARK    6  A    between atoms: N_10  and  C_12
REMARK    7  A    between atoms: C_12  and  C_13
REMARK    8  A    between atoms: C_22  and  C_23
REMARK                            x       y       z     vdW  Elec       q    Type
REMARK                         _______ _______ _______ _____ _____    ______ ____
ROOT
ATOM      1  C   UNL     1       5.539   4.642  19.213  0.00  0.00    +0.000 C 
ENDROOT
BRANCH   1   4
ATOM      2  C   UNL     1       2.666   6.773  18.784  0.00  0.00    +0.000 A 
ATOM      3  N   UNL     1       3.904   6.565  19.211  0.00  0.00    +0.000 NA
ATOM      4  C   UNL     1       4.196   5.249  18.856  0.00  0.00    +0.000 A 
ATOM      5  C   UNL     1       3.108   4.727  18.182  0.00  0.00    +0.000 A 
ATOM      6  C   UNL     1       2.770   3.483  17.469  0.00  0.00    +0.000 C 
ATOM      7  O   UNL     1       2.130   5.680  18.158  0.00  0.00    +0.000 OA
BRANCH   2  12
ATOM      8  C   UNL     1      -0.098  10.886  20.661  0.00  0.00    +0.000 C 
ATOM      9  C   UNL     1       0.640   9.938  19.779  0.00  0.00    +0.000 A 
ATOM     10  C   UNL     1       0.908  10.049  18.431  0.00  0.00    +0.000 A 
ATOM     11  C   UNL     1       1.675   8.948  17.939  0.00  0.00    +0.000 A 
ATOM     12  C   UNL     1       1.951   8.016  18.918  0.00  0.00    +0.000 A 
ATOM     13  S   UNL     1       1.280   8.491  20.426  0.00  0.00    +0.000 S 
ENDBRANCH   2  12
ENDBRANCH   1   4
BRANCH   1  14
ATOM     14  N   UNL     1       6.686   5.443  18.715  0.00  0.00    +0.000 NA
ATOM     15  C   UNL     1       7.765   5.505  19.712  0.00  0.00    +0.000 C 
BRANCH  14  16
ATOM     16  C   UNL     1       7.291   4.894  17.463  0.00  0.00    +0.000 C 
BRANCH  16  17
ATOM     17  C   UNL     1       6.672   5.214  16.081  0.00  0.00    +0.000 C 
ATOM     18  C   UNL     1       5.817   4.031  15.579  0.00  0.00    +0.000 C 
ATOM     19  C   UNL     1       6.159   4.058  14.146  0.00  0.00    +0.000 A 
ATOM     20  C   UNL     1       5.613   3.335  13.099  0.00  0.00    +0.000 A 
ATOM     21  C   UNL     1       6.161   3.508  11.822  0.00  0.00    +0.000 A 
ATOM     22  C   UNL     1       7.241   4.383  11.622  0.00  0.00    +0.000 A 
ATOM     23  C   UNL     1       7.794   5.084  12.696  0.00  0.00    +0.000 A 
ATOM     24  C   UNL     1       7.233   4.908  13.946  0.00  0.00    +0.000 A 
ATOM     25  O   UNL     1       7.694   5.508  15.088  0.00  0.00    +0.000 OA
ENDBRANCH  16  17
ENDBRANCH  14  16
ENDBRANCH   1  14
TORSDOF 5
ENDMDL
MODEL 2
REMARK VINA RESULT:      -7.8      4.240      7.127
REMARK  Name = 
REMARK  8 active torsions:
REMARK  status: ('A' for Active; 'I' for Inactive)
REMARK    1  A    between atoms: C_1  and  C_2
REMARK    2  A    between atoms: C_5  and  C_6
REMARK    3  A    between atoms: C_8  and  C_9
REMARK    4  A    between atoms: C_9  and  N_10
REMARK    5  A    between atoms: N_10  and  C_11
REMARK    6  A    between atoms: N_10  and  C_12
REMARK    7  A    between atoms: C_12  and  C_13
REMARK    8  A    between atoms: C_22  and  C_23
REMARK                            x       y       z     vdW  Elec       q    Type
REMARK                         _______ _______ _______ _____ _____    ______ ____
ROOT
ATOM      1  C   UNL     1       5.949   6.945  16.616  0.00  0.00    +0.000 C 
ENDROOT
BRANCH   1   4
ATOM      2  C   UNL     1       8.404   8.975  18.300  0.00  0.00    +0.000 A 
ATOM      3  N   UNL     1       7.414   8.833  17.430  0.00  0.00    +0.000 NA
ATOM      4  C   UNL     1       7.050   7.490  17.505  0.00  0.00    +0.000 A 
ATOM      5  C   UNL     1       7.833   6.880  18.468  0.00  0.00    +0.000 A 
ATOM      6  C   UNL     1       7.923   5.557  19.112  0.00  0.00    +0.000 C 
ATOM      7  O   UNL     1       8.707   7.810  18.953  0.00  0.00    +0.000 OA
BRANCH   2  12
ATOM      8  C   UNL     1      10.655  13.127  20.702  0.00  0.00    +0.000 C 
ATOM      9  C   UNL     1      10.122  12.174  19.688  0.00  0.00    +0.000 A 
ATOM     10  C   UNL     1      10.153  12.275  18.313  0.00  0.00    +0.000 A 
ATOM     11  C   UNL     1       9.566  11.139  17.673  0.00  0.00    +0.000 A 
ATOM     12  C   UNL     1       9.083  10.215  18.576  0.00  0.00    +0.000 A 
ATOM     13  S   UNL     1       9.352  10.733  20.192  0.00  0.00    +0.000 S 
ENDBRANCH   2  12
ENDBRANCH   1   4
BRANCH   1  14
ATOM     14  N   UNL     1       4.926   6.176  17.371  0.00  0.00    +0.000 NA
ATOM     15  C   UNL     1       3.750   7.007  17.671  0.00  0.00    +0.000 C 
BRANCH  14  16
ATOM     16  C   UNL     1       4.426   4.977  16.633  0.00  0.00    +0.000 C 
BRANCH  16  17
ATOM     17  C   UNL     1       3.744   3.812  17.391  0.00  0.00    +0.000 C 
ATOM     18  C   UNL     1       2.250   4.114  17.626  0.00  0.00    +0.000 C 
ATOM     19  C   UNL     1       2.088   3.566  18.985  0.00  0.00    +0.000 A 
ATOM     20  C   UNL     1       0.934   3.392  19.730  0.00  0.00    +0.000 A 
ATOM     21  C   UNL     1       1.061   2.895  21.033  0.00  0.00    +0.000 A 
ATOM     22  C   UNL     1       2.326   2.597  21.564  0.00  0.00    +0.000 A 
ATOM     23  C   UNL     1       3.480   2.804  20.805  0.00  0.00    +0.000 A 
ATOM     24  C   UNL     1       3.334   3.284  19.518  0.00  0.00    +0.000 A 
ATOM     25  O   UNL     1       4.380   3.562  18.676  0.00  0.00    +0.000 OA
ENDBRANCH  16  17
ENDBRANCH  14  16
ENDBRANCH   1  14
TORSDOF 5
ENDMDL
MODEL 3
REMARK VINA RESULT:      -7.6      4.109      6.888
REMARK  Name = 
REMARK  8 active torsions:
REMARK  status: ('A' for Active; 'I' for Inactive)
REMARK    1  A    between atoms: C_1  and  C_2
REMARK    2  A    between atoms: C_5  and  C_6
REMARK    3  A    between atoms: C_8  and  C_9
REMARK    4  A    between atoms: C_9  and  N_10
REMARK    5  A    between atoms: N_10  and  C_11
REMARK    6  A    between atoms: N_10  and  C_12
REMARK    7  A    between atoms: C_12  and  C_13
REMARK    8  A    between atoms: C_22  and  C_23
REMARK                            x       y       z     vdW  Elec       q    Type
REMARK                         _______ _______ _______ _____ _____    ______ ____
ROOT
ATOM      1  C   UNL     1       7.038   5.847  16.280  0.00  0.00    +0.000 C 
ENDROOT
BRANCH   1   4
ATOM      2  C   UNL     1       8.302   8.655  18.151  0.00  0.00    +0.000 A 
ATOM      3  N   UNL     1       7.798   8.130  17.042  0.00  0.00    +0.000 NA
ATOM      4  C   UNL     1       7.589   6.784  17.338  0.00  0.00    +0.000 A 
ATOM      5  C   UNL     1       7.950   6.566  18.654  0.00  0.00    +0.000 A 
ATOM      6  C   UNL     1       7.903   5.453  19.619  0.00  0.00    +0.000 C 
ATOM      7  O   UNL     1       8.425   7.740  19.162  0.00  0.00    +0.000 OA
BRANCH   2  12
ATOM      8  C   UNL     1      10.205  13.246  19.990  0.00  0.00    +0.000 C 
ATOM      9  C   UNL     1       9.525  12.201  19.174  0.00  0.00    +0.000 A 
ATOM     10  C   UNL     1       8.840  12.348  17.985  0.00  0.00    +0.000 A 
ATOM     11  C   UNL     1       8.352  11.100  17.484  0.00  0.00    +0.000 A 
ATOM     12  C   UNL     1       8.656  10.042  18.314  0.00  0.00    +0.000 A 
ATOM     13  S   UNL     1       9.537  10.571  19.691  0.00  0.00    +0.000 S 
ENDBRANCH   2  12
ENDBRANCH   1   4
BRANCH   1  14
ATOM     14  N   UNL     1       5.631   6.153  15.915  0.00  0.00    +0.000 NA
ATOM     15  C   UNL     1       5.078   5.124  15.020  0.00  0.00    +0.000 C 
BRANCH  14  16
ATOM     16  C   UNL     1       4.717   6.230  17.094  0.00  0.00    +0.000 C 
BRANCH  16  17
ATOM     17  C   UNL     1       3.843   5.017  17.496  0.00  0.00    +0.000 C 
ATOM     18  C   UNL     1       2.488   5.486  18.066  0.00  0.00    +0.000 C 
ATOM     19  C   UNL     1       2.315   4.505  19.153  0.00  0.00    +0.000 A 
ATOM     20  C   UNL     1       1.219   4.284  19.969  0.00  0.00    +0.000 A 
ATOM     21  C   UNL     1       1.331   3.316  20.975  0.00  0.00    +0.000 A 
ATOM     22  C   UNL     1       2.528   2.604  21.150  0.00  0.00    +0.000 A 
ATOM     23  C   UNL     1       3.631   2.860  20.332  0.00  0.00    +0.000 A 
ATOM     24  C   UNL     1       3.498   3.811  19.339  0.00  0.00    +0.000 A 
ATOM     25  O   UNL     1       4.506   4.183  18.488  0.00  0.00    +0.000 OA
ENDBRANCH  16  17
ENDBRANCH  14  16
ENDBRANCH   1  14
TORSDOF 5
ENDMDL
MODEL 4
REMARK VINA RESULT:      -7.3      2.244      7.767
REMARK  Name = 
REMARK  8 active torsions:
REMARK  status: ('A' for Active; 'I' for Inactive)
REMARK    1  A    between atoms: C_1  and  C_2
REMARK    2  A    between atoms: C_5  and  C_6
REMARK    3  A    between atoms: C_8  and  C_9
REMARK    4  A    between atoms: C_9  and  N_10
REMARK    5  A    between atoms: N_10  and  C_11
REMARK    6  A    between atoms: N_10  and  C_12
REMARK    7  A    between atoms: C_12  and  C_13
REMARK    8  A    between atoms: C_22  and  C_23
REMARK                            x       y       z     vdW  Elec       q    Type
REMARK                         _______ _______ _______ _____ _____    ______ ____
ROOT
ATOM      1  C   UNL     1       5.597   4.727  19.176  0.00  0.00    +0.000 C 
ENDROOT
BRANCH   1   4
ATOM      2  C   UNL     1       6.634   4.908  15.729  0.00  0.00    +0.000 A 
ATOM      3  N   UNL     1       5.889   4.381  16.692  0.00  0.00    +0.000 NA
ATOM      4  C   UNL     1       6.237   5.080  17.847  0.00  0.00    +0.000 A 
ATOM      5  C   UNL     1       7.170   6.043  17.509  0.00  0.00    +0.000 A 
ATOM      6  C   UNL     1       7.872   7.152  18.178  0.00  0.00    +0.000 C 
ATOM      7  O   UNL     1       7.441   5.919  16.177  0.00  0.00    +0.000 OA
BRANCH   2  12
ATOM      8  C   UNL     1       5.252   2.759  11.087  0.00  0.00    +0.000 C 
ATOM      9  C   UNL     1       5.967   3.488  12.172  0.00  0.00    +0.000 A 
ATOM     10  C   UNL     1       7.156   4.184  12.102  0.00  0.00    +0.000 A 
ATOM     11  C   UNL     1       7.508   4.781  13.353  0.00  0.00    +0.000 A 
ATOM     12  C   UNL     1       6.592   4.505  14.347  0.00  0.00    +0.000 A 
ATOM     13  S   UNL     1       5.311   3.529  13.750  0.00  0.00    +0.000 S 
ENDBRANCH   2  12
ENDBRANCH   1   4
BRANCH   1  14
ATOM     14  N   UNL     1       4.309   4.005  19.022  0.00  0.00    +0.000 NA
ATOM     15  C   UNL     1       3.966   3.262  20.244  0.00  0.00    +0.000 C 
BRANCH  14  16
ATOM     16  C   UNL     1       3.155   4.909  18.733  0.00  0.00    +0.000 C 
BRANCH  16  17
ATOM     17  C   UNL     1       3.206   6.405  19.129  0.00  0.00    +0.000 C 
ATOM     18  C   UNL     1       2.230   6.696  20.288  0.00  0.00    +0.000 C 
ATOM     19  C   UNL     1       1.720   8.014  19.869  0.00  0.00    +0.000 A 
ATOM     20  C   UNL     1       0.905   8.899  20.555  0.00  0.00    +0.000 A 
ATOM     21  C   UNL     1       0.516  10.075  19.902  0.00  0.00    +0.000 A 
ATOM     22  C   UNL     1       0.933  10.334  18.588  0.00  0.00    +0.000 A 
ATOM     23  C   UNL     1       1.734   9.416  17.904  0.00  0.00    +0.000 A 
ATOM     24  C   UNL     1       2.117   8.267  18.567  0.00  0.00    +0.000 A 
ATOM     25  O   UNL     1       2.874   7.271  18.008  0.00  0.00    +0.000 OA
ENDBRANCH  16  17
ENDBRANCH  14  16
ENDBRANCH   1  14
TORSDOF 5
ENDMDL
MODEL 5
REMARK VINA RESULT:      -7.3      1.478      2.018
REMARK  Name = 
REMARK  8 active torsions:
REMARK  status: ('A' for Active; 'I' for Inactive)
REMARK    1  A    between atoms: C_1  and  C_2
REMARK    2  A    between atoms: C_5  and  C_6
REMARK    3  A    between atoms: C_8  and  C_9
REMARK    4  A    between atoms: C_9  and  N_10
REMARK    5  A    between atoms: N_10  and  C_11
REMARK    6  A    between atoms: N_10  and  C_12
REMARK    7  A    between atoms: C_12  and  C_13
REMARK    8  A    between atoms: C_22  and  C_23
REMARK                            x       y       z     vdW  Elec       q    Type
REMARK                         _______ _______ _______ _____ _____    ______ ____
ROOT
ATOM      1  C   UNL     1       3.701   5.920  18.080  0.00  0.00    +0.000 C 
ENDROOT
BRANCH   1   4
ATOM      2  C   UNL     1       1.586   7.852  20.266  0.00  0.00    +0.000 A 
ATOM      3  N   UNL     1       2.376   7.750  19.206  0.00  0.00    +0.000 NA
ATOM      4  C   UNL     1       2.758   6.410  19.162  0.00  0.00    +0.000 A 
ATOM      5  C   UNL     1       2.134   5.745  20.200  0.00  0.00    +0.000 A 
ATOM      6  C   UNL     1       2.011   4.356  20.678  0.00  0.00    +0.000 C 
ATOM      7  O   UNL     1       1.414   6.658  20.915  0.00  0.00    +0.000 OA
BRANCH   2  12
ATOM      8  C   UNL     1      -1.230  11.456  22.941  0.00  0.00    +0.000 C 
ATOM      9  C   UNL     1      -0.395  10.757  21.924  0.00  0.00    +0.000 A 
ATOM     10  C   UNL     1       0.135  11.259  20.754  0.00  0.00    +0.000 A 
ATOM     11  C   UNL     1       0.914  10.286  20.051  0.00  0.00    +0.000 A 
ATOM     12  C   UNL     1       0.937   9.065  20.692  0.00  0.00    +0.000 A 
ATOM     13  S   UNL     1       0.018   9.112  22.142  0.00  0.00    +0.000 S 
ENDBRANCH   2  12
ENDBRANCH   1   4
BRANCH   1  14
ATOM     14  N   UNL     1       4.979   5.396  18.623  0.00  0.00    +0.000 NA
ATOM     15  C   UNL     1       4.874   3.964  18.945  0.00  0.00    +0.000 C 
BRANCH  14  16
ATOM     16  C   UNL     1       6.127   5.537  17.676  0.00  0.00    +0.000 C 
BRANCH  16  17
ATOM     17  C   UNL     1       5.880   5.691  16.156  0.00  0.00    +0.000 C 
ATOM     18  C   UNL     1       5.126   4.466  15.598  0.00  0.00    +0.000 C 
ATOM     19  C   UNL     1       5.811   4.312  14.302  0.00  0.00    +0.000 A 
ATOM     20  C   UNL     1       5.509   3.471  13.244  0.00  0.00    +0.000 A 
ATOM     21  C   UNL     1       6.362   3.480  12.133  0.00  0.00    +0.000 A 
ATOM     22  C   UNL     1       7.493   4.310  12.107  0.00  0.00    +0.000 A 
ATOM     23  C   UNL     1       7.794   5.132  13.196  0.00  0.00    +0.000 A 
ATOM     24  C   UNL     1       6.936   5.118  14.278  0.00  0.00    +0.000 A 
ATOM     25  O   UNL     1       7.127   5.849  15.422  0.00  0.00    +0.000 OA
ENDBRANCH  16  17
ENDBRANCH  14  16
ENDBRANCH   1  14
TORSDOF 5
ENDMDL
MODEL 6
REMARK VINA RESULT:      -7.2      1.624      2.321
REMARK  Name = 
REMARK  8 active torsions:
REMARK  status: ('A' for Active; 'I' for Inactive)
REMARK    1  A    between atoms: C_1  and  C_2
REMARK    2  A    between atoms: C_5  and  C_6
REMARK    3  A    between atoms: C_8  and  C_9
REMARK    4  A    between atoms: C_9  and  N_10
REMARK    5  A    between atoms: N_10  and  C_11
REMARK    6  A    between atoms: N_10  and  C_12
REMARK    7  A    between atoms: C_12  and  C_13
REMARK    8  A    between atoms: C_22  and  C_23
REMARK                            x       y       z     vdW  Elec       q    Type
REMARK                         _______ _______ _______ _____ _____    ______ ____
ROOT
ATOM      1  C   UNL     1       4.374   3.623  19.424  0.00  0.00    +0.000 C 
ENDROOT
BRANCH   1   4
ATOM      2  C   UNL     1       2.268   6.515  19.860  0.00  0.00    +0.000 A 
ATOM      3  N   UNL     1       3.303   5.906  19.297  0.00  0.00    +0.000 NA
ATOM      4  C   UNL     1       3.299   4.616  19.825  0.00  0.00    +0.000 A 
ATOM      5  C   UNL     1       2.214   4.495  20.673  0.00  0.00    +0.000 A 
ATOM      6  C   UNL     1       1.570   3.430  21.462  0.00  0.00    +0.000 C 
ATOM      7  O   UNL     1       1.576   5.701  20.717  0.00  0.00    +0.000 OA
BRANCH   2  12
ATOM      8  C   UNL     1       0.319  11.426  20.253  0.00  0.00    +0.000 C 
ATOM      9  C   UNL     1       0.944  10.168  19.756  0.00  0.00    +0.000 A 
ATOM     10  C   UNL     1       1.464   9.901  18.506  0.00  0.00    +0.000 A 
ATOM     11  C   UNL     1       2.010   8.583  18.417  0.00  0.00    +0.000 A 
ATOM     12  C   UNL     1       1.870   7.872  19.592  0.00  0.00    +0.000 A 
ATOM     13  S   UNL     1       1.083   8.816  20.792  0.00  0.00    +0.000 S 
ENDBRANCH   2  12
ENDBRANCH   1   4
BRANCH   1  14
ATOM     14  N   UNL     1       4.240   3.165  18.018  0.00  0.00    +0.000 NA
ATOM     15  C   UNL     1       2.838   2.866  17.687  0.00  0.00    +0.000 C 
BRANCH  14  16
ATOM     16  C   UNL     1       4.709   4.174  17.020  0.00  0.00    +0.000 C 
BRANCH  16  17
ATOM     17  C   UNL     1       5.878   3.849  16.059  0.00  0.00    +0.000 C 
ATOM     18  C   UNL     1       6.721   5.111  15.779  0.00  0.00    +0.000 C 
ATOM     19  C   UNL     1       7.010   4.913  14.347  0.00  0.00    +0.000 A 
ATOM     20  C   UNL     1       7.853   5.629  13.514  0.00  0.00    +0.000 A 
ATOM     21  C   UNL     1       7.908   5.266  12.163  0.00  0.00    +0.000 A 
ATOM     22  C   UNL     1       7.117   4.215  11.674  0.00  0.00    +0.000 A 
ATOM     23  C   UNL     1       6.253   3.521  12.525  0.00  0.00    +0.000 A 
ATOM     24  C   UNL     1       6.221   3.887  13.857  0.00  0.00    +0.000 A 
ATOM     25  O   UNL     1       5.400   3.314  14.793  0.00  0.00    +0.000 OA
ENDBRANCH  16  17
ENDBRANCH  14  16
ENDBRANCH   1  14
TORSDOF 5
ENDMDL
MODEL 7
REMARK VINA RESULT:      -7.1      4.605      6.933
REMARK  Name = 
REMARK  8 active torsions:
REMARK  status: ('A' for Active; 'I' for Inactive)
REMARK    1  A    between atoms: C_1  and  C_2
REMARK    2  A    between atoms: C_5  and  C_6
REMARK    3  A    between atoms: C_8  and  C_9
REMARK    4  A    between atoms: C_9  and  N_10
REMARK    5  A    between atoms: N_10  and  C_11
REMARK    6  A    between atoms: N_10  and  C_12
REMARK    7  A    between atoms: C_12  and  C_13
REMARK    8  A    between atoms: C_22  and  C_23
REMARK                            x       y       z     vdW  Elec       q    Type
REMARK                         _______ _______ _______ _____ _____    ______ ____
ROOT
ATOM      1  C   UNL     1       6.325   7.189  16.633  0.00  0.00    +0.000 C 
ENDROOT
BRANCH   1   4
ATOM      2  C   UNL     1       3.976   4.627  17.582  0.00  0.00    +0.000 A 
ATOM      3  N   UNL     1       4.558   5.801  17.784  0.00  0.00    +0.000 NA
ATOM      4  C   UNL     1       5.449   5.955  16.722  0.00  0.00    +0.000 A 
ATOM      5  C   UNL     1       5.331   4.856  15.892  0.00  0.00    +0.000 A 
ATOM      6  C   UNL     1       5.872   4.416  14.594  0.00  0.00    +0.000 C 
ATOM      7  O   UNL     1       4.420   4.003  16.446  0.00  0.00    +0.000 OA
BRANCH   2  12
ATOM      8  C   UNL     1       1.304   2.619  21.694  0.00  0.00    +0.000 C 
ATOM      9  C   UNL     1       1.702   3.100  20.341  0.00  0.00    +0.000 A 
ATOM     10  C   UNL     1       0.952   3.129  19.183  0.00  0.00    +0.000 A 
ATOM     11  C   UNL     1       1.673   3.695  18.085  0.00  0.00    +0.000 A 
ATOM     12  C   UNL     1       2.959   4.059  18.429  0.00  0.00    +0.000 A 
ATOM     13  S   UNL     1       3.275   3.717  20.082  0.00  0.00    +0.000 S 
ENDBRANCH   2  12
ENDBRANCH   1   4
BRANCH   1  14
ATOM     14  N   UNL     1       7.112   7.429  17.869  0.00  0.00    +0.000 NA
ATOM     15  C   UNL     1       7.736   6.187  18.352  0.00  0.00    +0.000 C 
BRANCH  14  16
ATOM     16  C   UNL     1       8.216   8.418  17.685  0.00  0.00    +0.000 C 
BRANCH  16  17
ATOM     17  C   UNL     1       8.236   9.738  18.494  0.00  0.00    +0.000 C 
ATOM     18  C   UNL     1       8.410  10.951  17.556  0.00  0.00    +0.000 C 
ATOM     19  C   UNL     1       9.310  11.782  18.376  0.00  0.00    +0.000 A 
ATOM     20  C   UNL     1       9.739  13.081  18.167  0.00  0.00    +0.000 A 
ATOM     21  C   UNL     1      10.648  13.630  19.080  0.00  0.00    +0.000 A 
ATOM     22  C   UNL     1      11.115  12.872  20.165  0.00  0.00    +0.000 A 
ATOM     23  C   UNL     1      10.689  11.554  20.345  0.00  0.00    +0.000 A 
ATOM     24  C   UNL     1       9.784  11.034  19.440  0.00  0.00    +0.000 A 
ATOM     25  O   UNL     1       9.308   9.749  19.479  0.00  0.00    +0.000 OA
ENDBRANCH  16  17
ENDBRANCH  14  16
ENDBRANCH   1  14
TORSDOF 5
ENDMDL
MODEL 8
REMARK VINA RESULT:      -7.1      1.783      2.477
REMARK  Name = 
REMARK  8 active torsions:
REMARK  status: ('A' for Active; 'I' for Inactive)
REMARK    1  A    between atoms: C_1  and  C_2
REMARK    2  A    between atoms: C_5  and  C_6
REMARK    3  A    between atoms: C_8  and  C_9
REMARK    4  A    between atoms: C_9  and  N_10
REMARK    5  A    between atoms: N_10  and  C_11
REMARK    6  A    between atoms: N_10  and  C_12
REMARK    7  A    between atoms: C_12  and  C_13
REMARK    8  A    between atoms: C_22  and  C_23
REMARK                            x       y       z     vdW  Elec       q    Type
REMARK                         _______ _______ _______ _____ _____    ______ ____
ROOT
ATOM      1  C   UNL     1       4.237   3.650  19.525  0.00  0.00    +0.000 C 
ENDROOT
BRANCH   1   4
ATOM      2  C   UNL     1       1.997   6.362  20.305  0.00  0.00    +0.000 A 
ATOM      3  N   UNL     1       3.109   5.897  19.754  0.00  0.00    +0.000 NA
ATOM      4  C   UNL     1       3.090   4.524  19.994  0.00  0.00    +0.000 A 
ATOM      5  C   UNL     1       1.920   4.215  20.662  0.00  0.00    +0.000 A 
ATOM      6  C   UNL     1       1.226   3.001  21.126  0.00  0.00    +0.000 C 
ATOM      7  O   UNL     1       1.239   5.378  20.882  0.00  0.00    +0.000 OA
BRANCH   2  12
ATOM      8  C   UNL     1       0.936  11.340  18.831  0.00  0.00    +0.000 C 
ATOM      9  C   UNL     1       1.102  10.081  19.611  0.00  0.00    +0.000 A 
ATOM     10  C   UNL     1       0.810   9.846  20.938  0.00  0.00    +0.000 A 
ATOM     11  C   UNL     1       1.076   8.494  21.320  0.00  0.00    +0.000 A 
ATOM     12  C   UNL     1       1.585   7.742  20.282  0.00  0.00    +0.000 A 
ATOM     13  S   UNL     1       1.730   8.683  18.852  0.00  0.00    +0.000 S 
ENDBRANCH   2  12
ENDBRANCH   1   4
BRANCH   1  14
ATOM     14  N   UNL     1       4.306   3.534  18.046  0.00  0.00    +0.000 NA
ATOM     15  C   UNL     1       2.991   3.776  17.432  0.00  0.00    +0.000 C 
BRANCH  14  16
ATOM     16  C   UNL     1       5.255   4.503  17.421  0.00  0.00    +0.000 C 
BRANCH  16  17
ATOM     17  C   UNL     1       6.245   4.043  16.323  0.00  0.00    +0.000 C 
ATOM     18  C   UNL     1       7.064   5.237  15.791  0.00  0.00    +0.000 C 
ATOM     19  C   UNL     1       7.113   4.896  14.357  0.00  0.00    +0.000 A 
ATOM     20  C   UNL     1       7.829   5.496  13.336  0.00  0.00    +0.000 A 
ATOM     21  C   UNL     1       7.655   5.008  12.035  0.00  0.00    +0.000 A 
ATOM     22  C   UNL     1       6.768   3.950  11.782  0.00  0.00    +0.000 A 
ATOM     23  C   UNL     1       6.035   3.375  12.823  0.00  0.00    +0.000 A 
ATOM     24  C   UNL     1       6.228   3.862  14.101  0.00  0.00    +0.000 A 
ATOM     25  O   UNL     1       5.554   3.413  15.206  0.00  0.00    +0.000 OA
ENDBRANCH  16  17
ENDBRANCH  14  16
ENDBRANCH   1  14
TORSDOF 5
ENDMDL
MODEL 9
REMARK VINA RESULT:      -7.1      2.937      8.470
REMARK  Name = 
REMARK  8 active torsions:
REMARK  status: ('A' for Active; 'I' for Inactive)
REMARK    1  A    between atoms: C_1  and  C_2
REMARK    2  A    between atoms: C_5  and  C_6
REMARK    3  A    between atoms: C_8  and  C_9
REMARK    4  A    between atoms: C_9  and  N_10
REMARK    5  A    between atoms: N_10  and  C_11
REMARK    6  A    between atoms: N_10  and  C_12
REMARK    7  A    between atoms: C_12  and  C_13
REMARK    8  A    between atoms: C_22  and  C_23
REMARK                            x       y       z     vdW  Elec       q    Type
REMARK                         _______ _______ _______ _____ _____    ______ ____
ROOT
ATOM      1  C   UNL     1       1.758   7.535  21.093  0.00  0.00    +0.000 C 
ENDROOT
BRANCH   1   4
ATOM      2  C   UNL     1       3.257   5.745  18.349  0.00  0.00    +0.000 A 
ATOM      3  N   UNL     1       3.101   6.848  19.069  0.00  0.00    +0.000 NA
ATOM      4  C   UNL     1       2.203   6.501  20.078  0.00  0.00    +0.000 A 
ATOM      5  C   UNL     1       1.883   5.164  19.936  0.00  0.00    +0.000 A 
ATOM      6  C   UNL     1       1.104   4.152  20.672  0.00  0.00    +0.000 C 
ATOM      7  O   UNL     1       2.528   4.690  18.829  0.00  0.00    +0.000 OA
BRANCH   2  12
ATOM      8  C   UNL     1       6.258   3.890  14.395  0.00  0.00    +0.000 C 
ATOM      9  C   UNL     1       5.546   4.774  15.360  0.00  0.00    +0.000 A 
ATOM     10  C   UNL     1       5.535   6.153  15.417  0.00  0.00    +0.000 A 
ATOM     11  C   UNL     1       4.703   6.644  16.472  0.00  0.00    +0.000 A 
ATOM     12  C   UNL     1       4.122   5.630  17.203  0.00  0.00    +0.000 A 
ATOM     13  S   UNL     1       4.587   4.090  16.599  0.00  0.00    +0.000 S 
ENDBRANCH   2  12
ENDBRANCH   1   4
BRANCH   1  14
ATOM     14  N   UNL     1       0.658   8.399  20.594  0.00  0.00    +0.000 NA
ATOM     15  C   UNL     1      -0.389   8.570  21.613  0.00  0.00    +0.000 C 
BRANCH  14  16
ATOM     16  C   UNL     1       1.111   9.770  20.211  0.00  0.00    +0.000 C 
BRANCH  16  17
ATOM     17  C   UNL     1       0.358  10.574  19.123  0.00  0.00    +0.000 C 
ATOM     18  C   UNL     1      -0.805  11.376  19.743  0.00  0.00    +0.000 C 
ATOM     19  C   UNL     1      -1.822  11.209  18.688  0.00  0.00    +0.000 A 
ATOM     20  C   UNL     1      -3.063  11.810  18.562  0.00  0.00    +0.000 A 
ATOM     21  C   UNL     1      -3.870  11.434  17.481  0.00  0.00    +0.000 A 
ATOM     22  C   UNL     1      -3.429  10.466  16.565  0.00  0.00    +0.000 A 
ATOM     23  C   UNL     1      -2.185   9.852  16.724  0.00  0.00    +0.000 A 
ATOM     24  C   UNL     1      -1.398  10.245  17.790  0.00  0.00    +0.000 A 
ATOM     25  O   UNL     1      -0.173   9.706  18.083  0.00  0.00    +0.000 OA
ENDBRANCH  16  17
ENDBRANCH  14  16
ENDBRANCH   1  14
TORSDOF 5
ENDMDL
