MODEL 1
REMARK VINA RESULT:      -6.8      0.000      0.000
REMARK  Name = 
REMARK  4 active torsions:
REMARK  status: ('A' for Active; 'I' for Inactive)
REMARK    1  A    between atoms: C_1  and  C_2
REMARK    2  A    between atoms: C_5  and  C_6
REMARK    3  A    between atoms: C_14  and  C_15
REMARK    4  A    between atoms: C_15  and  N_17
REMARK                            x       y       z     vdW  Elec       q    Type
REMARK                         _______ _______ _______ _____ _____    ______ ____
ROOT
ATOM      1  C   UNL     1       6.608   4.834  15.690  0.00  0.00    +0.000 C 
ATOM      2  C   UNL     1       5.582   4.173  16.519  0.00  0.00    +0.000 A 
ATOM      3  O   UNL     1       5.126   2.979  16.072  0.00  0.00    +0.000 OA
ATOM      4  N   UNL     1       4.172   2.495  16.932  0.00  0.00    +0.000 NA
ATOM      5  C   UNL     1       4.000   3.420  17.893  0.00  0.00    +0.000 A 
ATOM      6  C   UNL     1       4.913   4.514  17.676  0.00  0.00    +0.000 A 
ENDROOT
BRANCH   5   7
ATOM      7  C   UNL     1       3.011   3.191  18.969  0.00  0.00    +0.000 A 
ATOM      8  C   UNL     1       1.666   3.592  18.844  0.00  0.00    +0.000 A 
ATOM      9 CL   UNL     1       1.061   4.510  17.502  0.00  0.00    +0.000 Cl
ATOM     10  C   UNL     1       0.730   3.348  19.864  0.00  0.00    +0.000 A 
ATOM     11  C   UNL     1       1.125   2.772  21.064  0.00  0.00    +0.000 A 
ATOM     12  C   UNL     1       2.456   2.418  21.240  0.00  0.00    +0.000 A 
ATOM     13  C   UNL     1       3.387   2.600  20.202  0.00  0.00    +0.000 A 
ATOM     14 CL   UNL     1       4.989   2.029  20.550  0.00  0.00    +0.000 Cl
ENDBRANCH   5   7
BRANCH   6  15
ATOM     15  C   UNL     1       5.067   5.745  18.418  0.00  0.00    +0.000 C 
ATOM     16  O   UNL     1       6.005   5.890  19.199  0.00  0.00    +0.000 OA
BRANCH  15  17
ATOM     17  N   UNL     1       4.078   6.667  18.148  0.00  0.00    +0.000 NA
ATOM     18  C   UNL     1       3.162   6.912  19.038  0.00  0.00    +0.000 C 
ATOM     19  N   UNL     1       3.079   6.299  20.255  0.00  0.00    +0.000 N 
ATOM     20  N   UNL     1       2.143   7.823  18.844  0.00  0.00    +0.000 N 
ATOM     21  C   UNL     1       2.052   8.669  17.637  0.00  0.00    +0.000 C 
ATOM     22  C   UNL     1       2.051  10.165  18.016  0.00  0.00    +0.000 C 
ATOM     23  O   UNL     1       1.025  10.474  18.973  0.00  0.00    +0.000 OA
ATOM     24  C   UNL     1       1.217   9.701  20.164  0.00  0.00    +0.000 C 
ATOM     25  C   UNL     1       1.135   8.201  19.857  0.00  0.00    +0.000 C 
ATOM     26  H   UNL     1       3.833   5.628  20.411  0.00  0.00    +0.000 HD
ATOM     27  H   UNL     1       2.193   5.829  20.386  0.00  0.00    +0.000 HD
ENDBRANCH  15  17
ENDBRANCH   6  15
TORSDOF 3
ENDMDL
MODEL 2
REMARK VINA RESULT:      -6.8      0.093      1.844
REMARK  Name = 
REMARK  4 active torsions:
REMARK  status: ('A' for Active; 'I' for Inactive)
REMARK    1  A    between atoms: C_1  and  C_2
REMARK    2  A    between atoms: C_5  and  C_6
REMARK    3  A    between atoms: C_14  and  C_15
REMARK    4  A    between atoms: C_15  and  N_17
REMARK                            x       y       z     vdW  Elec       q    Type
REMARK                         _______ _______ _______ _____ _____    ______ ____
ROOT
ATOM      1  C   UNL     1       6.510   4.909  15.603  0.00  0.00    +0.000 C 
ATOM      2  C   UNL     1       5.515   4.248  16.469  0.00  0.00    +0.000 A 
ATOM      3  O   UNL     1       5.050   3.050  16.043  0.00  0.00    +0.000 OA
ATOM      4  N   UNL     1       4.127   2.567  16.936  0.00  0.00    +0.000 NA
ATOM      5  C   UNL     1       3.982   3.496  17.898  0.00  0.00    +0.000 A 
ATOM      6  C   UNL     1       4.883   4.593  17.645  0.00  0.00    +0.000 A 
ENDROOT
BRANCH   5   7
ATOM      7  C   UNL     1       3.031   3.268  19.008  0.00  0.00    +0.000 A 
ATOM      8  C   UNL     1       3.423   2.641  20.208  0.00  0.00    +0.000 A 
ATOM      9 CL   UNL     1       4.994   1.951  20.461  0.00  0.00    +0.000 Cl
ATOM     10  C   UNL     1       2.516   2.451  21.265  0.00  0.00    +0.000 A 
ATOM     11  C   UNL     1       1.180   2.805  21.125  0.00  0.00    +0.000 A 
ATOM     12  C   UNL     1       0.752   3.372  19.932  0.00  0.00    +0.000 A 
ATOM     13  C   UNL     1       1.664   3.625  18.893  0.00  0.00    +0.000 A 
ATOM     14 CL   UNL     1       0.986   4.414  17.503  0.00  0.00    +0.000 Cl
ENDBRANCH   5   7
BRANCH   6  15
ATOM     15  C   UNL     1       5.057   5.828  18.376  0.00  0.00    +0.000 C 
ATOM     16  O   UNL     1       6.006   5.972  19.142  0.00  0.00    +0.000 OA
BRANCH  15  17
ATOM     17  N   UNL     1       4.071   6.754  18.113  0.00  0.00    +0.000 NA
ATOM     18  C   UNL     1       3.149   6.989  19.000  0.00  0.00    +0.000 C 
ATOM     19  N   UNL     1       3.058   6.360  20.208  0.00  0.00    +0.000 N 
ATOM     20  N   UNL     1       2.133   7.904  18.812  0.00  0.00    +0.000 N 
ATOM     21  C   UNL     1       2.050   8.767  17.617  0.00  0.00    +0.000 C 
ATOM     22  C   UNL     1       2.049  10.257  18.016  0.00  0.00    +0.000 C 
ATOM     23  O   UNL     1       1.017  10.555  18.971  0.00  0.00    +0.000 OA
ATOM     24  C   UNL     1       1.201   9.765  20.152  0.00  0.00    +0.000 C 
ATOM     25  C   UNL     1       1.119   8.270  19.824  0.00  0.00    +0.000 C 
ATOM     26  H   UNL     1       3.810   5.686  20.359  0.00  0.00    +0.000 HD
ATOM     27  H   UNL     1       2.170   5.888  20.328  0.00  0.00    +0.000 HD
ENDBRANCH  15  17
ENDBRANCH   6  15
TORSDOF 3
ENDMDL
MODEL 3
REMARK VINA RESULT:      -6.8      2.126      4.482
REMARK  Name = 
REMARK  4 active torsions:
REMARK  status: ('A' for Active; 'I' for Inactive)
REMARK    1  A    between atoms: C_1  and  C_2
REMARK    2  A    between atoms: C_5  and  C_6
REMARK    3  A    between atoms: C_14  and  C_15
REMARK    4  A    between atoms: C_15  and  N_17
REMARK                            x       y       z     vdW  Elec       q    Type
REMARK                         _______ _______ _______ _____ _____    ______ ____
ROOT
ATOM      1  C   UNL     1       1.823   3.020  21.580  0.00  0.00    +0.000 C 
ATOM      2  C   UNL     1       2.929   3.183  20.617  0.00  0.00    +0.000 A 
ATOM      3  O   UNL     1       4.051   2.469  20.865  0.00  0.00    +0.000 OA
ATOM      4  N   UNL     1       4.991   2.733  19.900  0.00  0.00    +0.000 NA
ATOM      5  C   UNL     1       4.465   3.657  19.077  0.00  0.00    +0.000 A 
ATOM      6  C   UNL     1       3.119   3.959  19.492  0.00  0.00    +0.000 A 
ENDROOT
BRANCH   5   7
ATOM      7  C   UNL     1       5.256   4.162  17.934  0.00  0.00    +0.000 A 
ATOM      8  C   UNL     1       6.409   4.953  18.117  0.00  0.00    +0.000 A 
ATOM      9 CL   UNL     1       6.939   5.531  19.664  0.00  0.00    +0.000 Cl
ATOM     10  C   UNL     1       7.166   5.408  17.023  0.00  0.00    +0.000 A 
ATOM     11  C   UNL     1       6.753   5.158  15.722  0.00  0.00    +0.000 A 
ATOM     12  C   UNL     1       5.590   4.431  15.509  0.00  0.00    +0.000 A 
ATOM     13  C   UNL     1       4.860   3.916  16.595  0.00  0.00    +0.000 A 
ATOM     14 CL   UNL     1       3.478   2.960  16.158  0.00  0.00    +0.000 Cl
ENDBRANCH   5   7
BRANCH   6  15
ATOM     15  C   UNL     1       2.179   4.911  18.944  0.00  0.00    +0.000 C 
ATOM     16  O   UNL     1       1.675   4.726  17.839  0.00  0.00    +0.000 OA
BRANCH  15  17
ATOM     17  N   UNL     1       1.947   5.984  19.778  0.00  0.00    +0.000 NA
ATOM     18  C   UNL     1       1.919   7.189  19.290  0.00  0.00    +0.000 C 
ATOM     19  N   UNL     1       2.125   7.499  17.977  0.00  0.00    +0.000 N 
ATOM     20  N   UNL     1       1.689   8.312  20.059  0.00  0.00    +0.000 N 
ATOM     21  C   UNL     1       1.366   8.238  21.498  0.00  0.00    +0.000 C 
ATOM     22  C   UNL     1       0.008   8.909  21.790  0.00  0.00    +0.000 C 
ATOM     23  O   UNL     1      -0.042  10.256  21.293  0.00  0.00    +0.000 OA
ATOM     24  C   UNL     1       0.178  10.263  19.877  0.00  0.00    +0.000 C 
ATOM     25  C   UNL     1       1.558   9.689  19.538  0.00  0.00    +0.000 C 
ATOM     26  H   UNL     1       2.289   6.673  17.398  0.00  0.00    +0.000 HD
ATOM     27  H   UNL     1       2.897   8.141  17.852  0.00  0.00    +0.000 HD
ENDBRANCH  15  17
ENDBRANCH   6  15
TORSDOF 3
ENDMDL
MODEL 4
REMARK VINA RESULT:      -6.8      2.039      4.173
REMARK  Name = 
REMARK  4 active torsions:
REMARK  status: ('A' for Active; 'I' for Inactive)
REMARK    1  A    between atoms: C_1  and  C_2
REMARK    2  A    between atoms: C_5  and  C_6
REMARK    3  A    between atoms: C_14  and  C_15
REMARK    4  A    between atoms: C_15  and  N_17
REMARK                            x       y       z     vdW  Elec       q    Type
REMARK                         _______ _______ _______ _____ _____    ______ ____
ROOT
ATOM      1  C   UNL     1       1.979   2.546  21.882  0.00  0.00    +0.000 C 
ATOM      2  C   UNL     1       2.997   2.859  20.862  0.00  0.00    +0.000 A 
ATOM      3  O   UNL     1       4.230   2.338  21.064  0.00  0.00    +0.000 OA
ATOM      4  N   UNL     1       5.069   2.724  20.049  0.00  0.00    +0.000 NA
ATOM      5  C   UNL     1       4.364   3.532  19.238  0.00  0.00    +0.000 A 
ATOM      6  C   UNL     1       3.008   3.628  19.717  0.00  0.00    +0.000 A 
ENDROOT
BRANCH   5   7
ATOM      7  C   UNL     1       5.009   4.129  18.049  0.00  0.00    +0.000 A 
ATOM      8  C   UNL     1       4.558   3.858  16.741  0.00  0.00    +0.000 A 
ATOM      9 CL   UNL     1       3.314   2.706  16.376  0.00  0.00    +0.000 Cl
ATOM     10  C   UNL     1       5.164   4.450  15.619  0.00  0.00    +0.000 A 
ATOM     11  C   UNL     1       6.283   5.260  15.763  0.00  0.00    +0.000 A 
ATOM     12  C   UNL     1       6.786   5.500  17.035  0.00  0.00    +0.000 A 
ATOM     13  C   UNL     1       6.148   4.964  18.168  0.00  0.00    +0.000 A 
ATOM     14 CL   UNL     1       6.852   5.426  19.687  0.00  0.00    +0.000 Cl
ENDBRANCH   5   7
BRANCH   6  15
ATOM     15  C   UNL     1       1.903   4.404  19.201  0.00  0.00    +0.000 C 
ATOM     16  O   UNL     1       1.159   3.939  18.341  0.00  0.00    +0.000 OA
BRANCH  15  17
ATOM     17  N   UNL     1       1.812   5.658  19.769  0.00  0.00    +0.000 NA
ATOM     18  C   UNL     1       2.038   6.714  19.045  0.00  0.00    +0.000 C 
ATOM     19  N   UNL     1       2.391   6.690  17.726  0.00  0.00    +0.000 N 
ATOM     20  N   UNL     1       1.963   8.001  19.540  0.00  0.00    +0.000 N 
ATOM     21  C   UNL     1       1.530   8.298  20.920  0.00  0.00    +0.000 C 
ATOM     22  C   UNL     1       0.300   9.229  20.920  0.00  0.00    +0.000 C 
ATOM     23  O   UNL     1       0.532  10.424  20.155  0.00  0.00    +0.000 OA
ATOM     24  C   UNL     1       0.849  10.084  18.800  0.00  0.00    +0.000 C 
ATOM     25  C   UNL     1       2.122   9.232  18.737  0.00  0.00    +0.000 C 
ATOM     26  H   UNL     1       2.442   5.742  17.350  0.00  0.00    +0.000 HD
ATOM     27  H   UNL     1       3.274   7.155  17.558  0.00  0.00    +0.000 HD
ENDBRANCH  15  17
ENDBRANCH   6  15
TORSDOF 3
ENDMDL
MODEL 5
REMARK VINA RESULT:      -6.2      8.576     12.567
REMARK  Name = 
REMARK  4 active torsions:
REMARK  status: ('A' for Active; 'I' for Inactive)
REMARK    1  A    between atoms: C_1  and  C_2
REMARK    2  A    between atoms: C_5  and  C_6
REMARK    3  A    between atoms: C_14  and  C_15
REMARK    4  A    between atoms: C_15  and  N_17
REMARK                            x       y       z     vdW  Elec       q    Type
REMARK                         _______ _______ _______ _____ _____    ______ ____
ROOT
ATOM      1  C   UNL     1      -7.501  10.719  20.166  0.00  0.00    +0.000 C 
ATOM      2  C   UNL     1      -6.973  11.541  21.272  0.00  0.00    +0.000 A 
ATOM      3  O   UNL     1      -7.581  11.393  22.473  0.00  0.00    +0.000 OA
ATOM      4  N   UNL     1      -6.996  12.226  23.393  0.00  0.00    +0.000 NA
ATOM      5  C   UNL     1      -6.052  12.932  22.746  0.00  0.00    +0.000 A 
ATOM      6  C   UNL     1      -5.988  12.501  21.372  0.00  0.00    +0.000 A 
ENDROOT
BRANCH   5   7
ATOM      7  C   UNL     1      -5.251  13.938  23.477  0.00  0.00    +0.000 A 
ATOM      8  C   UNL     1      -5.748  15.227  23.757  0.00  0.00    +0.000 A 
ATOM      9 CL   UNL     1      -7.267  15.817  23.164  0.00  0.00    +0.000 Cl
ATOM     10  C   UNL     1      -4.987  16.166  24.474  0.00  0.00    +0.000 A 
ATOM     11  C   UNL     1      -3.684  15.877  24.859  0.00  0.00    +0.000 A 
ATOM     12  C   UNL     1      -3.146  14.636  24.547  0.00  0.00    +0.000 A 
ATOM     13  C   UNL     1      -3.921  13.666  23.886  0.00  0.00    +0.000 A 
ATOM     14 CL   UNL     1      -3.129  12.140  23.645  0.00  0.00    +0.000 Cl
ENDBRANCH   5   7
BRANCH   6  15
ATOM     15  C   UNL     1      -5.162  12.991  20.291  0.00  0.00    +0.000 C 
ATOM     16  O   UNL     1      -5.054  14.197  20.085  0.00  0.00    +0.000 OA
BRANCH  15  17
ATOM     17  N   UNL     1      -4.559  11.981  19.571  0.00  0.00    +0.000 NA
ATOM     18  C   UNL     1      -4.772  11.882  18.292  0.00  0.00    +0.000 C 
ATOM     19  N   UNL     1      -5.587  12.711  17.575  0.00  0.00    +0.000 N 
ATOM     20  N   UNL     1      -4.202  10.903  17.503  0.00  0.00    +0.000 N 
ATOM     21  C   UNL     1      -3.225   9.929  18.028  0.00  0.00    +0.000 C 
ATOM     22  C   UNL     1      -1.896  10.012  17.250  0.00  0.00    +0.000 C 
ATOM     23  O   UNL     1      -2.094   9.871  15.833  0.00  0.00    +0.000 OA
ATOM     24  C   UNL     1      -2.970  10.901  15.357  0.00  0.00    +0.000 C 
ATOM     25  C   UNL     1      -4.341  10.805  16.035  0.00  0.00    +0.000 C 
ATOM     26  H   UNL     1      -6.008  13.442  18.149  0.00  0.00    +0.000 HD
ATOM     27  H   UNL     1      -6.324  12.205  17.101  0.00  0.00    +0.000 HD
ENDBRANCH  15  17
ENDBRANCH   6  15
TORSDOF 3
ENDMDL
MODEL 6
REMARK VINA RESULT:      -6.1      8.805     12.605
REMARK  Name = 
REMARK  4 active torsions:
REMARK  status: ('A' for Active; 'I' for Inactive)
REMARK    1  A    between atoms: C_1  and  C_2
REMARK    2  A    between atoms: C_5  and  C_6
REMARK    3  A    between atoms: C_14  and  C_15
REMARK    4  A    between atoms: C_15  and  N_17
REMARK                            x       y       z     vdW  Elec       q    Type
REMARK                         _______ _______ _______ _____ _____    ______ ____
ROOT
ATOM      1  C   UNL     1      -7.648  10.968  20.411  0.00  0.00    +0.000 C 
ATOM      2  C   UNL     1      -6.985  11.739  21.480  0.00  0.00    +0.000 A 
ATOM      3  O   UNL     1      -7.469  11.568  22.732  0.00  0.00    +0.000 OA
ATOM      4  N   UNL     1      -6.769  12.355  23.612  0.00  0.00    +0.000 NA
ATOM      5  C   UNL     1      -5.877  13.058  22.891  0.00  0.00    +0.000 A 
ATOM      6  C   UNL     1      -5.968  12.670  21.505  0.00  0.00    +0.000 A 
ENDROOT
BRANCH   5   7
ATOM      7  C   UNL     1      -4.977  14.019  23.564  0.00  0.00    +0.000 A 
ATOM      8  C   UNL     1      -3.658  13.677  23.925  0.00  0.00    +0.000 A 
ATOM      9 CL   UNL     1      -3.000  12.082  23.754  0.00  0.00    +0.000 Cl
ATOM     10  C   UNL     1      -2.803  14.607  24.543  0.00  0.00    +0.000 A 
ATOM     11  C   UNL     1      -3.263  15.870  24.891  0.00  0.00    +0.000 A 
ATOM     12  C   UNL     1      -4.576  16.216  24.601  0.00  0.00    +0.000 A 
ATOM     13  C   UNL     1      -5.420  15.316  23.925  0.00  0.00    +0.000 A 
ATOM     14 CL   UNL     1      -7.002  15.932  23.563  0.00  0.00    +0.000 Cl
ENDBRANCH   5   7
BRANCH   6  15
ATOM     15  C   UNL     1      -5.245  13.174  20.360  0.00  0.00    +0.000 C 
ATOM     16  O   UNL     1      -5.792  13.927  19.557  0.00  0.00    +0.000 OA
BRANCH  15  17
ATOM     17  N   UNL     1      -3.946  12.717  20.296  0.00  0.00    +0.000 NA
ATOM     18  C   UNL     1      -2.958  13.559  20.380  0.00  0.00    +0.000 C 
ATOM     19  N   UNL     1      -3.100  14.911  20.510  0.00  0.00    +0.000 N 
ATOM     20  N   UNL     1      -1.632  13.178  20.329  0.00  0.00    +0.000 N 
ATOM     21  C   UNL     1      -1.213  11.764  20.264  0.00  0.00    +0.000 C 
ATOM     22  C   UNL     1      -0.297  11.408  21.452  0.00  0.00    +0.000 C 
ATOM     23  O   UNL     1       0.825  12.301  21.551  0.00  0.00    +0.000 OA
ATOM     24  C   UNL     1       0.364  13.648  21.714  0.00  0.00    +0.000 C 
ATOM     25  C   UNL     1      -0.479  14.085  20.511  0.00  0.00    +0.000 C 
ATOM     26  H   UNL     1      -4.078  15.201  20.556  0.00  0.00    +0.000 HD
ATOM     27  H   UNL     1      -2.645  15.417  19.762  0.00  0.00    +0.000 HD
ENDBRANCH  15  17
ENDBRANCH   6  15
TORSDOF 3
ENDMDL
MODEL 7
REMARK VINA RESULT:      -6.1      2.010      2.588
REMARK  Name = 
REMARK  4 active torsions:
REMARK  status: ('A' for Active; 'I' for Inactive)
REMARK    1  A    between atoms: C_1  and  C_2
REMARK    2  A    between atoms: C_5  and  C_6
REMARK    3  A    between atoms: C_14  and  C_15
REMARK    4  A    between atoms: C_15  and  N_17
REMARK                            x       y       z     vdW  Elec       q    Type
REMARK                         _______ _______ _______ _____ _____    ______ ____
ROOT
ATOM      1  C   UNL     1       6.989   6.588  18.089  0.00  0.00    +0.000 C 
ATOM      2  C   UNL     1       5.964   5.610  18.502  0.00  0.00    +0.000 A 
ATOM      3  O   UNL     1       6.420   4.428  18.980  0.00  0.00    +0.000 OA
ATOM      4  N   UNL     1       5.359   3.620  19.306  0.00  0.00    +0.000 NA
ATOM      5  C   UNL     1       4.238   4.287  18.980  0.00  0.00    +0.000 A 
ATOM      6  C   UNL     1       4.585   5.593  18.476  0.00  0.00    +0.000 A 
ENDROOT
BRANCH   5   7
ATOM      7  C   UNL     1       2.916   3.661  19.200  0.00  0.00    +0.000 A 
ATOM      8  C   UNL     1       2.383   2.712  18.305  0.00  0.00    +0.000 A 
ATOM      9 CL   UNL     1       3.134   2.285  16.801  0.00  0.00    +0.000 Cl
ATOM     10  C   UNL     1       1.136   2.106  18.537  0.00  0.00    +0.000 A 
ATOM     11  C   UNL     1       0.353   2.486  19.619  0.00  0.00    +0.000 A 
ATOM     12  C   UNL     1       0.827   3.461  20.487  0.00  0.00    +0.000 A 
ATOM     13  C   UNL     1       2.100   4.028  20.300  0.00  0.00    +0.000 A 
ATOM     14 CL   UNL     1       2.577   5.169  21.518  0.00  0.00    +0.000 Cl
ENDBRANCH   5   7
BRANCH   6  15
ATOM     15  C   UNL     1       3.729   6.641  17.969  0.00  0.00    +0.000 C 
ATOM     16  O   UNL     1       3.687   6.886  16.765  0.00  0.00    +0.000 OA
BRANCH  15  17
ATOM     17  N   UNL     1       3.018   7.285  18.959  0.00  0.00    +0.000 NA
ATOM     18  C   UNL     1       2.351   8.366  18.678  0.00  0.00    +0.000 C 
ATOM     19  N   UNL     1       2.305   8.951  17.445  0.00  0.00    +0.000 N 
ATOM     20  N   UNL     1       1.613   9.064  19.613  0.00  0.00    +0.000 N 
ATOM     21  C   UNL     1       1.443   8.596  21.003  0.00  0.00    +0.000 C 
ATOM     22  C   UNL     1      -0.050   8.413  21.341  0.00  0.00    +0.000 C 
ATOM     23  O   UNL     1      -0.810   9.603  21.073  0.00  0.00    +0.000 OA
ATOM     24  C   UNL     1      -0.694   9.958  19.690  0.00  0.00    +0.000 C 
ATOM     25  C   UNL     1       0.767  10.241  19.322  0.00  0.00    +0.000 C 
ATOM     26  H   UNL     1       2.843   8.437  16.745  0.00  0.00    +0.000 HD
ATOM     27  H   UNL     1       2.630   9.909  17.465  0.00  0.00    +0.000 HD
ENDBRANCH  15  17
ENDBRANCH   6  15
TORSDOF 3
ENDMDL
MODEL 8
REMARK VINA RESULT:      -6.0      2.961      5.448
REMARK  Name = 
REMARK  4 active torsions:
REMARK  status: ('A' for Active; 'I' for Inactive)
REMARK    1  A    between atoms: C_1  and  C_2
REMARK    2  A    between atoms: C_5  and  C_6
REMARK    3  A    between atoms: C_14  and  C_15
REMARK    4  A    between atoms: C_15  and  N_17
REMARK                            x       y       z     vdW  Elec       q    Type
REMARK                         _______ _______ _______ _____ _____    ______ ____
ROOT
ATOM      1  C   UNL     1       8.079   6.650  18.583  0.00  0.00    +0.000 C 
ATOM      2  C   UNL     1       6.849   5.899  18.899  0.00  0.00    +0.000 A 
ATOM      3  O   UNL     1       6.870   5.166  20.037  0.00  0.00    +0.000 OA
ATOM      4  N   UNL     1       5.671   4.515  20.191  0.00  0.00    +0.000 NA
ATOM      5  C   UNL     1       4.921   4.806  19.113  0.00  0.00    +0.000 A 
ATOM      6  C   UNL     1       5.639   5.721  18.262  0.00  0.00    +0.000 A 
ENDROOT
BRANCH   5   7
ATOM      7  C   UNL     1       3.565   4.231  18.980  0.00  0.00    +0.000 A 
ATOM      8  C   UNL     1       2.404   5.006  19.179  0.00  0.00    +0.000 A 
ATOM      9 CL   UNL     1       2.431   6.650  19.729  0.00  0.00    +0.000 Cl
ATOM     10  C   UNL     1       1.120   4.454  19.027  0.00  0.00    +0.000 A 
ATOM     11  C   UNL     1       0.957   3.102  18.754  0.00  0.00    +0.000 A 
ATOM     12  C   UNL     1       2.082   2.301  18.610  0.00  0.00    +0.000 A 
ATOM     13  C   UNL     1       3.371   2.856  18.697  0.00  0.00    +0.000 A 
ATOM     14 CL   UNL     1       4.668   1.737  18.411  0.00  0.00    +0.000 Cl
ENDBRANCH   5   7
BRANCH   6  15
ATOM     15  C   UNL     1       5.259   6.281  16.984  0.00  0.00    +0.000 C 
ATOM     16  O   UNL     1       4.293   7.036  16.895  0.00  0.00    +0.000 OA
BRANCH  15  17
ATOM     17  N   UNL     1       6.073   5.870  15.950  0.00  0.00    +0.000 NA
ATOM     18  C   UNL     1       5.776   4.797  15.279  0.00  0.00    +0.000 C 
ATOM     19  N   UNL     1       4.697   3.999  15.529  0.00  0.00    +0.000 N 
ATOM     20  N   UNL     1       6.538   4.325  14.229  0.00  0.00    +0.000 N 
ATOM     21  C   UNL     1       7.718   5.050  13.715  0.00  0.00    +0.000 C 
ATOM     22  C   UNL     1       7.550   5.377  12.217  0.00  0.00    +0.000 C 
ATOM     23  O   UNL     1       7.254   4.204  11.441  0.00  0.00    +0.000 OA
ATOM     24  C   UNL     1       6.047   3.595  11.915  0.00  0.00    +0.000 C 
ATOM     25  C   UNL     1       6.193   3.166  13.380  0.00  0.00    +0.000 C 
ATOM     26  H   UNL     1       4.123   4.344  16.300  0.00  0.00    +0.000 HD
ATOM     27  H   UNL     1       4.966   3.044  15.726  0.00  0.00    +0.000 HD
ENDBRANCH  15  17
ENDBRANCH   6  15
TORSDOF 3
ENDMDL
MODEL 9
REMARK VINA RESULT:      -6.0      2.025      2.649
REMARK  Name = 
REMARK  4 active torsions:
REMARK  status: ('A' for Active; 'I' for Inactive)
REMARK    1  A    between atoms: C_1  and  C_2
REMARK    2  A    between atoms: C_5  and  C_6
REMARK    3  A    between atoms: C_14  and  C_15
REMARK    4  A    between atoms: C_15  and  N_17
REMARK                            x       y       z     vdW  Elec       q    Type
REMARK                         _______ _______ _______ _____ _____    ______ ____
ROOT
ATOM      1  C   UNL     1       7.030   6.686  18.047  0.00  0.00    +0.000 C 
ATOM      2  C   UNL     1       6.019   5.696  18.465  0.00  0.00    +0.000 A 
ATOM      3  O   UNL     1       6.492   4.528  18.960  0.00  0.00    +0.000 OA
ATOM      4  N   UNL     1       5.443   3.706  19.290  0.00  0.00    +0.000 NA
ATOM      5  C   UNL     1       4.313   4.350  18.949  0.00  0.00    +0.000 A 
ATOM      6  C   UNL     1       4.641   5.655  18.432  0.00  0.00    +0.000 A 
ENDROOT
BRANCH   5   7
ATOM      7  C   UNL     1       3.000   3.704  19.169  0.00  0.00    +0.000 A 
ATOM      8  C   UNL     1       2.131   4.114  20.200  0.00  0.00    +0.000 A 
ATOM      9 CL   UNL     1       2.551   5.301  21.393  0.00  0.00    +0.000 Cl
ATOM     10  C   UNL     1       0.876   3.508  20.385  0.00  0.00    +0.000 A 
ATOM     11  C   UNL     1       0.489   2.428  19.603  0.00  0.00    +0.000 A 
ATOM     12  C   UNL     1       1.349   1.964  18.616  0.00  0.00    +0.000 A 
ATOM     13  C   UNL     1       2.579   2.603  18.381  0.00  0.00    +0.000 A 
ATOM     14 CL   UNL     1       3.498   1.954  17.059  0.00  0.00    +0.000 Cl
ENDBRANCH   5   7
BRANCH   6  15
ATOM     15  C   UNL     1       3.770   6.682  17.907  0.00  0.00    +0.000 C 
ATOM     16  O   UNL     1       3.725   6.907  16.700  0.00  0.00    +0.000 OA
BRANCH  15  17
ATOM     17  N   UNL     1       3.050   7.333  18.886  0.00  0.00    +0.000 NA
ATOM     18  C   UNL     1       2.384   8.411  18.592  0.00  0.00    +0.000 C 
ATOM     19  N   UNL     1       2.349   8.988  17.355  0.00  0.00    +0.000 N 
ATOM     20  N   UNL     1       1.637   9.115  19.515  0.00  0.00    +0.000 N 
ATOM     21  C   UNL     1       1.455   8.656  20.907  0.00  0.00    +0.000 C 
ATOM     22  C   UNL     1      -0.042   8.474  21.232  0.00  0.00    +0.000 C 
ATOM     23  O   UNL     1      -0.800   9.662  20.950  0.00  0.00    +0.000 OA
ATOM     24  C   UNL     1      -0.671  10.007  19.565  0.00  0.00    +0.000 C 
ATOM     25  C   UNL     1       0.793  10.289  19.209  0.00  0.00    +0.000 C 
ATOM     26  H   UNL     1       2.893   8.470  16.664  0.00  0.00    +0.000 HD
ATOM     27  H   UNL     1       2.672   9.946  17.371  0.00  0.00    +0.000 HD
ENDBRANCH  15  17
ENDBRANCH   6  15
TORSDOF 3
ENDMDL
