MODEL 1
REMARK VINA RESULT:      -7.0      0.000      0.000
REMARK  Name = 
REMARK  10 active torsions:
REMARK  status: ('A' for Active; 'I' for Inactive)
REMARK    1  A    between atoms: C_1  and  C_2
REMARK    2  A    between atoms: C_2  and  C_3
REMARK    3  A    between atoms: C_3  and  O_4
REMARK    4  A    between atoms: O_4  and  C_5
REMARK    5  A    between atoms: C_9  and  C_10
REMARK    6  A    between atoms: C_20  and  O_21
REMARK    7  A    between atoms: C_22  and  O_23
REMARK    8  A    between atoms: O_23  and  C_24
REMARK    9  A    between atoms: C_24  and  C_25
REMARK   10  A    between atoms: C_25  and  C_26
REMARK                            x       y       z     vdW  Elec       q    Type
REMARK                         _______ _______ _______ _____ _____    ______ ____
ROOT
ATOM      1  C   UNL     1       3.223   5.035  19.654  0.00  0.00    +0.000 A 
ATOM      2  C   UNL     1       2.459   5.935  20.410  0.00  0.00    +0.000 A 
ATOM      3  C   UNL     1       2.131   7.185  19.911  0.00  0.00    +0.000 A 
ATOM      4  O   UNL     1       1.358   7.971  20.721  0.00  0.00    +0.000 OA
ATOM      5  C   UNL     1       0.966   9.199  20.243  0.00  0.00    +0.000 A 
ATOM      6  C   UNL     1       1.333   9.720  19.066  0.00  0.00    +0.000 A 
ATOM      7  C   UNL     1       2.202   8.921  18.193  0.00  0.00    +0.000 A 
ATOM      8  O   UNL     1       2.587   9.352  17.110  0.00  0.00    +0.000 OA
ATOM      9  C   UNL     1       2.576   7.573  18.657  0.00  0.00    +0.000 A 
ATOM     10  C   UNL     1       3.347   6.698  17.875  0.00  0.00    +0.000 A 
ATOM     11  C   UNL     1       3.664   5.404  18.353  0.00  0.00    +0.000 A 
ENDROOT
BRANCH   5  12
ATOM     12  C   UNL     1       0.073   9.927  21.141  0.00  0.00    +0.000 A 
ATOM     13  C   UNL     1      -0.603  11.064  20.680  0.00  0.00    +0.000 A 
ATOM     14  C   UNL     1      -1.434  11.777  21.541  0.00  0.00    +0.000 A 
ATOM     15  C   UNL     1      -1.597  11.357  22.861  0.00  0.00    +0.000 A 
ATOM     16  C   UNL     1      -0.939  10.214  23.318  0.00  0.00    +0.000 A 
ATOM     17  C   UNL     1      -0.106   9.497  22.459  0.00  0.00    +0.000 A 
ENDBRANCH   5  12
BRANCH  10  18
ATOM     18  O   UNL     1       3.783   7.121  16.642  0.00  0.00    +0.000 OA
ATOM     19  H   UNL     1       3.076   6.982  15.973  0.00  0.00    +0.000 HD
ENDBRANCH  10  18
BRANCH   1  20
ATOM     20  O   UNL     1       3.566   3.787  20.128  0.00  0.00    +0.000 OA
BRANCH  20  21
ATOM     21  C   UNL     1       2.513   2.921  20.586  0.00  0.00    +0.000 C 
BRANCH  21  23
ATOM     22  C   UNL     1       0.766   2.588  18.779  0.00  0.00    +0.000 C 
ATOM     23  C   UNL     1       2.001   2.019  19.458  0.00  0.00    +0.000 C 
ENDBRANCH  21  23
ENDBRANCH  20  21
ENDBRANCH   1  20
BRANCH  11  24
ATOM     24  O   UNL     1       4.378   4.436  17.668  0.00  0.00    +0.000 OA
BRANCH  24  25
ATOM     25  C   UNL     1       5.807   4.519  17.702  0.00  0.00    +0.000 C 
BRANCH  25  26
ATOM     26  C   UNL     1       6.416   4.211  16.335  0.00  0.00    +0.000 C 
ATOM     27  C   UNL     1       5.369   4.359  15.236  0.00  0.00    +0.000 C 
ENDBRANCH  25  26
ENDBRANCH  24  25
ENDBRANCH  11  24
TORSDOF 8
ENDMDL
MODEL 2
REMARK VINA RESULT:      -7.0      2.143      7.670
REMARK  Name = 
REMARK  10 active torsions:
REMARK  status: ('A' for Active; 'I' for Inactive)
REMARK    1  A    between atoms: C_1  and  C_2
REMARK    2  A    between atoms: C_2  and  C_3
REMARK    3  A    between atoms: C_3  and  O_4
REMARK    4  A    between atoms: O_4  and  C_5
REMARK    5  A    between atoms: C_9  and  C_10
REMARK    6  A    between atoms: C_20  and  O_21
REMARK    7  A    between atoms: C_22  and  O_23
REMARK    8  A    between atoms: O_23  and  C_24
REMARK    9  A    between atoms: C_24  and  C_25
REMARK   10  A    between atoms: C_25  and  C_26
REMARK                            x       y       z     vdW  Elec       q    Type
REMARK                         _______ _______ _______ _____ _____    ______ ____
ROOT
ATOM      1  C   UNL     1       0.542  10.461  21.592  0.00  0.00    +0.000 A 
ATOM      2  C   UNL     1       0.862   9.099  21.677  0.00  0.00    +0.000 A 
ATOM      3  C   UNL     1       1.391   8.423  20.589  0.00  0.00    +0.000 A 
ATOM      4  O   UNL     1       1.693   7.103  20.792  0.00  0.00    +0.000 OA
ATOM      5  C   UNL     1       2.268   6.408  19.754  0.00  0.00    +0.000 A 
ATOM      6  C   UNL     1       2.501   6.902  18.532  0.00  0.00    +0.000 A 
ATOM      7  C   UNL     1       2.143   8.301  18.268  0.00  0.00    +0.000 A 
ATOM      8  O   UNL     1       2.315   8.805  17.162  0.00  0.00    +0.000 OA
ATOM      9  C   UNL     1       1.590   9.083  19.388  0.00  0.00    +0.000 A 
ATOM     10  C   UNL     1       1.276  10.447  19.266  0.00  0.00    +0.000 A 
ATOM     11  C   UNL     1       0.767  11.164  20.376  0.00  0.00    +0.000 A 
ENDROOT
BRANCH   5  12
ATOM     12  C   UNL     1       2.635   5.035  20.092  0.00  0.00    +0.000 A 
ATOM     13  C   UNL     1       3.657   4.393  19.382  0.00  0.00    +0.000 A 
ATOM     14  C   UNL     1       3.992   3.074  19.682  0.00  0.00    +0.000 A 
ATOM     15  C   UNL     1       3.312   2.395  20.693  0.00  0.00    +0.000 A 
ATOM     16  C   UNL     1       2.306   3.038  21.415  0.00  0.00    +0.000 A 
ATOM     17  C   UNL     1       1.968   4.359  21.118  0.00  0.00    +0.000 A 
ENDBRANCH   5  12
BRANCH  10  18
ATOM     18  O   UNL     1       1.473  11.067  18.056  0.00  0.00    +0.000 OA
ATOM     19  H   UNL     1       1.377  12.040  18.161  0.00  0.00    +0.000 HD
ENDBRANCH  10  18
BRANCH   1  20
ATOM     20  O   UNL     1       0.012  11.156  22.657  0.00  0.00    +0.000 OA
BRANCH  20  21
ATOM     21  C   UNL     1      -1.304  10.800  23.114  0.00  0.00    +0.000 C 
BRANCH  21  23
ATOM     22  C   UNL     1      -1.453  13.326  23.288  0.00  0.00    +0.000 C 
ATOM     23  C   UNL     1      -2.227  12.023  23.166  0.00  0.00    +0.000 C 
ENDBRANCH  21  23
ENDBRANCH  20  21
ENDBRANCH   1  20
BRANCH  11  24
ATOM     24  O   UNL     1       0.457  12.513  20.400  0.00  0.00    +0.000 OA
BRANCH  24  25
ATOM     25  C   UNL     1      -0.736  12.930  19.727  0.00  0.00    +0.000 C 
BRANCH  25  26
ATOM     26  C   UNL     1      -0.425  13.908  18.596  0.00  0.00    +0.000 C 
ATOM     27  C   UNL     1      -0.223  15.316  19.143  0.00  0.00    +0.000 C 
ENDBRANCH  25  26
ENDBRANCH  24  25
ENDBRANCH  11  24
TORSDOF 8
ENDMDL
MODEL 3
REMARK VINA RESULT:      -6.9      0.861      1.358
REMARK  Name = 
REMARK  10 active torsions:
REMARK  status: ('A' for Active; 'I' for Inactive)
REMARK    1  A    between atoms: C_1  and  C_2
REMARK    2  A    between atoms: C_2  and  C_3
REMARK    3  A    between atoms: C_3  and  O_4
REMARK    4  A    between atoms: O_4  and  C_5
REMARK    5  A    between atoms: C_9  and  C_10
REMARK    6  A    between atoms: C_20  and  O_21
REMARK    7  A    between atoms: C_22  and  O_23
REMARK    8  A    between atoms: O_23  and  C_24
REMARK    9  A    between atoms: C_24  and  C_25
REMARK   10  A    between atoms: C_25  and  C_26
REMARK                            x       y       z     vdW  Elec       q    Type
REMARK                         _______ _______ _______ _____ _____    ______ ____
ROOT
ATOM      1  C   UNL     1       2.505   5.521  20.218  0.00  0.00    +0.000 A 
ATOM      2  C   UNL     1       1.730   6.512  20.837  0.00  0.00    +0.000 A 
ATOM      3  C   UNL     1       1.526   7.740  20.228  0.00  0.00    +0.000 A 
ATOM      4  O   UNL     1       0.730   8.622  20.908  0.00  0.00    +0.000 OA
ATOM      5  C   UNL     1       0.460   9.833  20.316  0.00  0.00    +0.000 A 
ATOM      6  C   UNL     1       0.966  10.249  19.148  0.00  0.00    +0.000 A 
ATOM      7  C   UNL     1       1.862   9.345  18.417  0.00  0.00    +0.000 A 
ATOM      8  O   UNL     1       2.371   9.677  17.351  0.00  0.00    +0.000 OA
ATOM      9  C   UNL     1       2.108   8.015  19.001  0.00  0.00    +0.000 A 
ATOM     10  C   UNL     1       2.894   7.046  18.355  0.00  0.00    +0.000 A 
ATOM     11  C   UNL     1       3.087   5.774  18.945  0.00  0.00    +0.000 A 
ENDROOT
BRANCH   5  12
ATOM     12  C   UNL     1      -0.467  10.670  21.074  0.00  0.00    +0.000 A 
ATOM     13  C   UNL     1      -0.615  10.473  22.452  0.00  0.00    +0.000 A 
ATOM     14  C   UNL     1      -1.519  11.250  23.174  0.00  0.00    +0.000 A 
ATOM     15  C   UNL     1      -2.273  12.227  22.524  0.00  0.00    +0.000 A 
ATOM     16  C   UNL     1      -2.114  12.438  21.154  0.00  0.00    +0.000 A 
ATOM     17  C   UNL     1      -1.210  11.663  20.428  0.00  0.00    +0.000 A 
ENDBRANCH   5  12
BRANCH  10  18
ATOM     18  O   UNL     1       3.468   7.358  17.146  0.00  0.00    +0.000 OA
ATOM     19  H   UNL     1       3.399   6.589  16.538  0.00  0.00    +0.000 HD
ENDBRANCH  10  18
BRANCH   1  20
ATOM     20  O   UNL     1       2.726   4.293  20.803  0.00  0.00    +0.000 OA
BRANCH  20  21
ATOM     21  C   UNL     1       1.585   3.477  21.121  0.00  0.00    +0.000 C 
BRANCH  21  23
ATOM     22  C   UNL     1       1.548   2.096  18.995  0.00  0.00    +0.000 C 
ATOM     23  C   UNL     1       0.800   3.098  19.860  0.00  0.00    +0.000 C 
ENDBRANCH  21  23
ENDBRANCH  20  21
ENDBRANCH   1  20
BRANCH  11  24
ATOM     24  O   UNL     1       3.801   4.722  18.396  0.00  0.00    +0.000 OA
BRANCH  24  25
ATOM     25  C   UNL     1       5.225   4.741  18.544  0.00  0.00    +0.000 C 
BRANCH  25  26
ATOM     26  C   UNL     1       5.926   4.449  17.218  0.00  0.00    +0.000 C 
ATOM     27  C   UNL     1       4.908   4.307  16.092  0.00  0.00    +0.000 C 
ENDBRANCH  25  26
ENDBRANCH  24  25
ENDBRANCH  11  24
TORSDOF 8
ENDMDL
MODEL 4
REMARK VINA RESULT:      -6.8      1.837      4.176
REMARK  Name = 
REMARK  10 active torsions:
REMARK  status: ('A' for Active; 'I' for Inactive)
REMARK    1  A    between atoms: C_1  and  C_2
REMARK    2  A    between atoms: C_2  and  C_3
REMARK    3  A    between atoms: C_3  and  O_4
REMARK    4  A    between atoms: O_4  and  C_5
REMARK    5  A    between atoms: C_9  and  C_10
REMARK    6  A    between atoms: C_20  and  O_21
REMARK    7  A    between atoms: C_22  and  O_23
REMARK    8  A    between atoms: O_23  and  C_24
REMARK    9  A    between atoms: C_24  and  C_25
REMARK   10  A    between atoms: C_25  and  C_26
REMARK                            x       y       z     vdW  Elec       q    Type
REMARK                         _______ _______ _______ _____ _____    ______ ____
ROOT
ATOM      1  C   UNL     1       3.848   6.046  17.654  0.00  0.00    +0.000 A 
ATOM      2  C   UNL     1       3.263   7.307  17.476  0.00  0.00    +0.000 A 
ATOM      3  C   UNL     1       2.474   7.872  18.466  0.00  0.00    +0.000 A 
ATOM      4  O   UNL     1       1.977   9.118  18.199  0.00  0.00    +0.000 OA
ATOM      5  C   UNL     1       1.231   9.737  19.175  0.00  0.00    +0.000 A 
ATOM      6  C   UNL     1       0.898   9.190  20.351  0.00  0.00    +0.000 A 
ATOM      7  C   UNL     1       1.376   7.835  20.648  0.00  0.00    +0.000 A 
ATOM      8  O   UNL     1       1.087   7.274  21.701  0.00  0.00    +0.000 OA
ATOM      9  C   UNL     1       2.234   7.182  19.644  0.00  0.00    +0.000 A 
ATOM     10  C   UNL     1       2.801   5.915  19.853  0.00  0.00    +0.000 A 
ATOM     11  C   UNL     1       3.637   5.335  18.868  0.00  0.00    +0.000 A 
ENDROOT
BRANCH   5  12
ATOM     12  C   UNL     1       0.819  11.096  18.834  0.00  0.00    +0.000 A 
ATOM     13  C   UNL     1       1.780  12.107  18.720  0.00  0.00    +0.000 A 
ATOM     14  C   UNL     1       1.389  13.411  18.423  0.00  0.00    +0.000 A 
ATOM     15  C   UNL     1       0.039  13.708  18.234  0.00  0.00    +0.000 A 
ATOM     16  C   UNL     1      -0.920  12.699  18.329  0.00  0.00    +0.000 A 
ATOM     17  C   UNL     1      -0.532  11.392  18.627  0.00  0.00    +0.000 A 
ENDBRANCH   5  12
BRANCH  10  18
ATOM     18  O   UNL     1       2.530   5.252  21.026  0.00  0.00    +0.000 OA
ATOM     19  H   UNL     1       1.564   5.084  21.097  0.00  0.00    +0.000 HD
ENDBRANCH  10  18
BRANCH   1  20
ATOM     20  O   UNL     1       4.634   5.460  16.684  0.00  0.00    +0.000 OA
BRANCH  20  21
ATOM     21  C   UNL     1       5.733   6.219  16.151  0.00  0.00    +0.000 C 
BRANCH  21  23
ATOM     22  C   UNL     1       7.501   7.348  17.576  0.00  0.00    +0.000 C 
ATOM     23  C   UNL     1       7.000   6.036  16.994  0.00  0.00    +0.000 C 
ENDBRANCH  21  23
ENDBRANCH  20  21
ENDBRANCH   1  20
BRANCH  11  24
ATOM     24  O   UNL     1       4.287   4.117  18.967  0.00  0.00    +0.000 OA
BRANCH  24  25
ATOM     25  C   UNL     1       3.492   2.965  19.269  0.00  0.00    +0.000 C 
BRANCH  25  26
ATOM     26  C   UNL     1       2.530   2.638  18.128  0.00  0.00    +0.000 C 
ATOM     27  C   UNL     1       1.088   2.643  18.623  0.00  0.00    +0.000 C 
ENDBRANCH  25  26
ENDBRANCH  24  25
ENDBRANCH  11  24
TORSDOF 8
ENDMDL
MODEL 5
REMARK VINA RESULT:      -6.8      2.147      7.797
REMARK  Name = 
REMARK  10 active torsions:
REMARK  status: ('A' for Active; 'I' for Inactive)
REMARK    1  A    between atoms: C_1  and  C_2
REMARK    2  A    between atoms: C_2  and  C_3
REMARK    3  A    between atoms: C_3  and  O_4
REMARK    4  A    between atoms: O_4  and  C_5
REMARK    5  A    between atoms: C_9  and  C_10
REMARK    6  A    between atoms: C_20  and  O_21
REMARK    7  A    between atoms: C_22  and  O_23
REMARK    8  A    between atoms: O_23  and  C_24
REMARK    9  A    between atoms: C_24  and  C_25
REMARK   10  A    between atoms: C_25  and  C_26
REMARK                            x       y       z     vdW  Elec       q    Type
REMARK                         _______ _______ _______ _____ _____    ______ ____
ROOT
ATOM      1  C   UNL     1       0.503  10.536  21.659  0.00  0.00    +0.000 A 
ATOM      2  C   UNL     1       0.823   9.171  21.715  0.00  0.00    +0.000 A 
ATOM      3  C   UNL     1       1.339   8.516  20.609  0.00  0.00    +0.000 A 
ATOM      4  O   UNL     1       1.641   7.192  20.782  0.00  0.00    +0.000 OA
ATOM      5  C   UNL     1       2.204   6.516  19.725  0.00  0.00    +0.000 A 
ATOM      6  C   UNL     1       2.425   7.034  18.511  0.00  0.00    +0.000 A 
ATOM      7  C   UNL     1       2.066   8.438  18.278  0.00  0.00    +0.000 A 
ATOM      8  O   UNL     1       2.228   8.963  17.180  0.00  0.00    +0.000 OA
ATOM      9  C   UNL     1       1.527   9.200  19.418  0.00  0.00    +0.000 A 
ATOM     10  C   UNL     1       1.214  10.565  19.327  0.00  0.00    +0.000 A 
ATOM     11  C   UNL     1       0.717  11.261  20.455  0.00  0.00    +0.000 A 
ENDROOT
BRANCH   5  12
ATOM     12  C   UNL     1       2.573   5.137  20.033  0.00  0.00    +0.000 A 
ATOM     13  C   UNL     1       1.856   4.424  21.001  0.00  0.00    +0.000 A 
ATOM     14  C   UNL     1       2.222   3.117  21.317  0.00  0.00    +0.000 A 
ATOM     15  C   UNL     1       3.300   2.518  20.666  0.00  0.00    +0.000 A 
ATOM     16  C   UNL     1       4.005   3.219  19.688  0.00  0.00    +0.000 A 
ATOM     17  C   UNL     1       3.641   4.528  19.368  0.00  0.00    +0.000 A 
ENDBRANCH   5  12
BRANCH  10  18
ATOM     18  O   UNL     1       1.399  11.209  18.126  0.00  0.00    +0.000 OA
ATOM     19  H   UNL     1       1.476  12.177  18.277  0.00  0.00    +0.000 HD
ENDBRANCH  10  18
BRANCH   1  20
ATOM     20  O   UNL     1      -0.014  11.211  22.744  0.00  0.00    +0.000 OA
BRANCH  20  21
ATOM     21  C   UNL     1      -1.420  11.082  23.016  0.00  0.00    +0.000 C 
BRANCH  21  23
ATOM     22  C   UNL     1      -3.483  12.352  23.767  0.00  0.00    +0.000 C 
ATOM     23  C   UNL     1      -2.087  12.454  23.173  0.00  0.00    +0.000 C 
ENDBRANCH  21  23
ENDBRANCH  20  21
ENDBRANCH   1  20
BRANCH  11  24
ATOM     24  O   UNL     1       0.409  12.610  20.508  0.00  0.00    +0.000 OA
BRANCH  24  25
ATOM     25  C   UNL     1      -0.752  13.053  19.798  0.00  0.00    +0.000 C 
BRANCH  25  26
ATOM     26  C   UNL     1      -1.003  14.544  20.015  0.00  0.00    +0.000 C 
ATOM     27  C   UNL     1      -0.262  15.371  18.970  0.00  0.00    +0.000 C 
ENDBRANCH  25  26
ENDBRANCH  24  25
ENDBRANCH  11  24
TORSDOF 8
ENDMDL
MODEL 6
REMARK VINA RESULT:      -6.7      0.869      1.131
REMARK  Name = 
REMARK  10 active torsions:
REMARK  status: ('A' for Active; 'I' for Inactive)
REMARK    1  A    between atoms: C_1  and  C_2
REMARK    2  A    between atoms: C_2  and  C_3
REMARK    3  A    between atoms: C_3  and  O_4
REMARK    4  A    between atoms: O_4  and  C_5
REMARK    5  A    between atoms: C_9  and  C_10
REMARK    6  A    between atoms: C_20  and  O_21
REMARK    7  A    between atoms: C_22  and  O_23
REMARK    8  A    between atoms: O_23  and  C_24
REMARK    9  A    between atoms: C_24  and  C_25
REMARK   10  A    between atoms: C_25  and  C_26
REMARK                            x       y       z     vdW  Elec       q    Type
REMARK                         _______ _______ _______ _____ _____    ______ ____
ROOT
ATOM      1  C   UNL     1       3.632   5.046  19.425  0.00  0.00    +0.000 A 
ATOM      2  C   UNL     1       2.856   5.879  20.245  0.00  0.00    +0.000 A 
ATOM      3  C   UNL     1       2.415   7.112  19.793  0.00  0.00    +0.000 A 
ATOM      4  O   UNL     1       1.641   7.829  20.665  0.00  0.00    +0.000 OA
ATOM      5  C   UNL     1       1.140   9.036  20.238  0.00  0.00    +0.000 A 
ATOM      6  C   UNL     1       1.399   9.601  19.053  0.00  0.00    +0.000 A 
ATOM      7  C   UNL     1       2.266   8.880  18.114  0.00  0.00    +0.000 A 
ATOM      8  O   UNL     1       2.555   9.355  17.019  0.00  0.00    +0.000 OA
ATOM      9  C   UNL     1       2.756   7.552  18.524  0.00  0.00    +0.000 A 
ATOM     10  C   UNL     1       3.536   6.746  17.679  0.00  0.00    +0.000 A 
ATOM     11  C   UNL     1       3.968   5.468  18.109  0.00  0.00    +0.000 A 
ENDROOT
BRANCH   5  12
ATOM     12  C   UNL     1       0.256   9.685  21.202  0.00  0.00    +0.000 A 
ATOM     13  C   UNL     1      -0.428  10.854  20.845  0.00  0.00    +0.000 A 
ATOM     14  C   UNL     1      -1.251  11.491  21.771  0.00  0.00    +0.000 A 
ATOM     15  C   UNL     1      -1.397  10.964  23.053  0.00  0.00    +0.000 A 
ATOM     16  C   UNL     1      -0.732   9.789  23.407  0.00  0.00    +0.000 A 
ATOM     17  C   UNL     1       0.092   9.147  22.483  0.00  0.00    +0.000 A 
ENDBRANCH   5  12
BRANCH  10  18
ATOM     18  O   UNL     1       3.868   7.220  16.433  0.00  0.00    +0.000 OA
ATOM     19  H   UNL     1       3.148   7.798  16.094  0.00  0.00    +0.000 HD
ENDBRANCH  10  18
BRANCH   1  20
ATOM     20  O   UNL     1       4.085   3.817  19.851  0.00  0.00    +0.000 OA
BRANCH  20  21
ATOM     21  C   UNL     1       3.136   2.741  19.954  0.00  0.00    +0.000 C 
BRANCH  21  23
ATOM     22  C   UNL     1       1.273   2.778  21.673  0.00  0.00    +0.000 C 
ATOM     23  C   UNL     1       2.741   2.482  21.412  0.00  0.00    +0.000 C 
ENDBRANCH  21  23
ENDBRANCH  20  21
ENDBRANCH   1  20
BRANCH  11  24
ATOM     24  O   UNL     1       4.702   4.564  17.362  0.00  0.00    +0.000 OA
BRANCH  24  25
ATOM     25  C   UNL     1       6.125   4.572  17.524  0.00  0.00    +0.000 C 
BRANCH  25  26
ATOM     26  C   UNL     1       6.785   5.590  16.596  0.00  0.00    +0.000 C 
ATOM     27  C   UNL     1       7.344   6.762  17.395  0.00  0.00    +0.000 C 
ENDBRANCH  25  26
ENDBRANCH  24  25
ENDBRANCH  11  24
TORSDOF 8
ENDMDL
MODEL 7
REMARK VINA RESULT:      -6.7      2.136      7.472
REMARK  Name = 
REMARK  10 active torsions:
REMARK  status: ('A' for Active; 'I' for Inactive)
REMARK    1  A    between atoms: C_1  and  C_2
REMARK    2  A    between atoms: C_2  and  C_3
REMARK    3  A    between atoms: C_3  and  O_4
REMARK    4  A    between atoms: O_4  and  C_5
REMARK    5  A    between atoms: C_9  and  C_10
REMARK    6  A    between atoms: C_20  and  O_21
REMARK    7  A    between atoms: C_22  and  O_23
REMARK    8  A    between atoms: O_23  and  C_24
REMARK    9  A    between atoms: C_24  and  C_25
REMARK   10  A    between atoms: C_25  and  C_26
REMARK                            x       y       z     vdW  Elec       q    Type
REMARK                         _______ _______ _______ _____ _____    ______ ____
ROOT
ATOM      1  C   UNL     1       0.648  10.399  21.384  0.00  0.00    +0.000 A 
ATOM      2  C   UNL     1       0.940   9.034  21.522  0.00  0.00    +0.000 A 
ATOM      3  C   UNL     1       1.465   8.308  20.465  0.00  0.00    +0.000 A 
ATOM      4  O   UNL     1       1.738   6.991  20.719  0.00  0.00    +0.000 OA
ATOM      5  C   UNL     1       2.307   6.246  19.713  0.00  0.00    +0.000 A 
ATOM      6  C   UNL     1       2.561   6.690  18.476  0.00  0.00    +0.000 A 
ATOM      7  C   UNL     1       2.234   8.085  18.157  0.00  0.00    +0.000 A 
ATOM      8  O   UNL     1       2.427   8.544  17.035  0.00  0.00    +0.000 OA
ATOM      9  C   UNL     1       1.688   8.920  19.242  0.00  0.00    +0.000 A 
ATOM     10  C   UNL     1       1.403  10.283  19.067  0.00  0.00    +0.000 A 
ATOM     11  C   UNL     1       0.899  11.051  20.145  0.00  0.00    +0.000 A 
ENDROOT
BRANCH   5  12
ATOM     12  C   UNL     1       2.643   4.880  20.105  0.00  0.00    +0.000 A 
ATOM     13  C   UNL     1       1.961   4.272  21.165  0.00  0.00    +0.000 A 
ATOM     14  C   UNL     1       2.297   2.978  21.561  0.00  0.00    +0.000 A 
ATOM     15  C   UNL     1       3.311   2.288  20.897  0.00  0.00    +0.000 A 
ATOM     16  C   UNL     1       3.981   2.885  19.828  0.00  0.00    +0.000 A 
ATOM     17  C   UNL     1       3.647   4.179  19.429  0.00  0.00    +0.000 A 
ENDBRANCH   5  12
BRANCH  10  18
ATOM     18  O   UNL     1       1.624  10.854  17.837  0.00  0.00    +0.000 OA
ATOM     19  H   UNL     1       2.035  10.196  17.234  0.00  0.00    +0.000 HD
ENDBRANCH  10  18
BRANCH   1  20
ATOM     20  O   UNL     1       0.124  11.144  22.418  0.00  0.00    +0.000 OA
BRANCH  20  21
ATOM     21  C   UNL     1      -1.237  10.896  22.811  0.00  0.00    +0.000 C 
BRANCH  21  23
ATOM     22  C   UNL     1      -3.268  12.400  22.607  0.00  0.00    +0.000 C 
ATOM     23  C   UNL     1      -1.925  12.182  23.284  0.00  0.00    +0.000 C 
ENDBRANCH  21  23
ENDBRANCH  20  21
ENDBRANCH   1  20
BRANCH  11  24
ATOM     24  O   UNL     1       0.616  12.406  20.116  0.00  0.00    +0.000 OA
BRANCH  24  25
ATOM     25  C   UNL     1      -0.718  12.797  19.773  0.00  0.00    +0.000 C 
BRANCH  25  26
ATOM     26  C   UNL     1      -0.898  12.894  18.259  0.00  0.00    +0.000 C 
ATOM     27  C   UNL     1      -1.865  11.825  17.764  0.00  0.00    +0.000 C 
ENDBRANCH  25  26
ENDBRANCH  24  25
ENDBRANCH  11  24
TORSDOF 8
ENDMDL
MODEL 8
REMARK VINA RESULT:      -6.7      1.718      4.079
REMARK  Name = 
REMARK  10 active torsions:
REMARK  status: ('A' for Active; 'I' for Inactive)
REMARK    1  A    between atoms: C_1  and  C_2
REMARK    2  A    between atoms: C_2  and  C_3
REMARK    3  A    between atoms: C_3  and  O_4
REMARK    4  A    between atoms: O_4  and  C_5
REMARK    5  A    between atoms: C_9  and  C_10
REMARK    6  A    between atoms: C_20  and  O_21
REMARK    7  A    between atoms: C_22  and  O_23
REMARK    8  A    between atoms: O_23  and  C_24
REMARK    9  A    between atoms: C_24  and  C_25
REMARK   10  A    between atoms: C_25  and  C_26
REMARK                            x       y       z     vdW  Elec       q    Type
REMARK                         _______ _______ _______ _____ _____    ______ ____
ROOT
ATOM      1  C   UNL     1       3.914   6.170  17.485  0.00  0.00    +0.000 A 
ATOM      2  C   UNL     1       3.321   7.434  17.357  0.00  0.00    +0.000 A 
ATOM      3  C   UNL     1       2.532   7.956  18.369  0.00  0.00    +0.000 A 
ATOM      4  O   UNL     1       2.027   9.209  18.151  0.00  0.00    +0.000 OA
ATOM      5  C   UNL     1       1.280   9.785  19.152  0.00  0.00    +0.000 A 
ATOM      6  C   UNL     1       0.953   9.193  20.306  0.00  0.00    +0.000 A 
ATOM      7  C   UNL     1       1.439   7.829  20.550  0.00  0.00    +0.000 A 
ATOM      8  O   UNL     1       1.156   7.227  21.582  0.00  0.00    +0.000 OA
ATOM      9  C   UNL     1       2.299   7.220  19.520  0.00  0.00    +0.000 A 
ATOM     10  C   UNL     1       2.874   5.950  19.679  0.00  0.00    +0.000 A 
ATOM     11  C   UNL     1       3.710   5.412  18.671  0.00  0.00    +0.000 A 
ENDROOT
BRANCH   5  12
ATOM     12  C   UNL     1       0.860  11.154  18.864  0.00  0.00    +0.000 A 
ATOM     13  C   UNL     1      -0.501  11.446  18.707  0.00  0.00    +0.000 A 
ATOM     14  C   UNL     1      -0.904  12.746  18.405  0.00  0.00    +0.000 A 
ATOM     15  C   UNL     1       0.047  13.756  18.263  0.00  0.00    +0.000 A 
ATOM     16  C   UNL     1       1.401  13.472  18.436  0.00  0.00    +0.000 A 
ATOM     17  C   UNL     1       1.810  12.172  18.739  0.00  0.00    +0.000 A 
ENDBRANCH   5  12
BRANCH  10  18
ATOM     18  O   UNL     1       2.609   5.241  20.828  0.00  0.00    +0.000 OA
ATOM     19  H   UNL     1       2.086   5.797  21.448  0.00  0.00    +0.000 HD
ENDBRANCH  10  18
BRANCH   1  20
ATOM     20  O   UNL     1       4.701   5.627  16.492  0.00  0.00    +0.000 OA
BRANCH  20  21
ATOM     21  C   UNL     1       6.096   5.975  16.464  0.00  0.00    +0.000 C 
BRANCH  21  23
ATOM     22  C   UNL     1       6.649   4.350  14.598  0.00  0.00    +0.000 C 
ATOM     23  C   UNL     1       6.959   4.788  16.020  0.00  0.00    +0.000 C 
ENDBRANCH  21  23
ENDBRANCH  20  21
ENDBRANCH   1  20
BRANCH  11  24
ATOM     24  O   UNL     1       4.368   4.195  18.722  0.00  0.00    +0.000 OA
BRANCH  24  25
ATOM     25  C   UNL     1       3.729   3.072  18.106  0.00  0.00    +0.000 C 
BRANCH  25  26
ATOM     26  C   UNL     1       3.005   2.208  19.137  0.00  0.00    +0.000 C 
ATOM     27  C   UNL     1       1.496   2.277  18.931  0.00  0.00    +0.000 C 
ENDBRANCH  25  26
ENDBRANCH  24  25
ENDBRANCH  11  24
TORSDOF 8
ENDMDL
MODEL 9
REMARK VINA RESULT:      -6.6      1.629      8.154
REMARK  Name = 
REMARK  10 active torsions:
REMARK  status: ('A' for Active; 'I' for Inactive)
REMARK    1  A    between atoms: C_1  and  C_2
REMARK    2  A    between atoms: C_2  and  C_3
REMARK    3  A    between atoms: C_3  and  O_4
REMARK    4  A    between atoms: O_4  and  C_5
REMARK    5  A    between atoms: C_9  and  C_10
REMARK    6  A    between atoms: C_20  and  O_21
REMARK    7  A    between atoms: C_22  and  O_23
REMARK    8  A    between atoms: O_23  and  C_24
REMARK    9  A    between atoms: C_24  and  C_25
REMARK   10  A    between atoms: C_25  and  C_26
REMARK                            x       y       z     vdW  Elec       q    Type
REMARK                         _______ _______ _______ _____ _____    ______ ____
ROOT
ATOM      1  C   UNL     1       1.896   8.653  18.922  0.00  0.00    +0.000 A 
ATOM      2  C   UNL     1       2.759   8.193  17.917  0.00  0.00    +0.000 A 
ATOM      3  C   UNL     1       3.346   6.940  18.002  0.00  0.00    +0.000 A 
ATOM      4  O   UNL     1       4.148   6.582  16.952  0.00  0.00    +0.000 OA
ATOM      5  C   UNL     1       4.710   5.327  16.971  0.00  0.00    +0.000 A 
ATOM      6  C   UNL     1       4.586   4.443  17.968  0.00  0.00    +0.000 A 
ATOM      7  C   UNL     1       3.772   4.817  19.131  0.00  0.00    +0.000 A 
ATOM      8  O   UNL     1       3.636   4.055  20.085  0.00  0.00    +0.000 OA
ATOM      9  C   UNL     1       3.104   6.130  19.099  0.00  0.00    +0.000 A 
ATOM     10  C   UNL     1       2.249   6.561  20.125  0.00  0.00    +0.000 A 
ATOM     11  C   UNL     1       1.612   7.823  20.042  0.00  0.00    +0.000 A 
ENDROOT
BRANCH   5  12
ATOM     12  C   UNL     1       5.475   5.002  15.770  0.00  0.00    +0.000 A 
ATOM     13  C   UNL     1       4.878   4.263  14.742  0.00  0.00    +0.000 A 
ATOM     14  C   UNL     1       5.614   3.927  13.607  0.00  0.00    +0.000 A 
ATOM     15  C   UNL     1       6.943   4.331  13.493  0.00  0.00    +0.000 A 
ATOM     16  C   UNL     1       7.536   5.084  14.507  0.00  0.00    +0.000 A 
ATOM     17  C   UNL     1       6.803   5.423  15.645  0.00  0.00    +0.000 A 
ENDBRANCH   5  12
BRANCH  10  18
ATOM     18  O   UNL     1       2.042   5.737  21.206  0.00  0.00    +0.000 OA
ATOM     19  H   UNL     1       1.182   5.271  21.109  0.00  0.00    +0.000 HD
ENDBRANCH  10  18
BRANCH   1  20
ATOM     20  O   UNL     1       1.302   9.895  18.865  0.00  0.00    +0.000 OA
BRANCH  20  21
ATOM     21  C   UNL     1       0.064  10.023  18.144  0.00  0.00    +0.000 C 
BRANCH  21  23
ATOM     22  C   UNL     1      -2.199  11.107  18.505  0.00  0.00    +0.000 C 
ATOM     23  C   UNL     1      -0.691  11.293  18.552  0.00  0.00    +0.000 C 
ENDBRANCH  21  23
ENDBRANCH  20  21
ENDBRANCH   1  20
BRANCH  11  24
ATOM     24  O   UNL     1       0.719   8.346  20.962  0.00  0.00    +0.000 OA
BRANCH  24  25
ATOM     25  C   UNL     1       1.261   9.062  22.077  0.00  0.00    +0.000 C 
BRANCH  25  26
ATOM     26  C   UNL     1       0.182   9.385  23.109  0.00  0.00    +0.000 C 
ATOM     27  C   UNL     1      -0.678  10.553  22.640  0.00  0.00    +0.000 C 
ENDBRANCH  25  26
ENDBRANCH  24  25
ENDBRANCH  11  24
TORSDOF 8
ENDMDL
