MODEL 1
REMARK VINA RESULT:      -7.1      0.000      0.000
REMARK  Name = 
REMARK  7 active torsions:
REMARK  status: ('A' for Active; 'I' for Inactive)
REMARK    1  A    between atoms: C_1  and  C_2
REMARK    2  A    between atoms: C_2  and  O_3
REMARK    3  A    between atoms: O_3  and  C_4
REMARK    4  A    between atoms: N_9  and  C_10
REMARK    5  A    between atoms: C_10  and  C_11
REMARK    6  A    between atoms: C_10  and  C_12
REMARK    7  A    between atoms: C_12  and  C_14
REMARK                            x       y       z     vdW  Elec       q    Type
REMARK                         _______ _______ _______ _____ _____    ______ ____
ROOT
ATOM      1  C   UNL     1       3.282   3.530  19.252  0.00  0.00    +0.000 C 
ATOM      2  C   UNL     1       3.256   2.311  20.185  0.00  0.00    +0.000 C 
ENDROOT
BRANCH   1   8
ATOM      3  C   UNL     1       1.483   8.048  20.351  0.00  0.00    +0.000 C 
ATOM      4  O   UNL     1       0.913   8.258  21.411  0.00  0.00    +0.000 OA
ATOM      5  N   UNL     1       2.104   6.860  20.033  0.00  0.00    +0.000 N 
ATOM      6  C   UNL     1       1.972   5.736  20.956  0.00  0.00    +0.000 C 
ATOM      7  C   UNL     1       1.260   4.553  20.267  0.00  0.00    +0.000 C 
ATOM      8  N   UNL     1       1.922   4.105  19.013  0.00  0.00    +0.000 NA
ATOM      9  C   UNL     1       1.964   5.284  18.102  0.00  0.00    +0.000 C 
ATOM     10  C   UNL     1       2.638   6.541  18.702  0.00  0.00    +0.000 C 
BRANCH   3  11
ATOM     11  O   UNL     1       1.521   8.937  19.325  0.00  0.00    +0.000 OA
BRANCH  11  13
ATOM     12  C   UNL     1      -0.292  10.139  18.354  0.00  0.00    +0.000 C 
ATOM     13  C   UNL     1       0.699  10.094  19.505  0.00  0.00    +0.000 C 
ENDBRANCH  11  13
ENDBRANCH   3  11
ENDBRANCH   1   8
BRANCH   1  14
ATOM     14  C   UNL     1       3.982   3.072  17.939  0.00  0.00    +0.000 C 
ATOM     15  O   UNL     1       3.821   1.940  17.479  0.00  0.00    +0.000 OA
BRANCH  14  16
ATOM     16  C   UNL     1       4.876   4.035  17.262  0.00  0.00    +0.000 A 
ATOM     17  C   UNL     1       4.867   4.352  15.912  0.00  0.00    +0.000 A 
ATOM     18  N   UNL     1       5.817   5.308  15.677  0.00  0.00    +0.000 N 
ATOM     19  C   UNL     1       6.450   5.645  16.847  0.00  0.00    +0.000 A 
ATOM     20  C   UNL     1       7.452   6.595  17.075  0.00  0.00    +0.000 A 
ATOM     21  C   UNL     1       7.932   6.730  18.379  0.00  0.00    +0.000 A 
ATOM     22  C   UNL     1       7.436   5.933  19.407  0.00  0.00    +0.000 A 
ATOM     23  C   UNL     1       6.428   4.992  19.160  0.00  0.00    +0.000 A 
ATOM     24  C   UNL     1       5.907   4.847  17.854  0.00  0.00    +0.000 A 
ATOM     25  H   UNL     1       6.022   5.720  14.777  0.00  0.00    +0.000 HD
ENDBRANCH  14  16
ENDBRANCH   1  14
TORSDOF 5
ENDMDL
MODEL 2
REMARK VINA RESULT:      -6.8      2.299      6.077
REMARK  Name = 
REMARK  7 active torsions:
REMARK  status: ('A' for Active; 'I' for Inactive)
REMARK    1  A    between atoms: C_1  and  C_2
REMARK    2  A    between atoms: C_2  and  O_3
REMARK    3  A    between atoms: O_3  and  C_4
REMARK    4  A    between atoms: N_9  and  C_10
REMARK    5  A    between atoms: C_10  and  C_11
REMARK    6  A    between atoms: C_10  and  C_12
REMARK    7  A    between atoms: C_12  and  C_14
REMARK                            x       y       z     vdW  Elec       q    Type
REMARK                         _______ _______ _______ _____ _____    ______ ____
ROOT
ATOM      1  C   UNL     1       2.597   4.727  18.451  0.00  0.00    +0.000 C 
ATOM      2  C   UNL     1       1.429   3.736  18.347  0.00  0.00    +0.000 C 
ENDROOT
BRANCH   1   8
ATOM      3  C   UNL     1       7.065   5.970  16.622  0.00  0.00    +0.000 C 
ATOM      4  O   UNL     1       7.451   5.531  15.548  0.00  0.00    +0.000 OA
ATOM      5  N   UNL     1       5.801   5.761  17.130  0.00  0.00    +0.000 N 
ATOM      6  C   UNL     1       4.903   4.861  16.413  0.00  0.00    +0.000 C 
ATOM      7  C   UNL     1       4.523   3.658  17.303  0.00  0.00    +0.000 C 
ATOM      8  N   UNL     1       3.920   4.046  18.606  0.00  0.00    +0.000 NA
ATOM      9  C   UNL     1       4.916   4.909  19.302  0.00  0.00    +0.000 C 
ATOM     10  C   UNL     1       5.389   6.137  18.488  0.00  0.00    +0.000 C 
BRANCH   3  11
ATOM     11  O   UNL     1       7.855   6.665  17.481  0.00  0.00    +0.000 OA
BRANCH  11  13
ATOM     12  C   UNL     1       8.561   8.698  18.503  0.00  0.00    +0.000 C 
ATOM     13  C   UNL     1       7.752   8.088  17.370  0.00  0.00    +0.000 C 
ENDBRANCH  11  13
ENDBRANCH   3  11
ENDBRANCH   1   8
BRANCH   1  14
ATOM     14  C   UNL     1       2.268   5.682  19.636  0.00  0.00    +0.000 C 
ATOM     15  O   UNL     1       2.181   5.271  20.795  0.00  0.00    +0.000 OA
BRANCH  14  16
ATOM     16  C   UNL     1       2.036   7.108  19.327  0.00  0.00    +0.000 A 
ATOM     17  C   UNL     1       2.305   7.739  18.122  0.00  0.00    +0.000 A 
ATOM     18  N   UNL     1       1.922   9.049  18.216  0.00  0.00    +0.000 N 
ATOM     19  C   UNL     1       1.390   9.300  19.455  0.00  0.00    +0.000 A 
ATOM     20  C   UNL     1       0.845  10.484  19.967  0.00  0.00    +0.000 A 
ATOM     21  C   UNL     1       0.375  10.465  21.282  0.00  0.00    +0.000 A 
ATOM     22  C   UNL     1       0.465   9.311  22.054  0.00  0.00    +0.000 A 
ATOM     23  C   UNL     1       1.009   8.134  21.523  0.00  0.00    +0.000 A 
ATOM     24  C   UNL     1       1.472   8.115  20.187  0.00  0.00    +0.000 A 
ATOM     25  H   UNL     1       2.005   9.737  17.479  0.00  0.00    +0.000 HD
ENDBRANCH  14  16
ENDBRANCH   1  14
TORSDOF 5
ENDMDL
MODEL 3
REMARK VINA RESULT:      -6.8      1.085      2.079
REMARK  Name = 
REMARK  7 active torsions:
REMARK  status: ('A' for Active; 'I' for Inactive)
REMARK    1  A    between atoms: C_1  and  C_2
REMARK    2  A    between atoms: C_2  and  O_3
REMARK    3  A    between atoms: O_3  and  C_4
REMARK    4  A    between atoms: N_9  and  C_10
REMARK    5  A    between atoms: C_10  and  C_11
REMARK    6  A    between atoms: C_10  and  C_12
REMARK    7  A    between atoms: C_12  and  C_14
REMARK                            x       y       z     vdW  Elec       q    Type
REMARK                         _______ _______ _______ _____ _____    ______ ____
ROOT
ATOM      1  C   UNL     1       3.343   3.743  19.530  0.00  0.00    +0.000 C 
ATOM      2  C   UNL     1       3.293   2.605  20.559  0.00  0.00    +0.000 C 
ENDROOT
BRANCH   1   8
ATOM      3  C   UNL     1       1.466   8.323  20.132  0.00  0.00    +0.000 C 
ATOM      4  O   UNL     1       0.856   8.625  21.148  0.00  0.00    +0.000 OA
ATOM      5  N   UNL     1       2.108   7.117  19.950  0.00  0.00    +0.000 N 
ATOM      6  C   UNL     1       1.953   6.084  20.971  0.00  0.00    +0.000 C 
ATOM      7  C   UNL     1       1.277   4.833  20.372  0.00  0.00    +0.000 C 
ATOM      8  N   UNL     1       1.987   4.276  19.190  0.00  0.00    +0.000 NA
ATOM      9  C   UNL     1       2.051   5.364  18.174  0.00  0.00    +0.000 C 
ATOM     10  C   UNL     1       2.692   6.681  18.675  0.00  0.00    +0.000 C 
BRANCH   3  11
ATOM     11  O   UNL     1       1.532   9.111  19.029  0.00  0.00    +0.000 OA
BRANCH  11  13
ATOM     12  C   UNL     1      -0.444  10.225  18.301  0.00  0.00    +0.000 C 
ATOM     13  C   UNL     1       0.821  10.349  19.133  0.00  0.00    +0.000 C 
ENDBRANCH  11  13
ENDBRANCH   3  11
ENDBRANCH   1   8
BRANCH   1  14
ATOM     14  C   UNL     1       4.101   3.190  18.288  0.00  0.00    +0.000 C 
ATOM     15  O   UNL     1       3.776   2.129  17.750  0.00  0.00    +0.000 OA
BRANCH  14  16
ATOM     16  C   UNL     1       5.251   3.966  17.779  0.00  0.00    +0.000 A 
ATOM     17  C   UNL     1       6.181   4.650  18.548  0.00  0.00    +0.000 A 
ATOM     18  N   UNL     1       7.110   5.214  17.717  0.00  0.00    +0.000 N 
ATOM     19  C   UNL     1       6.827   4.906  16.411  0.00  0.00    +0.000 A 
ATOM     20  C   UNL     1       7.526   5.240  15.245  0.00  0.00    +0.000 A 
ATOM     21  C   UNL     1       7.005   4.800  14.027  0.00  0.00    +0.000 A 
ATOM     22  C   UNL     1       5.822   4.068  13.982  0.00  0.00    +0.000 A 
ATOM     23  C   UNL     1       5.138   3.738  15.160  0.00  0.00    +0.000 A 
ATOM     24  C   UNL     1       5.653   4.151  16.410  0.00  0.00    +0.000 A 
ATOM     25  H   UNL     1       7.902   5.768  18.015  0.00  0.00    +0.000 HD
ENDBRANCH  14  16
ENDBRANCH   1  14
TORSDOF 5
ENDMDL
MODEL 4
REMARK VINA RESULT:      -6.6      2.880      7.043
REMARK  Name = 
REMARK  7 active torsions:
REMARK  status: ('A' for Active; 'I' for Inactive)
REMARK    1  A    between atoms: C_1  and  C_2
REMARK    2  A    between atoms: C_2  and  O_3
REMARK    3  A    between atoms: O_3  and  C_4
REMARK    4  A    between atoms: N_9  and  C_10
REMARK    5  A    between atoms: C_10  and  C_11
REMARK    6  A    between atoms: C_10  and  C_12
REMARK    7  A    between atoms: C_12  and  C_14
REMARK                            x       y       z     vdW  Elec       q    Type
REMARK                         _______ _______ _______ _____ _____    ______ ____
ROOT
ATOM      1  C   UNL     1       6.484   5.435  17.602  0.00  0.00    +0.000 C 
ATOM      2  C   UNL     1       7.354   6.695  17.716  0.00  0.00    +0.000 C 
ENDROOT
BRANCH   1   8
ATOM      3  C   UNL     1       6.529   3.822  12.884  0.00  0.00    +0.000 C 
ATOM      4  O   UNL     1       6.917   4.543  11.975  0.00  0.00    +0.000 OA
ATOM      5  N   UNL     1       6.598   4.161  14.218  0.00  0.00    +0.000 N 
ATOM      6  C   UNL     1       7.042   5.506  14.573  0.00  0.00    +0.000 C 
ATOM      7  C   UNL     1       5.926   6.261  15.326  0.00  0.00    +0.000 C 
ATOM      8  N   UNL     1       5.438   5.551  16.539  0.00  0.00    +0.000 NA
ATOM      9  C   UNL     1       4.947   4.217  16.089  0.00  0.00    +0.000 C 
ATOM     10  C   UNL     1       5.980   3.381  15.298  0.00  0.00    +0.000 C 
BRANCH   3  11
ATOM     11  O   UNL     1       5.921   2.624  12.690  0.00  0.00    +0.000 OA
BRANCH  11  13
ATOM     12  C   UNL     1       4.031   3.188  11.354  0.00  0.00    +0.000 C 
ATOM     13  C   UNL     1       5.355   2.444  11.388  0.00  0.00    +0.000 C 
ENDBRANCH  11  13
ENDBRANCH   3  11
ENDBRANCH   1   8
BRANCH   1  14
ATOM     14  C   UNL     1       5.882   5.178  19.014  0.00  0.00    +0.000 C 
ATOM     15  O   UNL     1       6.598   4.964  19.994  0.00  0.00    +0.000 OA
BRANCH  14  16
ATOM     16  C   UNL     1       4.410   5.174  19.146  0.00  0.00    +0.000 A 
ATOM     17  C   UNL     1       3.593   6.290  19.245  0.00  0.00    +0.000 A 
ATOM     18  N   UNL     1       2.291   5.878  19.316  0.00  0.00    +0.000 N 
ATOM     19  C   UNL     1       2.222   4.510  19.252  0.00  0.00    +0.000 A 
ATOM     20  C   UNL     1       1.100   3.673  19.255  0.00  0.00    +0.000 A 
ATOM     21  C   UNL     1       1.318   2.296  19.189  0.00  0.00    +0.000 A 
ATOM     22  C   UNL     1       2.610   1.781  19.139  0.00  0.00    +0.000 A 
ATOM     23  C   UNL     1       3.721   2.634  19.132  0.00  0.00    +0.000 A 
ATOM     24  C   UNL     1       3.532   4.034  19.175  0.00  0.00    +0.000 A 
ATOM     25  H   UNL     1       1.488   6.488  19.393  0.00  0.00    +0.000 HD
ENDBRANCH  14  16
ENDBRANCH   1  14
TORSDOF 5
ENDMDL
MODEL 5
REMARK VINA RESULT:      -6.5      2.909      7.046
REMARK  Name = 
REMARK  7 active torsions:
REMARK  status: ('A' for Active; 'I' for Inactive)
REMARK    1  A    between atoms: C_1  and  C_2
REMARK    2  A    between atoms: C_2  and  O_3
REMARK    3  A    between atoms: O_3  and  C_4
REMARK    4  A    between atoms: N_9  and  C_10
REMARK    5  A    between atoms: C_10  and  C_11
REMARK    6  A    between atoms: C_10  and  C_12
REMARK    7  A    between atoms: C_12  and  C_14
REMARK                            x       y       z     vdW  Elec       q    Type
REMARK                         _______ _______ _______ _____ _____    ______ ____
ROOT
ATOM      1  C   UNL     1       6.459   5.168  17.380  0.00  0.00    +0.000 C 
ATOM      2  C   UNL     1       7.585   5.565  18.346  0.00  0.00    +0.000 C 
ENDROOT
BRANCH   1   8
ATOM      3  C   UNL     1       5.780   3.607  12.694  0.00  0.00    +0.000 C 
ATOM      4  O   UNL     1       6.724   3.246  12.007  0.00  0.00    +0.000 OA
ATOM      5  N   UNL     1       5.881   3.938  14.028  0.00  0.00    +0.000 N 
ATOM      6  C   UNL     1       7.207   3.987  14.635  0.00  0.00    +0.000 C 
ATOM      7  C   UNL     1       7.514   5.411  15.145  0.00  0.00    +0.000 C 
ATOM      8  N   UNL     1       6.500   5.937  16.098  0.00  0.00    +0.000 NA
ATOM      9  C   UNL     1       5.190   5.914  15.389  0.00  0.00    +0.000 C 
ATOM     10  C   UNL     1       4.791   4.534  14.812  0.00  0.00    +0.000 C 
BRANCH   3  11
ATOM     11  O   UNL     1       4.523   3.788  12.214  0.00  0.00    +0.000 OA
BRANCH  11  13
ATOM     12  C   UNL     1       3.281   3.755  10.181  0.00  0.00    +0.000 C 
ATOM     13  C   UNL     1       4.177   2.950  11.107  0.00  0.00    +0.000 C 
ENDBRANCH  11  13
ENDBRANCH   3  11
ENDBRANCH   1   8
BRANCH   1  14
ATOM     14  C   UNL     1       5.121   5.355  18.153  0.00  0.00    +0.000 C 
ATOM     15  O   UNL     1       4.772   6.454  18.588  0.00  0.00    +0.000 OA
BRANCH  14  16
ATOM     16  C   UNL     1       4.280   4.160  18.376  0.00  0.00    +0.000 A 
ATOM     17  C   UNL     1       4.528   2.883  17.893  0.00  0.00    +0.000 A 
ATOM     18  N   UNL     1       3.544   2.045  18.340  0.00  0.00    +0.000 N 
ATOM     19  C   UNL     1       2.654   2.734  19.124  0.00  0.00    +0.000 A 
ATOM     20  C   UNL     1       1.526   2.269  19.811  0.00  0.00    +0.000 A 
ATOM     21  C   UNL     1       0.780   3.199  20.537  0.00  0.00    +0.000 A 
ATOM     22  C   UNL     1       1.144   4.543  20.559  0.00  0.00    +0.000 A 
ATOM     23  C   UNL     1       2.279   4.989  19.870  0.00  0.00    +0.000 A 
ATOM     24  C   UNL     1       3.067   4.067  19.144  0.00  0.00    +0.000 A 
ATOM     25  H   UNL     1       3.481   1.056  18.138  0.00  0.00    +0.000 HD
ENDBRANCH  14  16
ENDBRANCH   1  14
TORSDOF 5
ENDMDL
MODEL 6
REMARK VINA RESULT:      -6.5      2.462      5.856
REMARK  Name = 
REMARK  7 active torsions:
REMARK  status: ('A' for Active; 'I' for Inactive)
REMARK    1  A    between atoms: C_1  and  C_2
REMARK    2  A    between atoms: C_2  and  O_3
REMARK    3  A    between atoms: O_3  and  C_4
REMARK    4  A    between atoms: N_9  and  C_10
REMARK    5  A    between atoms: C_10  and  C_11
REMARK    6  A    between atoms: C_10  and  C_12
REMARK    7  A    between atoms: C_12  and  C_14
REMARK                            x       y       z     vdW  Elec       q    Type
REMARK                         _______ _______ _______ _____ _____    ______ ____
ROOT
ATOM      1  C   UNL     1       2.765   4.605  18.618  0.00  0.00    +0.000 C 
ATOM      2  C   UNL     1       1.736   3.656  17.986  0.00  0.00    +0.000 C 
ENDROOT
BRANCH   1   8
ATOM      3  C   UNL     1       7.070   6.356  16.813  0.00  0.00    +0.000 C 
ATOM      4  O   UNL     1       7.453   6.054  15.692  0.00  0.00    +0.000 OA
ATOM      5  N   UNL     1       5.841   6.004  17.328  0.00  0.00    +0.000 N 
ATOM      6  C   UNL     1       4.989   5.112  16.547  0.00  0.00    +0.000 C 
ATOM      7  C   UNL     1       4.726   3.803  17.322  0.00  0.00    +0.000 C 
ATOM      8  N   UNL     1       4.138   4.015  18.672  0.00  0.00    +0.000 NA
ATOM      9  C   UNL     1       5.090   4.879  19.426  0.00  0.00    +0.000 C 
ATOM     10  C   UNL     1       5.445   6.213  18.727  0.00  0.00    +0.000 C 
BRANCH   3  11
ATOM     11  O   UNL     1       7.833   7.022  17.717  0.00  0.00    +0.000 OA
BRANCH  11  13
ATOM     12  C   UNL     1       8.726   9.023  18.653  0.00  0.00    +0.000 C 
ATOM     13  C   UNL     1       7.845   8.444  17.559  0.00  0.00    +0.000 C 
ENDBRANCH  11  13
ENDBRANCH   3  11
ENDBRANCH   1   8
BRANCH   1  14
ATOM     14  C   UNL     1       2.217   4.986  20.024  0.00  0.00    +0.000 C 
ATOM     15  O   UNL     1       2.145   4.162  20.937  0.00  0.00    +0.000 OA
BRANCH  14  16
ATOM     16  C   UNL     1       1.756   6.375  20.231  0.00  0.00    +0.000 A 
ATOM     17  C   UNL     1       1.137   6.871  21.369  0.00  0.00    +0.000 A 
ATOM     18  N   UNL     1       0.894   8.206  21.191  0.00  0.00    +0.000 N 
ATOM     19  C   UNL     1       1.353   8.612  19.964  0.00  0.00    +0.000 A 
ATOM     20  C   UNL     1       1.344   9.888  19.388  0.00  0.00    +0.000 A 
ATOM     21  C   UNL     1       1.874  10.023  18.103  0.00  0.00    +0.000 A 
ATOM     22  C   UNL     1       2.375   8.918  17.420  0.00  0.00    +0.000 A 
ATOM     23  C   UNL     1       2.380   7.650  18.015  0.00  0.00    +0.000 A 
ATOM     24  C   UNL     1       1.871   7.486  19.323  0.00  0.00    +0.000 A 
ATOM     25  H   UNL     1       0.453   8.815  21.867  0.00  0.00    +0.000 HD
ENDBRANCH  14  16
ENDBRANCH   1  14
TORSDOF 5
ENDMDL
MODEL 7
REMARK VINA RESULT:      -6.5      3.156      6.985
REMARK  Name = 
REMARK  7 active torsions:
REMARK  status: ('A' for Active; 'I' for Inactive)
REMARK    1  A    between atoms: C_1  and  C_2
REMARK    2  A    between atoms: C_2  and  O_3
REMARK    3  A    between atoms: O_3  and  C_4
REMARK    4  A    between atoms: N_9  and  C_10
REMARK    5  A    between atoms: C_10  and  C_11
REMARK    6  A    between atoms: C_10  and  C_12
REMARK    7  A    between atoms: C_12  and  C_14
REMARK                            x       y       z     vdW  Elec       q    Type
REMARK                         _______ _______ _______ _____ _____    ______ ____
ROOT
ATOM      1  C   UNL     1       6.507   5.109  17.963  0.00  0.00    +0.000 C 
ATOM      2  C   UNL     1       7.767   5.585  18.699  0.00  0.00    +0.000 C 
ENDROOT
BRANCH   1   8
ATOM      3  C   UNL     1       6.094   3.926  13.137  0.00  0.00    +0.000 C 
ATOM      4  O   UNL     1       7.049   4.025  12.380  0.00  0.00    +0.000 OA
ATOM      5  N   UNL     1       6.167   4.124  14.499  0.00  0.00    +0.000 N 
ATOM      6  C   UNL     1       7.425   4.602  15.067  0.00  0.00    +0.000 C 
ATOM      7  C   UNL     1       7.222   5.973  15.747  0.00  0.00    +0.000 C 
ATOM      8  N   UNL     1       6.162   5.971  16.791  0.00  0.00    +0.000 NA
ATOM      9  C   UNL     1       4.902   5.534  16.125  0.00  0.00    +0.000 C 
ATOM     10  C   UNL     1       4.998   4.178  15.386  0.00  0.00    +0.000 C 
BRANCH   3  11
ATOM     11  O   UNL     1       4.826   3.673  12.723  0.00  0.00    +0.000 OA
BRANCH  11  13
ATOM     12  C   UNL     1       3.520   3.344  10.758  0.00  0.00    +0.000 C 
ATOM     13  C   UNL     1       4.730   2.868  11.544  0.00  0.00    +0.000 C 
ENDBRANCH  11  13
ENDBRANCH   3  11
ENDBRANCH   1   8
BRANCH   1  14
ATOM     14  C   UNL     1       5.367   5.047  19.022  0.00  0.00    +0.000 C 
ATOM     15  O   UNL     1       5.100   6.011  19.743  0.00  0.00    +0.000 OA
BRANCH  14  16
ATOM     16  C   UNL     1       4.621   3.779  19.158  0.00  0.00    +0.000 A 
ATOM     17  C   UNL     1       5.134   2.572  19.611  0.00  0.00    +0.000 A 
ATOM     18  N   UNL     1       4.128   1.645  19.628  0.00  0.00    +0.000 N 
ATOM     19  C   UNL     1       2.952   2.214  19.209  0.00  0.00    +0.000 A 
ATOM     20  C   UNL     1       1.676   1.647  19.105  0.00  0.00    +0.000 A 
ATOM     21  C   UNL     1       0.642   2.460  18.635  0.00  0.00    +0.000 A 
ATOM     22  C   UNL     1       0.884   3.780  18.269  0.00  0.00    +0.000 A 
ATOM     23  C   UNL     1       2.167   4.332  18.385  0.00  0.00    +0.000 A 
ATOM     24  C   UNL     1       3.230   3.541  18.879  0.00  0.00    +0.000 A 
ATOM     25  H   UNL     1       4.225   0.681  19.917  0.00  0.00    +0.000 HD
ENDBRANCH  14  16
ENDBRANCH   1  14
TORSDOF 5
ENDMDL
MODEL 8
REMARK VINA RESULT:      -6.5      2.693      6.808
REMARK  Name = 
REMARK  7 active torsions:
REMARK  status: ('A' for Active; 'I' for Inactive)
REMARK    1  A    between atoms: C_1  and  C_2
REMARK    2  A    between atoms: C_2  and  O_3
REMARK    3  A    between atoms: O_3  and  C_4
REMARK    4  A    between atoms: N_9  and  C_10
REMARK    5  A    between atoms: C_10  and  C_11
REMARK    6  A    between atoms: C_10  and  C_12
REMARK    7  A    between atoms: C_12  and  C_14
REMARK                            x       y       z     vdW  Elec       q    Type
REMARK                         _______ _______ _______ _____ _____    ______ ____
ROOT
ATOM      1  C   UNL     1       5.283   4.779  18.077  0.00  0.00    +0.000 C 
ATOM      2  C   UNL     1       5.965   5.148  19.401  0.00  0.00    +0.000 C 
ENDROOT
BRANCH   1   8
ATOM      3  C   UNL     1       7.515   4.993  13.624  0.00  0.00    +0.000 C 
ATOM      4  O   UNL     1       8.652   5.427  13.509  0.00  0.00    +0.000 OA
ATOM      5  N   UNL     1       6.884   4.798  14.833  0.00  0.00    +0.000 N 
ATOM      6  C   UNL     1       7.553   5.250  16.049  0.00  0.00    +0.000 C 
ATOM      7  C   UNL     1       6.708   6.329  16.760  0.00  0.00    +0.000 C 
ATOM      8  N   UNL     1       5.323   5.890  17.077  0.00  0.00    +0.000 NA
ATOM      9  C   UNL     1       4.687   5.505  15.785  0.00  0.00    +0.000 C 
ATOM     10  C   UNL     1       5.466   4.442  14.972  0.00  0.00    +0.000 C 
BRANCH   3  11
ATOM     11  O   UNL     1       6.706   4.708  12.571  0.00  0.00    +0.000 OA
BRANCH  11  13
ATOM     12  C   UNL     1       5.578   2.771  11.764  0.00  0.00    +0.000 C 
ATOM     13  C   UNL     1       6.932   3.429  11.971  0.00  0.00    +0.000 C 
ENDBRANCH  11  13
ENDBRANCH   3  11
ENDBRANCH   1   8
BRANCH   1  14
ATOM     14  C   UNL     1       3.832   4.337  18.429  0.00  0.00    +0.000 C 
ATOM     15  O   UNL     1       3.339   3.305  17.970  0.00  0.00    +0.000 OA
BRANCH  14  16
ATOM     16  C   UNL     1       3.042   5.212  19.320  0.00  0.00    +0.000 A 
ATOM     17  C   UNL     1       2.630   4.910  20.610  0.00  0.00    +0.000 A 
ATOM     18  N   UNL     1       1.953   5.985  21.119  0.00  0.00    +0.000 N 
ATOM     19  C   UNL     1       1.919   7.003  20.200  0.00  0.00    +0.000 A 
ATOM     20  C   UNL     1       1.368   8.284  20.310  0.00  0.00    +0.000 A 
ATOM     21  C   UNL     1       1.466   9.130  19.204  0.00  0.00    +0.000 A 
ATOM     22  C   UNL     1       2.079   8.700  18.030  0.00  0.00    +0.000 A 
ATOM     23  C   UNL     1       2.630   7.415  17.940  0.00  0.00    +0.000 A 
ATOM     24  C   UNL     1       2.565   6.543  19.051  0.00  0.00    +0.000 A 
ATOM     25  H   UNL     1       1.545   6.035  22.042  0.00  0.00    +0.000 HD
ENDBRANCH  14  16
ENDBRANCH   1  14
TORSDOF 5
ENDMDL
MODEL 9
REMARK VINA RESULT:      -6.4      2.071      5.831
REMARK  Name = 
REMARK  7 active torsions:
REMARK  status: ('A' for Active; 'I' for Inactive)
REMARK    1  A    between atoms: C_1  and  C_2
REMARK    2  A    between atoms: C_2  and  O_3
REMARK    3  A    between atoms: O_3  and  C_4
REMARK    4  A    between atoms: N_9  and  C_10
REMARK    5  A    between atoms: C_10  and  C_11
REMARK    6  A    between atoms: C_10  and  C_12
REMARK    7  A    between atoms: C_12  and  C_14
REMARK                            x       y       z     vdW  Elec       q    Type
REMARK                         _______ _______ _______ _____ _____    ______ ____
ROOT
ATOM      1  C   UNL     1       2.392   4.117  19.117  0.00  0.00    +0.000 C 
ATOM      2  C   UNL     1       1.132   3.276  18.870  0.00  0.00    +0.000 C 
ENDROOT
BRANCH   1   8
ATOM      3  C   UNL     1       6.584   4.861  16.522  0.00  0.00    +0.000 C 
ATOM      4  O   UNL     1       6.735   4.367  15.413  0.00  0.00    +0.000 OA
ATOM      5  N   UNL     1       5.411   4.792  17.241  0.00  0.00    +0.000 N 
ATOM      6  C   UNL     1       4.317   3.979  16.716  0.00  0.00    +0.000 C 
ATOM      7  C   UNL     1       3.977   2.837  17.696  0.00  0.00    +0.000 C 
ATOM      8  N   UNL     1       3.647   3.305  19.070  0.00  0.00    +0.000 NA
ATOM      9  C   UNL     1       4.829   4.070  19.559  0.00  0.00    +0.000 C 
ATOM     10  C   UNL     1       5.276   5.230  18.637  0.00  0.00    +0.000 C 
BRANCH   3  11
ATOM     11  O   UNL     1       7.574   5.483  17.212  0.00  0.00    +0.000 OA
BRANCH  11  13
ATOM     12  C   UNL     1       8.162   7.463  18.398  0.00  0.00    +0.000 C 
ATOM     13  C   UNL     1       7.564   6.911  17.115  0.00  0.00    +0.000 C 
ENDBRANCH  11  13
ENDBRANCH   3  11
ENDBRANCH   1   8
BRANCH   1  14
ATOM     14  C   UNL     1       2.190   4.834  20.484  0.00  0.00    +0.000 C 
ATOM     15  O   UNL     1       2.365   4.249  21.555  0.00  0.00    +0.000 OA
BRANCH  14  16
ATOM     16  C   UNL     1       1.754   6.246  20.464  0.00  0.00    +0.000 A 
ATOM     17  C   UNL     1       1.076   6.908  21.478  0.00  0.00    +0.000 A 
ATOM     18  N   UNL     1       0.881   8.208  21.100  0.00  0.00    +0.000 N 
ATOM     19  C   UNL     1       1.427   8.430  19.862  0.00  0.00    +0.000 A 
ATOM     20  C   UNL     1       1.490   9.612  19.114  0.00  0.00    +0.000 A 
ATOM     21  C   UNL     1       2.104   9.555  17.862  0.00  0.00    +0.000 A 
ATOM     22  C   UNL     1       2.619   8.357  17.374  0.00  0.00    +0.000 A 
ATOM     23  C   UNL     1       2.552   7.185  18.139  0.00  0.00    +0.000 A 
ATOM     24  C   UNL     1       1.956   7.216  19.421  0.00  0.00    +0.000 A 
ATOM     25  H   UNL     1       0.413   8.914  21.653  0.00  0.00    +0.000 HD
ENDBRANCH  14  16
ENDBRANCH   1  14
TORSDOF 5
ENDMDL
