MODEL 1
REMARK VINA RESULT:      -8.0      0.000      0.000
REMARK  Name = 
REMARK  2 active torsions:
REMARK  status: ('A' for Active; 'I' for Inactive)
REMARK    1  A    between atoms: C_1  and  C_2
REMARK    2  A    between atoms: C_15  and  C_16
REMARK                            x       y       z     vdW  Elec       q    Type
REMARK                         _______ _______ _______ _____ _____    ______ ____
ROOT
ATOM      1  C   UNL     1       8.216   8.438  17.943  0.00  0.00    +0.000 C 
ATOM      2  C   UNL     1       7.525   7.113  18.012  0.00  0.00    +0.000 A 
ATOM      3  C   UNL     1       7.903   6.089  18.887  0.00  0.00    +0.000 A 
ATOM      4  C   UNL     1       6.859   5.255  19.375  0.00  0.00    +0.000 A 
ATOM      5  C   UNL     1       5.645   5.372  18.759  0.00  0.00    +0.000 A 
ATOM      6  C   UNL     1       5.805   5.674  17.422  0.00  0.00    +0.000 A 
ATOM      7  C   UNL     1       6.402   6.885  17.248  0.00  0.00    +0.000 A 
ATOM      8  S   UNL     1       4.570   4.879  16.466  0.00  0.00    +0.000 S 
ATOM      9  C   UNL     1       3.601   5.237  17.870  0.00  0.00    +0.000 C 
ATOM     10  N   UNL     1       2.576   5.932  17.537  0.00  0.00    +0.000 NA
ATOM     11  C   UNL     1       2.390   6.974  18.348  0.00  0.00    +0.000 A 
ATOM     12  S   UNL     1       2.109   8.540  17.712  0.00  0.00    +0.000 S 
ATOM     13  C   UNL     1       1.422   8.984  19.227  0.00  0.00    +0.000 A 
ATOM     14  C   UNL     1       0.606  10.094  19.442  0.00  0.00    +0.000 A 
ATOM     15  C   UNL     1      -0.146  10.140  20.606  0.00  0.00    +0.000 A 
ATOM     16  C   UNL     1      -1.169  11.250  20.754  0.00  0.00    +0.000 C 
ATOM     17  C   UNL     1       0.027   9.122  21.558  0.00  0.00    +0.000 A 
ATOM     18  C   UNL     1       0.991   8.079  21.392  0.00  0.00    +0.000 A 
ATOM     19  C   UNL     1       1.714   7.986  20.175  0.00  0.00    +0.000 A 
ATOM     20  N   UNL     1       2.581   7.020  19.618  0.00  0.00    +0.000 N 
ATOM     21  C   UNL     1       3.486   5.925  20.160  0.00  0.00    +0.000 C 
ATOM     22  N   UNL     1       4.278   5.160  19.084  0.00  0.00    +0.000 N 
ENDROOT
TORSDOF 0
ENDMDL
MODEL 2
REMARK VINA RESULT:      -7.0      4.011      9.212
REMARK  Name = 
REMARK  2 active torsions:
REMARK  status: ('A' for Active; 'I' for Inactive)
REMARK    1  A    between atoms: C_1  and  C_2
REMARK    2  A    between atoms: C_15  and  C_16
REMARK                            x       y       z     vdW  Elec       q    Type
REMARK                         _______ _______ _______ _____ _____    ______ ____
ROOT
ATOM      1  C   UNL     1      -5.353  12.827  19.637  0.00  0.00    +0.000 C 
ATOM      2  C   UNL     1      -4.536  13.133  20.853  0.00  0.00    +0.000 A 
ATOM      3  C   UNL     1      -4.942  12.821  22.155  0.00  0.00    +0.000 A 
ATOM      4  C   UNL     1      -3.911  12.487  23.076  0.00  0.00    +0.000 A 
ATOM      5  C   UNL     1      -2.629  12.743  22.679  0.00  0.00    +0.000 A 
ATOM      6  C   UNL     1      -2.584  13.861  21.870  0.00  0.00    +0.000 A 
ATOM      7  C   UNL     1      -3.277  13.674  20.714  0.00  0.00    +0.000 A 
ATOM      8  S   UNL     1      -1.116  14.770  22.170  0.00  0.00    +0.000 S 
ATOM      9  C   UNL     1      -0.458  13.169  22.372  0.00  0.00    +0.000 C 
ATOM     10  N   UNL     1       0.522  12.986  21.565  0.00  0.00    +0.000 NA
ATOM     11  C   UNL     1       0.440  11.816  20.931  0.00  0.00    +0.000 A 
ATOM     12  S   UNL     1       0.645  11.724  19.232  0.00  0.00    +0.000 S 
ATOM     13  C   UNL     1       0.998  10.048  19.410  0.00  0.00    +0.000 A 
ATOM     14  C   UNL     1       1.629   9.256  18.451  0.00  0.00    +0.000 A 
ATOM     15  C   UNL     1       2.153   8.036  18.850  0.00  0.00    +0.000 A 
ATOM     16  C   UNL     1       2.999   7.262  17.857  0.00  0.00    +0.000 C 
ATOM     17  C   UNL     1       1.934   7.610  20.171  0.00  0.00    +0.000 A 
ATOM     18  C   UNL     1       1.142   8.363  21.092  0.00  0.00    +0.000 A 
ATOM     19  C   UNL     1       0.661   9.643  20.715  0.00  0.00    +0.000 A 
ATOM     20  N   UNL     1       0.024  10.697  21.406  0.00  0.00    +0.000 N 
ATOM     21  C   UNL     1      -0.830  10.821  22.658  0.00  0.00    +0.000 C 
ATOM     22  N   UNL     1      -1.326  12.248  22.954  0.00  0.00    +0.000 N 
ENDROOT
TORSDOF 0
ENDMDL
MODEL 3
REMARK VINA RESULT:      -6.3      5.682      8.310
REMARK  Name = 
REMARK  2 active torsions:
REMARK  status: ('A' for Active; 'I' for Inactive)
REMARK    1  A    between atoms: C_1  and  C_2
REMARK    2  A    between atoms: C_15  and  C_16
REMARK                            x       y       z     vdW  Elec       q    Type
REMARK                         _______ _______ _______ _____ _____    ______ ____
ROOT
ATOM      1  C   UNL     1       1.071   8.587  21.555  0.00  0.00    +0.000 C 
ATOM      2  C   UNL     1       0.933   9.589  20.452  0.00  0.00    +0.000 A 
ATOM      3  C   UNL     1       0.783   9.240  19.106  0.00  0.00    +0.000 A 
ATOM      4  C   UNL     1      -0.010  10.111  18.310  0.00  0.00    +0.000 A 
ATOM      5  C   UNL     1      -0.338  11.316  18.863  0.00  0.00    +0.000 A 
ATOM      6  C   UNL     1       0.673  11.763  19.690  0.00  0.00    +0.000 A 
ATOM      7  C   UNL     1       0.860  10.932  20.751  0.00  0.00    +0.000 A 
ATOM      8  S   UNL     1       0.819  13.507  19.585  0.00  0.00    +0.000 S 
ATOM      9  C   UNL     1      -0.914  13.397  19.437  0.00  0.00    +0.000 C 
ATOM     10  N   UNL     1      -1.483  14.091  20.353  0.00  0.00    +0.000 NA
ATOM     11  C   UNL     1      -2.468  13.422  20.953  0.00  0.00    +0.000 A 
ATOM     12  S   UNL     1      -2.575  13.367  22.662  0.00  0.00    +0.000 S 
ATOM     13  C   UNL     1      -4.238  12.950  22.500  0.00  0.00    +0.000 A 
ATOM     14  C   UNL     1      -5.190  13.045  23.515  0.00  0.00    +0.000 A 
ATOM     15  C   UNL     1      -6.531  13.009  23.162  0.00  0.00    +0.000 A 
ATOM     16  C   UNL     1      -7.561  13.298  24.236  0.00  0.00    +0.000 C 
ATOM     17  C   UNL     1      -6.865  12.776  21.817  0.00  0.00    +0.000 A 
ATOM     18  C   UNL     1      -5.875  12.518  20.819  0.00  0.00    +0.000 A 
ATOM     19  C   UNL     1      -4.502  12.620  21.158  0.00  0.00    +0.000 A 
ATOM     20  N   UNL     1      -3.301  12.606  20.412  0.00  0.00    +0.000 N 
ATOM     21  C   UNL     1      -2.858  12.050  19.068  0.00  0.00    +0.000 C 
ATOM     22  N   UNL     1      -1.373  12.283  18.739  0.00  0.00    +0.000 N 
ENDROOT
TORSDOF 0
ENDMDL
MODEL 4
REMARK VINA RESULT:      -6.3      7.088     12.170
REMARK  Name = 
REMARK  2 active torsions:
REMARK  status: ('A' for Active; 'I' for Inactive)
REMARK    1  A    between atoms: C_1  and  C_2
REMARK    2  A    between atoms: C_15  and  C_16
REMARK                            x       y       z     vdW  Elec       q    Type
REMARK                         _______ _______ _______ _____ _____    ______ ____
ROOT
ATOM      1  C   UNL     1      -5.329  18.063  18.393  0.00  0.00    +0.000 C 
ATOM      2  C   UNL     1      -6.367  16.986  18.415  0.00  0.00    +0.000 A 
ATOM      3  C   UNL     1      -7.320  16.810  17.407  0.00  0.00    +0.000 A 
ATOM      4  C   UNL     1      -7.729  15.472  17.148  0.00  0.00    +0.000 A 
ATOM      5  C   UNL     1      -7.348  14.529  18.060  0.00  0.00    +0.000 A 
ATOM      6  C   UNL     1      -7.302  15.071  19.329  0.00  0.00    +0.000 A 
ATOM      7  C   UNL     1      -6.360  16.048  19.425  0.00  0.00    +0.000 A 
ATOM      8  S   UNL     1      -7.825  13.890  20.515  0.00  0.00    +0.000 S 
ATOM      9  C   UNL     1      -6.999  12.802  19.432  0.00  0.00    +0.000 C 
ATOM     10  N   UNL     1      -6.087  12.156  20.061  0.00  0.00    +0.000 NA
ATOM     11  C   UNL     1      -4.932  12.140  19.396  0.00  0.00    +0.000 A 
ATOM     12  S   UNL     1      -3.461  12.527  20.185  0.00  0.00    +0.000 S 
ATOM     13  C   UNL     1      -2.621  11.700  18.929  0.00  0.00    +0.000 A 
ATOM     14  C   UNL     1      -1.301  11.258  19.004  0.00  0.00    +0.000 A 
ATOM     15  C   UNL     1      -0.868  10.323  18.076  0.00  0.00    +0.000 A 
ATOM     16  C   UNL     1       0.503   9.706  18.270  0.00  0.00    +0.000 C 
ATOM     17  C   UNL     1      -1.745   9.943  17.047  0.00  0.00    +0.000 A 
ATOM     18  C   UNL     1      -3.038  10.531  16.891  0.00  0.00    +0.000 A 
ATOM     19  C   UNL     1      -3.515  11.437  17.874  0.00  0.00    +0.000 A 
ATOM     20  N   UNL     1      -4.763  12.048  18.125  0.00  0.00    +0.000 N 
ATOM     21  C   UNL     1      -5.988  12.409  17.298  0.00  0.00    +0.000 C 
ATOM     22  N   UNL     1      -7.098  13.131  18.083  0.00  0.00    +0.000 N 
ENDROOT
TORSDOF 0
ENDMDL
MODEL 5
REMARK VINA RESULT:      -6.3      6.978      8.608
REMARK  Name = 
REMARK  2 active torsions:
REMARK  status: ('A' for Active; 'I' for Inactive)
REMARK    1  A    between atoms: C_1  and  C_2
REMARK    2  A    between atoms: C_15  and  C_16
REMARK                            x       y       z     vdW  Elec       q    Type
REMARK                         _______ _______ _______ _____ _____    ______ ____
ROOT
ATOM      1  C   UNL     1       9.315  10.007  19.254  0.00  0.00    +0.000 C 
ATOM      2  C   UNL     1       9.848  11.380  18.993  0.00  0.00    +0.000 A 
ATOM      3  C   UNL     1      10.479  11.749  17.800  0.00  0.00    +0.000 A 
ATOM      4  C   UNL     1      10.296  13.095  17.377  0.00  0.00    +0.000 A 
ATOM      5  C   UNL     1       9.740  13.951  18.285  0.00  0.00    +0.000 A 
ATOM      6  C   UNL     1      10.116  13.610  19.569  0.00  0.00    +0.000 A 
ATOM      7  C   UNL     1       9.651  12.380  19.919  0.00  0.00    +0.000 A 
ATOM      8  S   UNL     1      10.336  15.051  20.542  0.00  0.00    +0.000 S 
ATOM      9  C   UNL     1       8.989  15.605  19.584  0.00  0.00    +0.000 C 
ATOM     10  N   UNL     1       8.017  15.955  20.344  0.00  0.00    +0.000 NA
ATOM     11  C   UNL     1       6.851  15.459  19.932  0.00  0.00    +0.000 A 
ATOM     12  S   UNL     1       5.794  14.677  21.030  0.00  0.00    +0.000 S 
ATOM     13  C   UNL     1       4.505  14.960  19.922  0.00  0.00    +0.000 A 
ATOM     14  C   UNL     1       3.149  14.898  20.239  0.00  0.00    +0.000 A 
ATOM     15  C   UNL     1       2.243  15.474  19.361  0.00  0.00    +0.000 A 
ATOM     16  C   UNL     1       0.792  15.572  19.792  0.00  0.00    +0.000 C 
ATOM     17  C   UNL     1       2.723  16.002  18.151  0.00  0.00    +0.000 A 
ATOM     18  C   UNL     1       4.098  15.908  17.771  0.00  0.00    +0.000 A 
ATOM     19  C   UNL     1       5.041  15.382  18.691  0.00  0.00    +0.000 A 
ATOM     20  N   UNL     1       6.452  15.307  18.719  0.00  0.00    +0.000 N 
ATOM     21  C   UNL     1       7.565  15.306  17.683  0.00  0.00    +0.000 C 
ATOM     22  N   UNL     1       8.980  15.152  18.268  0.00  0.00    +0.000 N 
ENDROOT
TORSDOF 0
ENDMDL
MODEL 6
REMARK VINA RESULT:      -6.2      3.032      7.796
REMARK  Name = 
REMARK  2 active torsions:
REMARK  status: ('A' for Active; 'I' for Inactive)
REMARK    1  A    between atoms: C_1  and  C_2
REMARK    2  A    between atoms: C_15  and  C_16
REMARK                            x       y       z     vdW  Elec       q    Type
REMARK                         _______ _______ _______ _____ _____    ______ ____
ROOT
ATOM      1  C   UNL     1      -3.576  10.470  15.689  0.00  0.00    +0.000 C 
ATOM      2  C   UNL     1      -3.142  11.264  16.881  0.00  0.00    +0.000 A 
ATOM      3  C   UNL     1      -3.965  11.513  17.984  0.00  0.00    +0.000 A 
ATOM      4  C   UNL     1      -3.318  11.607  19.248  0.00  0.00    +0.000 A 
ATOM      5  C   UNL     1      -1.955  11.694  19.232  0.00  0.00    +0.000 A 
ATOM      6  C   UNL     1      -1.524  12.377  18.113  0.00  0.00    +0.000 A 
ATOM      7  C   UNL     1      -1.844  11.718  16.967  0.00  0.00    +0.000 A 
ATOM      8  S   UNL     1      -0.118  13.350  18.498  0.00  0.00    +0.000 S 
ATOM      9  C   UNL     1       0.240  11.986  19.523  0.00  0.00    +0.000 C 
ATOM     10  N   UNL     1       1.390  11.500  19.230  0.00  0.00    +0.000 NA
ATOM     11  C   UNL     1       1.362  10.171  19.122  0.00  0.00    +0.000 A 
ATOM     12  S   UNL     1       2.068   9.387  17.772  0.00  0.00    +0.000 S 
ATOM     13  C   UNL     1       2.136   7.940  18.704  0.00  0.00    +0.000 A 
ATOM     14  C   UNL     1       2.928   6.832  18.406  0.00  0.00    +0.000 A 
ATOM     15  C   UNL     1       3.146   5.894  19.403  0.00  0.00    +0.000 A 
ATOM     16  C   UNL     1       4.153   4.791  19.140  0.00  0.00    +0.000 C 
ATOM     17  C   UNL     1       2.479   6.050  20.630  0.00  0.00    +0.000 A 
ATOM     18  C   UNL     1       1.542   7.106  20.859  0.00  0.00    +0.000 A 
ATOM     19  C   UNL     1       1.365   8.107  19.870  0.00  0.00    +0.000 A 
ATOM     20  N   UNL     1       0.683   9.343  19.833  0.00  0.00    +0.000 N 
ATOM     21  C   UNL     1      -0.493   9.963  20.572  0.00  0.00    +0.000 C 
ATOM     22  N   UNL     1      -0.873  11.377  20.097  0.00  0.00    +0.000 N 
ENDROOT
TORSDOF 0
ENDMDL
MODEL 7
REMARK VINA RESULT:      -6.2      4.615      9.886
REMARK  Name = 
REMARK  2 active torsions:
REMARK  status: ('A' for Active; 'I' for Inactive)
REMARK    1  A    between atoms: C_1  and  C_2
REMARK    2  A    between atoms: C_15  and  C_16
REMARK                            x       y       z     vdW  Elec       q    Type
REMARK                         _______ _______ _______ _____ _____    ______ ____
ROOT
ATOM      1  C   UNL     1      -6.496  12.359  20.488  0.00  0.00    +0.000 C 
ATOM      2  C   UNL     1      -5.591  12.917  21.540  0.00  0.00    +0.000 A 
ATOM      3  C   UNL     1      -5.772  12.698  22.910  0.00  0.00    +0.000 A 
ATOM      4  C   UNL     1      -4.592  12.626  23.701  0.00  0.00    +0.000 A 
ATOM      5  C   UNL     1      -3.429  13.021  23.102  0.00  0.00    +0.000 A 
ATOM      6  C   UNL     1      -3.668  14.035  22.196  0.00  0.00    +0.000 A 
ATOM      7  C   UNL     1      -4.464  13.618  21.173  0.00  0.00    +0.000 A 
ATOM      8  S   UNL     1      -2.339  15.178  22.197  0.00  0.00    +0.000 S 
ATOM      9  C   UNL     1      -1.412  13.724  22.449  0.00  0.00    +0.000 C 
ATOM     10  N   UNL     1      -0.526  13.597  21.531  0.00  0.00    +0.000 NA
ATOM     11  C   UNL     1      -0.498  12.364  21.024  0.00  0.00    +0.000 A 
ATOM     12  S   UNL     1      -0.499  12.112  19.330  0.00  0.00    +0.000 S 
ATOM     13  C   UNL     1       0.139  10.536  19.608  0.00  0.00    +0.000 A 
ATOM     14  C   UNL     1       0.762   9.743  18.646  0.00  0.00    +0.000 A 
ATOM     15  C   UNL     1       1.521   8.665  19.076  0.00  0.00    +0.000 A 
ATOM     16  C   UNL     1       2.347   7.917  18.047  0.00  0.00    +0.000 C 
ATOM     17  C   UNL     1       1.544   8.364  20.448  0.00  0.00    +0.000 A 
ATOM     18  C   UNL     1       0.765   9.091  21.401  0.00  0.00    +0.000 A 
ATOM     19  C   UNL     1       0.040  10.236  20.980  0.00  0.00    +0.000 A 
ATOM     20  N   UNL     1      -0.665  11.256  21.655  0.00  0.00    +0.000 N 
ATOM     21  C   UNL     1      -1.361  11.395  23.000  0.00  0.00    +0.000 C 
ATOM     22  N   UNL     1      -2.039  12.757  23.231  0.00  0.00    +0.000 N 
ENDROOT
TORSDOF 0
ENDMDL
MODEL 8
REMARK VINA RESULT:      -6.2      7.829      8.702
REMARK  Name = 
REMARK  2 active torsions:
REMARK  status: ('A' for Active; 'I' for Inactive)
REMARK    1  A    between atoms: C_1  and  C_2
REMARK    2  A    between atoms: C_15  and  C_16
REMARK                            x       y       z     vdW  Elec       q    Type
REMARK                         _______ _______ _______ _____ _____    ______ ____
ROOT
ATOM      1  C   UNL     1       8.750  11.537  22.578  0.00  0.00    +0.000 C 
ATOM      2  C   UNL     1       9.296  11.921  21.239  0.00  0.00    +0.000 A 
ATOM      3  C   UNL     1       9.533  11.003  20.210  0.00  0.00    +0.000 A 
ATOM      4  C   UNL     1       9.350  11.480  18.882  0.00  0.00    +0.000 A 
ATOM      5  C   UNL     1       9.207  12.830  18.731  0.00  0.00    +0.000 A 
ATOM      6  C   UNL     1       9.950  13.506  19.679  0.00  0.00    +0.000 A 
ATOM      7  C   UNL     1       9.510  13.248  20.940  0.00  0.00    +0.000 A 
ATOM      8  S   UNL     1      10.614  14.978  18.995  0.00  0.00    +0.000 S 
ATOM      9  C   UNL     1       9.086  14.985  18.156  0.00  0.00    +0.000 C 
ATOM     10  N   UNL     1       8.456  16.077  18.388  0.00  0.00    +0.000 NA
ATOM     11  C   UNL     1       7.177  15.866  18.698  0.00  0.00    +0.000 A 
ATOM     12  S   UNL     1       6.470  16.621  20.064  0.00  0.00    +0.000 S 
ATOM     13  C   UNL     1       4.922  16.344  19.360  0.00  0.00    +0.000 A 
ATOM     14  C   UNL     1       3.746  16.994  19.732  0.00  0.00    +0.000 A 
ATOM     15  C   UNL     1       2.662  16.932  18.870  0.00  0.00    +0.000 A 
ATOM     16  C   UNL     1       1.450  17.788  19.183  0.00  0.00    +0.000 C 
ATOM     17  C   UNL     1       2.765  16.137  17.717  0.00  0.00    +0.000 A 
ATOM     18  C   UNL     1       3.924  15.347  17.437  0.00  0.00    +0.000 A 
ATOM     19  C   UNL     1       5.062  15.457  18.276  0.00  0.00    +0.000 A 
ATOM     20  N   UNL     1       6.389  14.980  18.202  0.00  0.00    +0.000 N 
ATOM     21  C   UNL     1       7.095  13.822  17.513  0.00  0.00    +0.000 C 
ATOM     22  N   UNL     1       8.602  13.726  17.809  0.00  0.00    +0.000 N 
ENDROOT
TORSDOF 0
ENDMDL
MODEL 9
REMARK VINA RESULT:      -6.1      5.617     10.959
REMARK  Name = 
REMARK  2 active torsions:
REMARK  status: ('A' for Active; 'I' for Inactive)
REMARK    1  A    between atoms: C_1  and  C_2
REMARK    2  A    between atoms: C_15  and  C_16
REMARK                            x       y       z     vdW  Elec       q    Type
REMARK                         _______ _______ _______ _____ _____    ______ ____
ROOT
ATOM      1  C   UNL     1      -7.915  11.247  21.451  0.00  0.00    +0.000 C 
ATOM      2  C   UNL     1      -7.123  12.249  22.230  0.00  0.00    +0.000 A 
ATOM      3  C   UNL     1      -7.083  12.285  23.627  0.00  0.00    +0.000 A 
ATOM      4  C   UNL     1      -5.863  12.720  24.215  0.00  0.00    +0.000 A 
ATOM      5  C   UNL     1      -4.949  13.291  23.375  0.00  0.00    +0.000 A 
ATOM      6  C   UNL     1      -5.584  13.979  22.360  0.00  0.00    +0.000 A 
ATOM      7  C   UNL     1      -6.313  13.146  21.569  0.00  0.00    +0.000 A 
ATOM      8  S   UNL     1      -4.682  15.424  21.948  0.00  0.00    +0.000 S 
ATOM      9  C   UNL     1      -3.329  14.380  22.290  0.00  0.00    +0.000 C 
ATOM     10  N   UNL     1      -2.548  14.317  21.275  0.00  0.00    +0.000 NA
ATOM     11  C   UNL     1      -2.193  13.063  20.991  0.00  0.00    +0.000 A 
ATOM     12  S   UNL     1      -2.292  12.466  19.388  0.00  0.00    +0.000 S 
ATOM     13  C   UNL     1      -1.172  11.233  19.825  0.00  0.00    +0.000 A 
ATOM     14  C   UNL     1      -0.438  10.463  18.924  0.00  0.00    +0.000 A 
ATOM     15  C   UNL     1       0.659   9.761  19.403  0.00  0.00    +0.000 A 
ATOM     16  C   UNL     1       1.564   9.076  18.397  0.00  0.00    +0.000 C 
ATOM     17  C   UNL     1       0.917   9.778  20.784  0.00  0.00    +0.000 A 
ATOM     18  C   UNL     1       0.055  10.441  21.711  0.00  0.00    +0.000 A 
ATOM     19  C   UNL     1      -1.029  11.217  21.225  0.00  0.00    +0.000 A 
ATOM     20  N   UNL     1      -1.942  12.115  21.821  0.00  0.00    +0.000 N 
ATOM     21  C   UNL     1      -2.502  12.334  23.218  0.00  0.00    +0.000 C 
ATOM     22  N   UNL     1      -3.540  13.466  23.319  0.00  0.00    +0.000 N 
ENDROOT
TORSDOF 0
ENDMDL
