MODEL 1
REMARK VINA RESULT:      -8.0      0.000      0.000
REMARK  Name = 
REMARK  10 active torsions:
REMARK  status: ('A' for Active; 'I' for Inactive)
REMARK    1  A    between atoms: C_1  and  C_2
REMARK    2  A    between atoms: C_2  and  O_3
REMARK    3  A    between atoms: O_3  and  C_4
REMARK    4  A    between atoms: C_4  and  C_6
REMARK    5  A    between atoms: C_6  and  C_7
REMARK    6  A    between atoms: C_7  and  C_8
REMARK    7  A    between atoms: C_8  and  N_9
REMARK    8  A    between atoms: C_12  and  C_13
REMARK    9  A    between atoms: C_13  and  N_14
REMARK   10  A    between atoms: C_15  and  C_17
REMARK                            x       y       z     vdW  Elec       q    Type
REMARK                         _______ _______ _______ _____ _____    ______ ____
ROOT
ATOM      1  C   UNL     1       7.712   7.122  17.974  0.00  0.00    +0.000 C 
ENDROOT
BRANCH   1   5
ATOM      2  N   UNL     1       5.436   4.220  17.555  0.00  0.00    +0.000 NA
ATOM      3  C   UNL     1       6.680   4.407  16.790  0.00  0.00    +0.000 C 
ATOM      4  C   UNL     1       7.884   4.582  17.712  0.00  0.00    +0.000 C 
ATOM      5  C   UNL     1       7.703   5.756  18.681  0.00  0.00    +0.000 C 
ATOM      6  C   UNL     1       6.388   5.544  19.442  0.00  0.00    +0.000 C 
ATOM      7  C   UNL     1       5.201   5.326  18.498  0.00  0.00    +0.000 C 
BRANCH   2   8
ATOM      8  C   UNL     1       4.272   4.086  16.660  0.00  0.00    +0.000 C 
BRANCH   8   9
ATOM      9  C   UNL     1       3.014   3.544  17.338  0.00  0.00    +0.000 C 
BRANCH   9  10
ATOM     10  C   UNL     1       3.211   2.167  17.971  0.00  0.00    +0.000 C 
BRANCH  10  11
ATOM     11  C   UNL     1       3.239   2.295  19.472  0.00  0.00    +0.000 C 
ATOM     12  O   UNL     1       4.244   2.230  20.167  0.00  0.00    +0.000 OA
BRANCH  11  13
ATOM     13  O   UNL     1       1.966   2.395  19.946  0.00  0.00    +0.000 OA
BRANCH  13  15
ATOM     14  C   UNL     1       1.642   4.612  20.752  0.00  0.00    +0.000 C 
ATOM     15  C   UNL     1       1.844   3.161  21.151  0.00  0.00    +0.000 C 
ENDBRANCH  13  15
ENDBRANCH  11  13
ENDBRANCH  10  11
ENDBRANCH   9  10
ENDBRANCH   8   9
ENDBRANCH   2   8
ENDBRANCH   1   5
BRANCH   1  16
ATOM     16  N   UNL     1       8.513   8.100  18.674  0.00  0.00    +0.000 N 
ATOM     17  C   UNL     1       8.454   9.437  18.340  0.00  0.00    +0.000 C 
ATOM     18  O   UNL     1       7.746   9.868  17.435  0.00  0.00    +0.000 OA
ATOM     19  H   UNL     1       8.859   7.876  19.598  0.00  0.00    +0.000 HD
BRANCH  17  20
ATOM     20  C   UNL     1       9.267  10.312  19.178  0.00  0.00    +0.000 A 
ATOM     21  C   UNL     1       9.106  10.410  20.551  0.00  0.00    +0.000 A 
ATOM     22  N   UNL     1      10.014  11.308  21.034  0.00  0.00    +0.000 N 
ATOM     23  C   UNL     1      10.754  11.837  20.004  0.00  0.00    +0.000 A 
ATOM     24  C   UNL     1      11.766  12.805  20.034  0.00  0.00    +0.000 A 
ATOM     25  C   UNL     1      12.333  13.189  18.818  0.00  0.00    +0.000 A 
ATOM     26  C   UNL     1      11.904  12.628  17.619  0.00  0.00    +0.000 A 
ATOM     27  C   UNL     1      10.895  11.659  17.607  0.00  0.00    +0.000 A 
ATOM     28  C   UNL     1      10.306  11.240  18.822  0.00  0.00    +0.000 A 
ATOM     29  H   UNL     1      10.114  11.569  22.006  0.00  0.00    +0.000 HD
ENDBRANCH  17  20
ENDBRANCH   1  16
TORSDOF 9
ENDMDL
MODEL 2
REMARK VINA RESULT:      -7.4      4.707      8.014
REMARK  Name = 
REMARK  10 active torsions:
REMARK  status: ('A' for Active; 'I' for Inactive)
REMARK    1  A    between atoms: C_1  and  C_2
REMARK    2  A    between atoms: C_2  and  O_3
REMARK    3  A    between atoms: O_3  and  C_4
REMARK    4  A    between atoms: C_4  and  C_6
REMARK    5  A    between atoms: C_6  and  C_7
REMARK    6  A    between atoms: C_7  and  C_8
REMARK    7  A    between atoms: C_8  and  N_9
REMARK    8  A    between atoms: C_12  and  C_13
REMARK    9  A    between atoms: C_13  and  N_14
REMARK   10  A    between atoms: C_15  and  C_17
REMARK                            x       y       z     vdW  Elec       q    Type
REMARK                         _______ _______ _______ _____ _____    ______ ____
ROOT
ATOM      1  C   UNL     1       2.759   6.900  19.117  0.00  0.00    +0.000 C 
ENDROOT
BRANCH   1   5
ATOM      2  N   UNL     1       3.763   3.504  18.003  0.00  0.00    +0.000 NA
ATOM      3  C   UNL     1       4.394   4.222  19.122  0.00  0.00    +0.000 C 
ATOM      4  C   UNL     1       3.365   4.646  20.168  0.00  0.00    +0.000 C 
ATOM      5  C   UNL     1       2.256   5.518  19.567  0.00  0.00    +0.000 C 
ATOM      6  C   UNL     1       1.638   4.752  18.390  0.00  0.00    +0.000 C 
ATOM      7  C   UNL     1       2.692   4.298  17.376  0.00  0.00    +0.000 C 
BRANCH   2   8
ATOM      8  C   UNL     1       4.756   3.128  16.981  0.00  0.00    +0.000 C 
BRANCH   8   9
ATOM      9  C   UNL     1       4.970   4.182  15.893  0.00  0.00    +0.000 C 
BRANCH   9  10
ATOM     10  C   UNL     1       6.392   4.197  15.335  0.00  0.00    +0.000 C 
BRANCH  10  11
ATOM     11  C   UNL     1       7.323   4.851  16.322  0.00  0.00    +0.000 C 
ATOM     12  O   UNL     1       8.014   4.258  17.139  0.00  0.00    +0.000 OA
BRANCH  11  13
ATOM     13  O   UNL     1       7.203   6.205  16.235  0.00  0.00    +0.000 OA
BRANCH  13  15
ATOM     14  C   UNL     1       7.943   7.720  17.916  0.00  0.00    +0.000 C 
ATOM     15  C   UNL     1       6.795   6.841  17.452  0.00  0.00    +0.000 C 
ENDBRANCH  13  15
ENDBRANCH  11  13
ENDBRANCH  10  11
ENDBRANCH   9  10
ENDBRANCH   8   9
ENDBRANCH   2   8
ENDBRANCH   1   5
BRANCH   1  16
ATOM     16  N   UNL     1       1.905   7.972  19.574  0.00  0.00    +0.000 N 
ATOM     17  C   UNL     1       1.529   8.992  18.725  0.00  0.00    +0.000 C 
ATOM     18  O   UNL     1       1.901   9.060  17.557  0.00  0.00    +0.000 OA
ATOM     19  H   UNL     1       1.325   7.820  20.389  0.00  0.00    +0.000 HD
BRANCH  17  20
ATOM     20  C   UNL     1       0.612   9.965  19.308  0.00  0.00    +0.000 A 
ATOM     21  C   UNL     1       0.064  11.016  18.590  0.00  0.00    +0.000 A 
ATOM     22  N   UNL     1      -0.746  11.737  19.420  0.00  0.00    +0.000 N 
ATOM     23  C   UNL     1      -0.721  11.207  20.688  0.00  0.00    +0.000 A 
ATOM     24  C   UNL     1      -1.369  11.639  21.852  0.00  0.00    +0.000 A 
ATOM     25  C   UNL     1      -1.137  10.925  23.027  0.00  0.00    +0.000 A 
ATOM     26  C   UNL     1      -0.287   9.823  23.040  0.00  0.00    +0.000 A 
ATOM     27  C   UNL     1       0.351   9.403  21.867  0.00  0.00    +0.000 A 
ATOM     28  C   UNL     1       0.129  10.097  20.657  0.00  0.00    +0.000 A 
ATOM     29  H   UNL     1      -1.270  12.560  19.152  0.00  0.00    +0.000 HD
ENDBRANCH  17  20
ENDBRANCH   1  16
TORSDOF 9
ENDMDL
MODEL 3
REMARK VINA RESULT:      -7.2      4.083      7.718
REMARK  Name = 
REMARK  10 active torsions:
REMARK  status: ('A' for Active; 'I' for Inactive)
REMARK    1  A    between atoms: C_1  and  C_2
REMARK    2  A    between atoms: C_2  and  O_3
REMARK    3  A    between atoms: O_3  and  C_4
REMARK    4  A    between atoms: C_4  and  C_6
REMARK    5  A    between atoms: C_6  and  C_7
REMARK    6  A    between atoms: C_7  and  C_8
REMARK    7  A    between atoms: C_8  and  N_9
REMARK    8  A    between atoms: C_12  and  C_13
REMARK    9  A    between atoms: C_13  and  N_14
REMARK   10  A    between atoms: C_15  and  C_17
REMARK                            x       y       z     vdW  Elec       q    Type
REMARK                         _______ _______ _______ _____ _____    ______ ____
ROOT
ATOM      1  C   UNL     1       1.673   4.117  20.595  0.00  0.00    +0.000 C 
ENDROOT
BRANCH   1   5
ATOM      2  N   UNL     1       3.345   2.818  17.546  0.00  0.00    +0.000 NA
ATOM      3  C   UNL     1       3.363   2.133  18.848  0.00  0.00    +0.000 C 
ATOM      4  C   UNL     1       1.949   1.885  19.371  0.00  0.00    +0.000 C 
ATOM      5  C   UNL     1       1.144   3.184  19.493  0.00  0.00    +0.000 C 
ATOM      6  C   UNL     1       1.167   3.885  18.128  0.00  0.00    +0.000 C 
ATOM      7  C   UNL     1       2.592   4.082  17.602  0.00  0.00    +0.000 C 
BRANCH   2   8
ATOM      8  C   UNL     1       4.712   3.085  17.063  0.00  0.00    +0.000 C 
BRANCH   8   9
ATOM      9  C   UNL     1       4.837   4.322  16.174  0.00  0.00    +0.000 C 
BRANCH   9  10
ATOM     10  C   UNL     1       6.274   4.624  15.751  0.00  0.00    +0.000 C 
BRANCH  10  11
ATOM     11  C   UNL     1       7.122   4.875  16.970  0.00  0.00    +0.000 C 
ATOM     12  O   UNL     1       8.121   4.238  17.277  0.00  0.00    +0.000 OA
BRANCH  11  13
ATOM     13  O   UNL     1       6.555   5.854  17.729  0.00  0.00    +0.000 OA
BRANCH  13  15
ATOM     14  C   UNL     1       7.903   7.814  17.816  0.00  0.00    +0.000 C 
ATOM     15  C   UNL     1       6.682   7.172  17.183  0.00  0.00    +0.000 C 
ENDBRANCH  13  15
ENDBRANCH  11  13
ENDBRANCH  10  11
ENDBRANCH   9  10
ENDBRANCH   8   9
ENDBRANCH   2   8
ENDBRANCH   1   5
BRANCH   1  16
ATOM     16  N   UNL     1       1.331   5.500  20.358  0.00  0.00    +0.000 N 
ATOM     17  C   UNL     1       2.306   6.437  20.086  0.00  0.00    +0.000 C 
ATOM     18  O   UNL     1       3.501   6.164  20.046  0.00  0.00    +0.000 OA
ATOM     19  H   UNL     1       0.388   5.727  20.069  0.00  0.00    +0.000 HD
BRANCH  17  20
ATOM     20  C   UNL     1       1.803   7.777  19.802  0.00  0.00    +0.000 A 
ATOM     21  C   UNL     1       1.960   8.401  18.576  0.00  0.00    +0.000 A 
ATOM     22  N   UNL     1       1.381   9.636  18.637  0.00  0.00    +0.000 N 
ATOM     23  C   UNL     1       0.871   9.861  19.893  0.00  0.00    +0.000 A 
ATOM     24  C   UNL     1       0.226  10.993  20.408  0.00  0.00    +0.000 A 
ATOM     25  C   UNL     1      -0.164  10.964  21.747  0.00  0.00    +0.000 A 
ATOM     26  C   UNL     1       0.084   9.849  22.541  0.00  0.00    +0.000 A 
ATOM     27  C   UNL     1       0.727   8.726  22.011  0.00  0.00    +0.000 A 
ATOM     28  C   UNL     1       1.125   8.717  20.655  0.00  0.00    +0.000 A 
ATOM     29  H   UNL     1       1.353  10.304  17.877  0.00  0.00    +0.000 HD
ENDBRANCH  17  20
ENDBRANCH   1  16
TORSDOF 9
ENDMDL
MODEL 4
REMARK VINA RESULT:      -7.1      4.557      8.069
REMARK  Name = 
REMARK  10 active torsions:
REMARK  status: ('A' for Active; 'I' for Inactive)
REMARK    1  A    between atoms: C_1  and  C_2
REMARK    2  A    between atoms: C_2  and  O_3
REMARK    3  A    between atoms: O_3  and  C_4
REMARK    4  A    between atoms: C_4  and  C_6
REMARK    5  A    between atoms: C_6  and  C_7
REMARK    6  A    between atoms: C_7  and  C_8
REMARK    7  A    between atoms: C_8  and  N_9
REMARK    8  A    between atoms: C_12  and  C_13
REMARK    9  A    between atoms: C_13  and  N_14
REMARK   10  A    between atoms: C_15  and  C_17
REMARK                            x       y       z     vdW  Elec       q    Type
REMARK                         _______ _______ _______ _____ _____    ______ ____
ROOT
ATOM      1  C   UNL     1       2.368   5.465  20.712  0.00  0.00    +0.000 C 
ENDROOT
BRANCH   1   5
ATOM      2  N   UNL     1       2.944   2.842  18.149  0.00  0.00    +0.000 NA
ATOM      3  C   UNL     1       3.187   2.653  19.589  0.00  0.00    +0.000 C 
ATOM      4  C   UNL     1       1.938   2.959  20.413  0.00  0.00    +0.000 C 
ATOM      5  C   UNL     1       1.421   4.382  20.169  0.00  0.00    +0.000 C 
ATOM      6  C   UNL     1       1.204   4.554  18.660  0.00  0.00    +0.000 C 
ATOM      7  C   UNL     1       2.454   4.198  17.850  0.00  0.00    +0.000 C 
BRANCH   2   8
ATOM      8  C   UNL     1       4.162   2.578  17.362  0.00  0.00    +0.000 C 
BRANCH   8   9
ATOM      9  C   UNL     1       4.796   3.825  16.744  0.00  0.00    +0.000 C 
BRANCH   9  10
ATOM     10  C   UNL     1       5.946   4.396  17.574  0.00  0.00    +0.000 C 
BRANCH  10  11
ATOM     11  C   UNL     1       6.865   5.197  16.689  0.00  0.00    +0.000 C 
ATOM     12  O   UNL     1       7.651   4.725  15.878  0.00  0.00    +0.000 OA
BRANCH  11  13
ATOM     13  O   UNL     1       6.759   6.519  16.997  0.00  0.00    +0.000 OA
BRANCH  13  15
ATOM     14  C   UNL     1       7.970   8.436  17.724  0.00  0.00    +0.000 C 
ATOM     15  C   UNL     1       7.686   6.969  17.993  0.00  0.00    +0.000 C 
ENDBRANCH  13  15
ENDBRANCH  11  13
ENDBRANCH  10  11
ENDBRANCH   9  10
ENDBRANCH   8   9
ENDBRANCH   2   8
ENDBRANCH   1   5
BRANCH   1  16
ATOM     16  N   UNL     1       1.665   6.664  21.107  0.00  0.00    +0.000 N 
ATOM     17  C   UNL     1       1.700   7.798  20.323  0.00  0.00    +0.000 C 
ATOM     18  O   UNL     1       2.331   7.864  19.272  0.00  0.00    +0.000 OA
ATOM     19  H   UNL     1       0.899   6.587  21.763  0.00  0.00    +0.000 HD
BRANCH  17  20
ATOM     20  C   UNL     1       0.889   8.906  20.816  0.00  0.00    +0.000 A 
ATOM     21  C   UNL     1       0.735   9.193  22.162  0.00  0.00    +0.000 A 
ATOM     22  N   UNL     1      -0.079  10.282  22.287  0.00  0.00    +0.000 N 
ATOM     23  C   UNL     1      -0.500  10.705  21.049  0.00  0.00    +0.000 A 
ATOM     24  C   UNL     1      -1.361  11.756  20.708  0.00  0.00    +0.000 A 
ATOM     25  C   UNL     1      -1.649  11.946  19.356  0.00  0.00    +0.000 A 
ATOM     26  C   UNL     1      -1.101  11.115  18.384  0.00  0.00    +0.000 A 
ATOM     27  C   UNL     1      -0.240  10.072  18.742  0.00  0.00    +0.000 A 
ATOM     28  C   UNL     1       0.082   9.859  20.101  0.00  0.00    +0.000 A 
ATOM     29  H   UNL     1      -0.357  10.704  23.164  0.00  0.00    +0.000 HD
ENDBRANCH  17  20
ENDBRANCH   1  16
TORSDOF 9
ENDMDL
MODEL 5
REMARK VINA RESULT:      -7.1      5.726      8.111
REMARK  Name = 
REMARK  10 active torsions:
REMARK  status: ('A' for Active; 'I' for Inactive)
REMARK    1  A    between atoms: C_1  and  C_2
REMARK    2  A    between atoms: C_2  and  O_3
REMARK    3  A    between atoms: O_3  and  C_4
REMARK    4  A    between atoms: C_4  and  C_6
REMARK    5  A    between atoms: C_6  and  C_7
REMARK    6  A    between atoms: C_7  and  C_8
REMARK    7  A    between atoms: C_8  and  N_9
REMARK    8  A    between atoms: C_12  and  C_13
REMARK    9  A    between atoms: C_13  and  N_14
REMARK   10  A    between atoms: C_15  and  C_17
REMARK                            x       y       z     vdW  Elec       q    Type
REMARK                         _______ _______ _______ _____ _____    ______ ____
ROOT
ATOM      1  C   UNL     1       3.560   6.507  18.170  0.00  0.00    +0.000 C 
ENDROOT
BRANCH   1   5
ATOM      2  N   UNL     1       5.803   4.040  16.538  0.00  0.00    +0.000 NA
ATOM      3  C   UNL     1       6.252   5.030  17.530  0.00  0.00    +0.000 C 
ATOM      4  C   UNL     1       5.458   4.921  18.830  0.00  0.00    +0.000 C 
ATOM      5  C   UNL     1       3.951   5.084  18.600  0.00  0.00    +0.000 C 
ATOM      6  C   UNL     1       3.520   4.057  17.544  0.00  0.00    +0.000 C 
ATOM      7  C   UNL     1       4.360   4.153  16.266  0.00  0.00    +0.000 C 
BRANCH   2   8
ATOM      8  C   UNL     1       6.549   4.172  15.274  0.00  0.00    +0.000 C 
BRANCH   8   9
ATOM      9  C   UNL     1       5.671   4.197  14.023  0.00  0.00    +0.000 C 
BRANCH   9  10
ATOM     10  C   UNL     1       6.381   3.678  12.773  0.00  0.00    +0.000 C 
BRANCH  10  11
ATOM     11  C   UNL     1       5.422   2.869  11.940  0.00  0.00    +0.000 C 
ATOM     12  O   UNL     1       5.664   1.774  11.449  0.00  0.00    +0.000 OA
BRANCH  11  13
ATOM     13  O   UNL     1       4.280   3.582  11.734  0.00  0.00    +0.000 OA
BRANCH  13  15
ATOM     14  C   UNL     1       3.123   4.113   9.722  0.00  0.00    +0.000 C 
ATOM     15  C   UNL     1       3.407   3.026  10.743  0.00  0.00    +0.000 C 
ENDBRANCH  13  15
ENDBRANCH  11  13
ENDBRANCH  10  11
ENDBRANCH   9  10
ENDBRANCH   8   9
ENDBRANCH   2   8
ENDBRANCH   1   5
BRANCH   1  16
ATOM     16  N   UNL     1       2.848   7.220  19.206  0.00  0.00    +0.000 N 
ATOM     17  C   UNL     1       1.946   8.215  18.891  0.00  0.00    +0.000 C 
ATOM     18  O   UNL     1       1.710   8.562  17.738  0.00  0.00    +0.000 OA
ATOM     19  H   UNL     1       2.754   6.791  20.117  0.00  0.00    +0.000 HD
BRANCH  17  20
ATOM     20  C   UNL     1       1.256   8.797  20.038  0.00  0.00    +0.000 A 
ATOM     21  C   UNL     1       1.198   8.185  21.279  0.00  0.00    +0.000 A 
ATOM     22  N   UNL     1       0.484   8.981  22.127  0.00  0.00    +0.000 N 
ATOM     23  C   UNL     1       0.034  10.098  21.464  0.00  0.00    +0.000 A 
ATOM     24  C   UNL     1      -0.755  11.158  21.929  0.00  0.00    +0.000 A 
ATOM     25  C   UNL     1      -1.099  12.159  21.020  0.00  0.00    +0.000 A 
ATOM     26  C   UNL     1      -0.672  12.101  19.697  0.00  0.00    +0.000 A 
ATOM     27  C   UNL     1       0.118  11.037  19.249  0.00  0.00    +0.000 A 
ATOM     28  C   UNL     1       0.493  10.012  20.146  0.00  0.00    +0.000 A 
ATOM     29  H   UNL     1       0.288   8.771  23.097  0.00  0.00    +0.000 HD
ENDBRANCH  17  20
ENDBRANCH   1  16
TORSDOF 9
ENDMDL
MODEL 6
REMARK VINA RESULT:      -7.1      5.973      8.297
REMARK  Name = 
REMARK  10 active torsions:
REMARK  status: ('A' for Active; 'I' for Inactive)
REMARK    1  A    between atoms: C_1  and  C_2
REMARK    2  A    between atoms: C_2  and  O_3
REMARK    3  A    between atoms: O_3  and  C_4
REMARK    4  A    between atoms: C_4  and  C_6
REMARK    5  A    between atoms: C_6  and  C_7
REMARK    6  A    between atoms: C_7  and  C_8
REMARK    7  A    between atoms: C_8  and  N_9
REMARK    8  A    between atoms: C_12  and  C_13
REMARK    9  A    between atoms: C_13  and  N_14
REMARK   10  A    between atoms: C_15  and  C_17
REMARK                            x       y       z     vdW  Elec       q    Type
REMARK                         _______ _______ _______ _____ _____    ______ ____
ROOT
ATOM      1  C   UNL     1       2.573   7.320  18.266  0.00  0.00    +0.000 C 
ENDROOT
BRANCH   1   5
ATOM      2  N   UNL     1       4.606   4.217  18.117  0.00  0.00    +0.000 NA
ATOM      3  C   UNL     1       4.827   5.299  19.090  0.00  0.00    +0.000 C 
ATOM      4  C   UNL     1       3.560   5.602  19.888  0.00  0.00    +0.000 C 
ATOM      5  C   UNL     1       2.381   5.971  18.980  0.00  0.00    +0.000 C 
ATOM      6  C   UNL     1       2.195   4.837  17.963  0.00  0.00    +0.000 C 
ATOM      7  C   UNL     1       3.488   4.518  17.206  0.00  0.00    +0.000 C 
BRANCH   2   8
ATOM      8  C   UNL     1       5.822   3.952  17.326  0.00  0.00    +0.000 C 
BRANCH   8   9
ATOM      9  C   UNL     1       5.611   3.995  15.812  0.00  0.00    +0.000 C 
BRANCH   9  10
ATOM     10  C   UNL     1       6.256   5.209  15.144  0.00  0.00    +0.000 C 
BRANCH  10  11
ATOM     11  C   UNL     1       6.978   4.780  13.894  0.00  0.00    +0.000 C 
ATOM     12  O   UNL     1       7.764   5.472  13.261  0.00  0.00    +0.000 OA
BRANCH  11  13
ATOM     13  O   UNL     1       6.549   3.543  13.519  0.00  0.00    +0.000 OA
BRANCH  13  15
ATOM     14  C   UNL     1       4.803   3.418  11.905  0.00  0.00    +0.000 C 
ATOM     15  C   UNL     1       6.307   3.403  12.114  0.00  0.00    +0.000 C 
ENDBRANCH  13  15
ENDBRANCH  11  13
ENDBRANCH  10  11
ENDBRANCH   9  10
ENDBRANCH   8   9
ENDBRANCH   2   8
ENDBRANCH   1   5
BRANCH   1  16
ATOM     16  N   UNL     1       2.052   8.428  19.032  0.00  0.00    +0.000 N 
ATOM     17  C   UNL     1       1.147   9.310  18.480  0.00  0.00    +0.000 C 
ATOM     18  O   UNL     1       0.748   9.220  17.323  0.00  0.00    +0.000 OA
ATOM     19  H   UNL     1       2.084   8.380  20.043  0.00  0.00    +0.000 HD
BRANCH  17  20
ATOM     20  C   UNL     1       0.659  10.337  19.395  0.00  0.00    +0.000 A 
ATOM     21  C   UNL     1       0.696  11.690  19.104  0.00  0.00    +0.000 A 
ATOM     22  N   UNL     1       0.168  12.379  20.159  0.00  0.00    +0.000 N 
ATOM     23  C   UNL     1      -0.188  11.510  21.162  0.00  0.00    +0.000 A 
ATOM     24  C   UNL     1      -0.733  11.777  22.425  0.00  0.00    +0.000 A 
ATOM     25  C   UNL     1      -0.968  10.694  23.272  0.00  0.00    +0.000 A 
ATOM     26  C   UNL     1      -0.668   9.395  22.874  0.00  0.00    +0.000 A 
ATOM     27  C   UNL     1      -0.127   9.146  21.608  0.00  0.00    +0.000 A 
ATOM     28  C   UNL     1       0.114  10.219  20.721  0.00  0.00    +0.000 A 
ATOM     29  H   UNL     1       0.075  13.385  20.209  0.00  0.00    +0.000 HD
ENDBRANCH  17  20
ENDBRANCH   1  16
TORSDOF 9
ENDMDL
MODEL 7
REMARK VINA RESULT:      -7.0      5.002      8.082
REMARK  Name = 
REMARK  10 active torsions:
REMARK  status: ('A' for Active; 'I' for Inactive)
REMARK    1  A    between atoms: C_1  and  C_2
REMARK    2  A    between atoms: C_2  and  O_3
REMARK    3  A    between atoms: O_3  and  C_4
REMARK    4  A    between atoms: C_4  and  C_6
REMARK    5  A    between atoms: C_6  and  C_7
REMARK    6  A    between atoms: C_7  and  C_8
REMARK    7  A    between atoms: C_8  and  N_9
REMARK    8  A    between atoms: C_12  and  C_13
REMARK    9  A    between atoms: C_13  and  N_14
REMARK   10  A    between atoms: C_15  and  C_17
REMARK                            x       y       z     vdW  Elec       q    Type
REMARK                         _______ _______ _______ _____ _____    ______ ____
ROOT
ATOM      1  C   UNL     1       2.412   5.683  20.749  0.00  0.00    +0.000 C 
ENDROOT
BRANCH   1   5
ATOM      2  N   UNL     1       2.490   2.481  18.872  0.00  0.00    +0.000 NA
ATOM      3  C   UNL     1       3.366   2.786  20.015  0.00  0.00    +0.000 C 
ATOM      4  C   UNL     1       2.559   3.177  21.251  0.00  0.00    +0.000 C 
ATOM      5  C   UNL     1       1.639   4.375  20.984  0.00  0.00    +0.000 C 
ATOM      6  C   UNL     1       0.759   4.035  19.774  0.00  0.00    +0.000 C 
ATOM      7  C   UNL     1       1.586   3.602  18.559  0.00  0.00    +0.000 C 
BRANCH   2   8
ATOM      8  C   UNL     1       3.275   2.139  17.672  0.00  0.00    +0.000 C 
BRANCH   8   9
ATOM      9  C   UNL     1       4.615   2.868  17.566  0.00  0.00    +0.000 C 
BRANCH   9  10
ATOM     10  C   UNL     1       4.630   3.957  16.495  0.00  0.00    +0.000 C 
BRANCH  10  11
ATOM     11  C   UNL     1       5.959   3.959  15.787  0.00  0.00    +0.000 C 
ATOM     12  O   UNL     1       6.138   3.621  14.624  0.00  0.00    +0.000 OA
BRANCH  11  13
ATOM     13  O   UNL     1       6.944   4.300  16.663  0.00  0.00    +0.000 OA
BRANCH  13  15
ATOM     14  C   UNL     1       7.526   5.821  18.400  0.00  0.00    +0.000 C 
ATOM     15  C   UNL     1       6.991   5.696  16.984  0.00  0.00    +0.000 C 
ENDBRANCH  13  15
ENDBRANCH  11  13
ENDBRANCH  10  11
ENDBRANCH   9  10
ENDBRANCH   8   9
ENDBRANCH   2   8
ENDBRANCH   1   5
BRANCH   1  16
ATOM     16  N   UNL     1       1.683   6.844  21.207  0.00  0.00    +0.000 N 
ATOM     17  C   UNL     1       1.600   7.981  20.432  0.00  0.00    +0.000 C 
ATOM     18  O   UNL     1       2.142   8.084  19.336  0.00  0.00    +0.000 OA
ATOM     19  H   UNL     1       0.975   6.725  21.920  0.00  0.00    +0.000 HD
BRANCH  17  20
ATOM     20  C   UNL     1       0.775   9.045  20.995  0.00  0.00    +0.000 A 
ATOM     21  C   UNL     1       0.648   9.265  22.357  0.00  0.00    +0.000 A 
ATOM     22  N   UNL     1      -0.188  10.326  22.553  0.00  0.00    +0.000 N 
ATOM     23  C   UNL     1      -0.649  10.797  21.346  0.00  0.00    +0.000 A 
ATOM     24  C   UNL     1      -1.542  11.841  21.075  0.00  0.00    +0.000 A 
ATOM     25  C   UNL     1      -1.869  12.086  19.741  0.00  0.00    +0.000 A 
ATOM     26  C   UNL     1      -1.325  11.315  18.718  0.00  0.00    +0.000 A 
ATOM     27  C   UNL     1      -0.431  10.278  19.006  0.00  0.00    +0.000 A 
ATOM     28  C   UNL     1      -0.071  10.010  20.346  0.00  0.00    +0.000 A 
ATOM     29  H   UNL     1      -0.454  10.700  23.455  0.00  0.00    +0.000 HD
ENDBRANCH  17  20
ENDBRANCH   1  16
TORSDOF 9
ENDMDL
MODEL 8
REMARK VINA RESULT:      -7.0      2.903      8.403
REMARK  Name = 
REMARK  10 active torsions:
REMARK  status: ('A' for Active; 'I' for Inactive)
REMARK    1  A    between atoms: C_1  and  C_2
REMARK    2  A    between atoms: C_2  and  O_3
REMARK    3  A    between atoms: O_3  and  C_4
REMARK    4  A    between atoms: C_4  and  C_6
REMARK    5  A    between atoms: C_6  and  C_7
REMARK    6  A    between atoms: C_7  and  C_8
REMARK    7  A    between atoms: C_8  and  N_9
REMARK    8  A    between atoms: C_12  and  C_13
REMARK    9  A    between atoms: C_13  and  N_14
REMARK   10  A    between atoms: C_15  and  C_17
REMARK                            x       y       z     vdW  Elec       q    Type
REMARK                         _______ _______ _______ _____ _____    ______ ____
ROOT
ATOM      1  C   UNL     1       4.571   4.237  16.744  0.00  0.00    +0.000 C 
ENDROOT
BRANCH   1   5
ATOM      2  N   UNL     1       7.222   6.835  16.818  0.00  0.00    +0.000 NA
ATOM      3  C   UNL     1       7.489   5.388  16.781  0.00  0.00    +0.000 C 
ATOM      4  C   UNL     1       6.804   4.721  15.590  0.00  0.00    +0.000 C 
ATOM      5  C   UNL     1       5.289   4.957  15.590  0.00  0.00    +0.000 C 
ATOM      6  C   UNL     1       5.045   6.470  15.655  0.00  0.00    +0.000 C 
ATOM      7  C   UNL     1       5.778   7.126  16.830  0.00  0.00    +0.000 C 
BRANCH   2   8
ATOM      8  C   UNL     1       7.856   7.467  17.989  0.00  0.00    +0.000 C 
BRANCH   8   9
ATOM      9  C   UNL     1       8.220   8.939  17.791  0.00  0.00    +0.000 C 
BRANCH   9  10
ATOM     10  C   UNL     1       8.861   9.576  19.023  0.00  0.00    +0.000 C 
BRANCH  10  11
ATOM     11  C   UNL     1       9.658  10.788  18.616  0.00  0.00    +0.000 C 
ATOM     12  O   UNL     1      10.864  10.924  18.773  0.00  0.00    +0.000 OA
BRANCH  11  13
ATOM     13  O   UNL     1       8.819  11.747  18.136  0.00  0.00    +0.000 OA
BRANCH  13  15
ATOM     14  C   UNL     1       9.622  13.979  17.940  0.00  0.00    +0.000 C 
ATOM     15  C   UNL     1       8.889  12.996  18.835  0.00  0.00    +0.000 C 
ENDBRANCH  13  15
ENDBRANCH  11  13
ENDBRANCH  10  11
ENDBRANCH   9  10
ENDBRANCH   8   9
ENDBRANCH   2   8
ENDBRANCH   1   5
BRANCH   1  16
ATOM     16  N   UNL     1       3.729   5.127  17.509  0.00  0.00    +0.000 N 
ATOM     17  C   UNL     1       3.657   5.031  18.883  0.00  0.00    +0.000 C 
ATOM     18  O   UNL     1       4.277   4.191  19.527  0.00  0.00    +0.000 OA
ATOM     19  H   UNL     1       3.452   6.010  17.099  0.00  0.00    +0.000 HD
BRANCH  17  20
ATOM     20  C   UNL     1       2.818   6.040  19.522  0.00  0.00    +0.000 A 
ATOM     21  C   UNL     1       2.220   5.856  20.758  0.00  0.00    +0.000 A 
ATOM     22  N   UNL     1       1.508   6.978  21.071  0.00  0.00    +0.000 N 
ATOM     23  C   UNL     1       1.592   7.894  20.050  0.00  0.00    +0.000 A 
ATOM     24  C   UNL     1       0.999   9.158  19.930  0.00  0.00    +0.000 A 
ATOM     25  C   UNL     1       1.228   9.873  18.754  0.00  0.00    +0.000 A 
ATOM     26  C   UNL     1       2.015   9.344  17.736  0.00  0.00    +0.000 A 
ATOM     27  C   UNL     1       2.602   8.081  17.873  0.00  0.00    +0.000 A 
ATOM     28  C   UNL     1       2.401   7.335  19.056  0.00  0.00    +0.000 A 
ATOM     29  H   UNL     1       0.972   7.110  21.919  0.00  0.00    +0.000 HD
ENDBRANCH  17  20
ENDBRANCH   1  16
TORSDOF 9
ENDMDL
MODEL 9
REMARK VINA RESULT:      -7.0      5.184      8.344
REMARK  Name = 
REMARK  10 active torsions:
REMARK  status: ('A' for Active; 'I' for Inactive)
REMARK    1  A    between atoms: C_1  and  C_2
REMARK    2  A    between atoms: C_2  and  O_3
REMARK    3  A    between atoms: O_3  and  C_4
REMARK    4  A    between atoms: C_4  and  C_6
REMARK    5  A    between atoms: C_6  and  C_7
REMARK    6  A    between atoms: C_7  and  C_8
REMARK    7  A    between atoms: C_8  and  N_9
REMARK    8  A    between atoms: C_12  and  C_13
REMARK    9  A    between atoms: C_13  and  N_14
REMARK   10  A    between atoms: C_15  and  C_17
REMARK                            x       y       z     vdW  Elec       q    Type
REMARK                         _______ _______ _______ _____ _____    ______ ____
ROOT
ATOM      1  C   UNL     1       2.528   7.127  18.789  0.00  0.00    +0.000 C 
ENDROOT
BRANCH   1   5
ATOM      2  N   UNL     1       3.653   3.651  18.130  0.00  0.00    +0.000 NA
ATOM      3  C   UNL     1       4.420   4.628  18.919  0.00  0.00    +0.000 C 
ATOM      4  C   UNL     1       3.595   5.187  20.076  0.00  0.00    +0.000 C 
ATOM      5  C   UNL     1       2.293   5.837  19.593  0.00  0.00    +0.000 C 
ATOM      6  C   UNL     1       1.530   4.803  18.755  0.00  0.00    +0.000 C 
ATOM      7  C   UNL     1       2.391   4.221  17.628  0.00  0.00    +0.000 C 
BRANCH   2   8
ATOM      8  C   UNL     1       4.443   3.141  16.995  0.00  0.00    +0.000 C 
BRANCH   8   9
ATOM      9  C   UNL     1       4.808   4.200  15.954  0.00  0.00    +0.000 C 
BRANCH   9  10
ATOM     10  C   UNL     1       6.247   4.088  15.453  0.00  0.00    +0.000 C 
BRANCH  10  11
ATOM     11  C   UNL     1       7.182   4.744  16.436  0.00  0.00    +0.000 C 
ATOM     12  O   UNL     1       8.155   4.207  16.949  0.00  0.00    +0.000 OA
BRANCH  11  13
ATOM     13  O   UNL     1       6.726   5.990  16.741  0.00  0.00    +0.000 OA
BRANCH  13  15
ATOM     14  C   UNL     1       7.679   6.269  18.905  0.00  0.00    +0.000 C 
ATOM     15  C   UNL     1       7.653   6.794  17.480  0.00  0.00    +0.000 C 
ENDBRANCH  13  15
ENDBRANCH  11  13
ENDBRANCH  10  11
ENDBRANCH   9  10
ENDBRANCH   8   9
ENDBRANCH   2   8
ENDBRANCH   1   5
BRANCH   1  16
ATOM     16  N   UNL     1       1.622   8.186  19.169  0.00  0.00    +0.000 N 
ATOM     17  C   UNL     1       1.498   9.324  18.401  0.00  0.00    +0.000 C 
ATOM     18  O   UNL     1       2.147   9.512  17.377  0.00  0.00    +0.000 OA
ATOM     19  H   UNL     1       0.855   7.971  19.794  0.00  0.00    +0.000 HD
BRANCH  17  20
ATOM     20  C   UNL     1       0.496  10.274  18.874  0.00  0.00    +0.000 A 
ATOM     21  C   UNL     1       0.717  11.148  19.925  0.00  0.00    +0.000 A 
ATOM     22  N   UNL     1      -0.409  11.896  20.116  0.00  0.00    +0.000 N 
ATOM     23  C   UNL     1      -1.390  11.512  19.233  0.00  0.00    +0.000 A 
ATOM     24  C   UNL     1      -2.702  11.982  19.094  0.00  0.00    +0.000 A 
ATOM     25  C   UNL     1      -3.507  11.383  18.124  0.00  0.00    +0.000 A 
ATOM     26  C   UNL     1      -3.019  10.352  17.327  0.00  0.00    +0.000 A 
ATOM     27  C   UNL     1      -1.704   9.896  17.477  0.00  0.00    +0.000 A 
ATOM     28  C   UNL     1      -0.859  10.489  18.442  0.00  0.00    +0.000 A 
ATOM     29  H   UNL     1      -0.520  12.612  20.822  0.00  0.00    +0.000 HD
ENDBRANCH  17  20
ENDBRANCH   1  16
TORSDOF 9
ENDMDL
