MODEL 1
REMARK VINA RESULT:      -8.1      0.000      0.000
REMARK  Name = 
REMARK  6 active torsions:
REMARK  status: ('A' for Active; 'I' for Inactive)
REMARK    1  A    between atoms: C_1  and  C_2
REMARK    2  A    between atoms: C_2  and  C_3
REMARK    3  A    between atoms: C_2  and  C_4
REMARK    4  A    between atoms: C_4  and  C_5
REMARK    5  A    between atoms: C_4  and  N_11
REMARK    6  A    between atoms: N_7  and  C_8
REMARK                            x       y       z     vdW  Elec       q    Type
REMARK                         _______ _______ _______ _____ _____    ______ ____
ROOT
ATOM      1  C   UNL     1       6.282   6.110  16.541  0.00  0.00    +0.000 C 
ENDROOT
BRANCH   1   2
ATOM      2  N   UNL     1       4.903   6.045  17.028  0.00  0.00    +0.000 N 
ATOM      3  C   UNL     1       4.091   7.117  17.301  0.00  0.00    +0.000 A 
ATOM      4  N   UNL     1       2.962   6.756  17.861  0.00  0.00    +0.000 NA
ATOM      5  C   UNL     1       3.028   5.400  17.969  0.00  0.00    +0.000 A 
ATOM      6  C   UNL     1       2.096   4.519  18.546  0.00  0.00    +0.000 A 
ATOM      7  C   UNL     1       2.375   3.157  18.514  0.00  0.00    +0.000 A 
ATOM      8  F   UNL     1       1.501   2.304  19.068  0.00  0.00    +0.000 F 
ATOM      9  C   UNL     1       3.536   2.673  17.919  0.00  0.00    +0.000 A 
ATOM     10  F   UNL     1       3.760   1.351  17.884  0.00  0.00    +0.000 F 
ATOM     11  C   UNL     1       4.488   3.530  17.357  0.00  0.00    +0.000 A 
ATOM     12  C   UNL     1       4.212   4.906  17.412  0.00  0.00    +0.000 A 
ENDBRANCH   1   2
BRANCH   1  13
ATOM     13  C   UNL     1       6.657   4.875  15.701  0.00  0.00    +0.000 C 
ATOM     14  O   UNL     1       7.592   4.127  15.979  0.00  0.00    +0.000 OA
ATOM     15  N   UNL     1       5.905   4.715  14.548  0.00  0.00    +0.000 N 
ATOM     16  H   UNL     1       5.184   5.384  14.311  0.00  0.00    +0.000 HD
BRANCH  15  17
ATOM     17  C   UNL     1       6.219   3.704  13.585  0.00  0.00    +0.000 C 
ATOM     18  C   UNL     1       5.420   3.547  12.321  0.00  0.00    +0.000 C 
ATOM     19  C   UNL     1       6.822   4.076  12.258  0.00  0.00    +0.000 C 
ENDBRANCH  15  17
ENDBRANCH   1  13
BRANCH   1  21
ATOM     20  C   UNL     1       7.731   7.878  17.717  0.00  0.00    +0.000 C 
ATOM     21  C   UNL     1       7.381   6.393  17.610  0.00  0.00    +0.000 C 
ATOM     22  C   UNL     1       7.080   5.823  19.001  0.00  0.00    +0.000 C 
ENDBRANCH   1  21
TORSDOF 4
ENDMDL
MODEL 2
REMARK VINA RESULT:      -7.6      3.129      5.917
REMARK  Name = 
REMARK  6 active torsions:
REMARK  status: ('A' for Active; 'I' for Inactive)
REMARK    1  A    between atoms: C_1  and  C_2
REMARK    2  A    between atoms: C_2  and  C_3
REMARK    3  A    between atoms: C_2  and  C_4
REMARK    4  A    between atoms: C_4  and  C_5
REMARK    5  A    between atoms: C_4  and  N_11
REMARK    6  A    between atoms: N_7  and  C_8
REMARK                            x       y       z     vdW  Elec       q    Type
REMARK                         _______ _______ _______ _____ _____    ______ ____
ROOT
ATOM      1  C   UNL     1       2.949   4.674  18.638  0.00  0.00    +0.000 C 
ENDROOT
BRANCH   1   2
ATOM      2  N   UNL     1       4.394   4.676  18.405  0.00  0.00    +0.000 N 
ATOM      3  C   UNL     1       5.364   4.889  19.351  0.00  0.00    +0.000 A 
ATOM      4  N   UNL     1       6.562   4.977  18.824  0.00  0.00    +0.000 NA
ATOM      5  C   UNL     1       6.380   4.821  17.483  0.00  0.00    +0.000 A 
ATOM      6  C   UNL     1       7.338   4.881  16.456  0.00  0.00    +0.000 A 
ATOM      7  C   UNL     1       6.913   4.663  15.150  0.00  0.00    +0.000 A 
ATOM      8  F   UNL     1       7.812   4.725  14.156  0.00  0.00    +0.000 F 
ATOM      9  C   UNL     1       5.581   4.381  14.864  0.00  0.00    +0.000 A 
ATOM     10  F   UNL     1       5.211   4.151  13.596  0.00  0.00    +0.000 F 
ATOM     11  C   UNL     1       4.605   4.337  15.866  0.00  0.00    +0.000 A 
ATOM     12  C   UNL     1       5.036   4.581  17.180  0.00  0.00    +0.000 A 
ENDBRANCH   1   2
BRANCH   1  13
ATOM     13  C   UNL     1       2.460   6.001  19.248  0.00  0.00    +0.000 C 
ATOM     14  O   UNL     1       1.989   6.092  20.381  0.00  0.00    +0.000 OA
ATOM     15  N   UNL     1       2.513   7.084  18.386  0.00  0.00    +0.000 N 
ATOM     16  H   UNL     1       2.845   6.965  17.436  0.00  0.00    +0.000 HD
BRANCH  15  17
ATOM     17  C   UNL     1       1.963   8.355  18.746  0.00  0.00    +0.000 C 
ATOM     18  C   UNL     1       2.262   9.595  17.950  0.00  0.00    +0.000 C 
ATOM     19  C   UNL     1       0.891   8.988  17.903  0.00  0.00    +0.000 C 
ENDBRANCH  15  17
ENDBRANCH   1  13
BRANCH   1  21
ATOM     20  C   UNL     1       0.922   3.159  19.089  0.00  0.00    +0.000 C 
ATOM     21  C   UNL     1       2.379   3.466  19.441  0.00  0.00    +0.000 C 
ATOM     22  C   UNL     1       3.221   2.188  19.354  0.00  0.00    +0.000 C 
ENDBRANCH   1  21
TORSDOF 4
ENDMDL
MODEL 3
REMARK VINA RESULT:      -7.5      3.214      6.350
REMARK  Name = 
REMARK  6 active torsions:
REMARK  status: ('A' for Active; 'I' for Inactive)
REMARK    1  A    between atoms: C_1  and  C_2
REMARK    2  A    between atoms: C_2  and  C_3
REMARK    3  A    between atoms: C_2  and  C_4
REMARK    4  A    between atoms: C_4  and  C_5
REMARK    5  A    between atoms: C_4  and  N_11
REMARK    6  A    between atoms: N_7  and  C_8
REMARK                            x       y       z     vdW  Elec       q    Type
REMARK                         _______ _______ _______ _____ _____    ______ ____
ROOT
ATOM      1  C   UNL     1       2.962   4.320  18.992  0.00  0.00    +0.000 C 
ENDROOT
BRANCH   1   2
ATOM      2  N   UNL     1       4.395   4.409  18.701  0.00  0.00    +0.000 N 
ATOM      3  C   UNL     1       5.394   4.609  19.618  0.00  0.00    +0.000 A 
ATOM      4  N   UNL     1       6.562   4.791  19.049  0.00  0.00    +0.000 NA
ATOM      5  C   UNL     1       6.329   4.712  17.710  0.00  0.00    +0.000 A 
ATOM      6  C   UNL     1       7.236   4.886  16.650  0.00  0.00    +0.000 A 
ATOM      7  C   UNL     1       6.765   4.730  15.351  0.00  0.00    +0.000 A 
ATOM      8  F   UNL     1       7.614   4.901  14.327  0.00  0.00    +0.000 F 
ATOM      9  C   UNL     1       5.435   4.401  15.102  0.00  0.00    +0.000 A 
ATOM     10  F   UNL     1       5.021   4.234  13.838  0.00  0.00    +0.000 F 
ATOM     11  C   UNL     1       4.508   4.243  16.138  0.00  0.00    +0.000 A 
ATOM     12  C   UNL     1       4.986   4.424  17.447  0.00  0.00    +0.000 A 
ENDBRANCH   1   2
BRANCH   1  13
ATOM     13  C   UNL     1       2.556   5.220  20.173  0.00  0.00    +0.000 C 
ATOM     14  O   UNL     1       2.292   4.787  21.294  0.00  0.00    +0.000 OA
ATOM     15  N   UNL     1       2.426   6.562  19.855  0.00  0.00    +0.000 N 
ATOM     16  H   UNL     1       2.587   6.880  18.907  0.00  0.00    +0.000 HD
BRANCH  15  17
ATOM     17  C   UNL     1       1.916   7.509  20.798  0.00  0.00    +0.000 C 
ATOM     18  C   UNL     1       1.263   8.788  20.354  0.00  0.00    +0.000 C 
ATOM     19  C   UNL     1       0.434   7.698  20.964  0.00  0.00    +0.000 C 
ENDBRANCH  15  17
ENDBRANCH   1  13
BRANCH   1  21
ATOM     20  C   UNL     1       0.946   2.759  18.672  0.00  0.00    +0.000 C 
ATOM     21  C   UNL     1       2.383   2.885  19.180  0.00  0.00    +0.000 C 
ATOM     22  C   UNL     1       3.249   1.765  18.591  0.00  0.00    +0.000 C 
ENDBRANCH   1  21
TORSDOF 4
ENDMDL
MODEL 4
REMARK VINA RESULT:      -7.5      2.125      2.753
REMARK  Name = 
REMARK  6 active torsions:
REMARK  status: ('A' for Active; 'I' for Inactive)
REMARK    1  A    between atoms: C_1  and  C_2
REMARK    2  A    between atoms: C_2  and  C_3
REMARK    3  A    between atoms: C_2  and  C_4
REMARK    4  A    between atoms: C_4  and  C_5
REMARK    5  A    between atoms: C_4  and  N_11
REMARK    6  A    between atoms: N_7  and  C_8
REMARK                            x       y       z     vdW  Elec       q    Type
REMARK                         _______ _______ _______ _____ _____    ______ ____
ROOT
ATOM      1  C   UNL     1       6.262   5.798  17.068  0.00  0.00    +0.000 C 
ENDROOT
BRANCH   1   2
ATOM      2  N   UNL     1       5.496   5.140  18.128  0.00  0.00    +0.000 N 
ATOM      3  C   UNL     1       5.719   3.881  18.623  0.00  0.00    +0.000 A 
ATOM      4  N   UNL     1       4.785   3.504  19.463  0.00  0.00    +0.000 NA
ATOM      5  C   UNL     1       3.912   4.547  19.525  0.00  0.00    +0.000 A 
ATOM      6  C   UNL     1       2.707   4.640  20.244  0.00  0.00    +0.000 A 
ATOM      7  C   UNL     1       1.990   5.829  20.170  0.00  0.00    +0.000 A 
ATOM      8  F   UNL     1       0.834   5.933  20.842  0.00  0.00    +0.000 F 
ATOM      9  C   UNL     1       2.453   6.905  19.418  0.00  0.00    +0.000 A 
ATOM     10  F   UNL     1       1.749   8.045  19.390  0.00  0.00    +0.000 F 
ATOM     11  C   UNL     1       3.638   6.830  18.677  0.00  0.00    +0.000 A 
ATOM     12  C   UNL     1       4.346   5.618  18.737  0.00  0.00    +0.000 A 
ENDBRANCH   1   2
BRANCH   1  13
ATOM     13  C   UNL     1       6.752   4.798  16.004  0.00  0.00    +0.000 C 
ATOM     14  O   UNL     1       7.913   4.395  15.937  0.00  0.00    +0.000 OA
ATOM     15  N   UNL     1       5.798   4.446  15.063  0.00  0.00    +0.000 N 
ATOM     16  H   UNL     1       4.868   4.845  15.105  0.00  0.00    +0.000 HD
BRANCH  15  17
ATOM     17  C   UNL     1       6.128   3.643  13.926  0.00  0.00    +0.000 C 
ATOM     18  C   UNL     1       5.332   3.718  12.652  0.00  0.00    +0.000 C 
ATOM     19  C   UNL     1       6.726   4.270  12.697  0.00  0.00    +0.000 C 
ENDBRANCH  15  17
ENDBRANCH   1  13
BRANCH   1  21
ATOM     20  C   UNL     1       7.087   8.203  17.444  0.00  0.00    +0.000 C 
ATOM     21  C   UNL     1       7.435   6.716  17.529  0.00  0.00    +0.000 C 
ATOM     22  C   UNL     1       7.995   6.385  18.917  0.00  0.00    +0.000 C 
ENDBRANCH   1  21
TORSDOF 4
ENDMDL
MODEL 5
REMARK VINA RESULT:      -7.4      3.261      6.356
REMARK  Name = 
REMARK  6 active torsions:
REMARK  status: ('A' for Active; 'I' for Inactive)
REMARK    1  A    between atoms: C_1  and  C_2
REMARK    2  A    between atoms: C_2  and  C_3
REMARK    3  A    between atoms: C_2  and  C_4
REMARK    4  A    between atoms: C_4  and  C_5
REMARK    5  A    between atoms: C_4  and  N_11
REMARK    6  A    between atoms: N_7  and  C_8
REMARK                            x       y       z     vdW  Elec       q    Type
REMARK                         _______ _______ _______ _____ _____    ______ ____
ROOT
ATOM      1  C   UNL     1       2.910   4.943  19.009  0.00  0.00    +0.000 C 
ENDROOT
BRANCH   1   2
ATOM      2  N   UNL     1       4.349   4.885  18.749  0.00  0.00    +0.000 N 
ATOM      3  C   UNL     1       5.345   5.104  19.666  0.00  0.00    +0.000 A 
ATOM      4  N   UNL     1       6.534   5.129  19.113  0.00  0.00    +0.000 NA
ATOM      5  C   UNL     1       6.319   4.924  17.784  0.00  0.00    +0.000 A 
ATOM      6  C   UNL     1       7.258   4.908  16.736  0.00  0.00    +0.000 A 
ATOM      7  C   UNL     1       6.798   4.651  15.449  0.00  0.00    +0.000 A 
ATOM      8  F   UNL     1       7.678   4.641  14.437  0.00  0.00    +0.000 F 
ATOM      9  C   UNL     1       5.452   4.403  15.201  0.00  0.00    +0.000 A 
ATOM     10  F   UNL     1       5.048   4.134  13.951  0.00  0.00    +0.000 F 
ATOM     11  C   UNL     1       4.496   4.434  16.223  0.00  0.00    +0.000 A 
ATOM     12  C   UNL     1       4.962   4.717  17.517  0.00  0.00    +0.000 A 
ENDBRANCH   1   2
BRANCH   1  13
ATOM     13  C   UNL     1       2.388   6.391  19.054  0.00  0.00    +0.000 C 
ATOM     14  O   UNL     1       2.308   7.113  18.062  0.00  0.00    +0.000 OA
ATOM     15  N   UNL     1       2.089   6.855  20.326  0.00  0.00    +0.000 N 
ATOM     16  H   UNL     1       2.227   6.258  21.132  0.00  0.00    +0.000 HD
BRANCH  15  17
ATOM     17  C   UNL     1       1.733   8.220  20.559  0.00  0.00    +0.000 C 
ATOM     18  C   UNL     1       0.339   8.610  20.968  0.00  0.00    +0.000 C 
ATOM     19  C   UNL     1       1.464   8.710  21.956  0.00  0.00    +0.000 C 
ENDBRANCH  15  17
ENDBRANCH   1  13
BRANCH   1  21
ATOM     20  C   UNL     1       0.885   3.919  20.218  0.00  0.00    +0.000 C 
ATOM     21  C   UNL     1       2.398   4.144  20.247  0.00  0.00    +0.000 C 
ATOM     22  C   UNL     1       3.123   2.816  20.493  0.00  0.00    +0.000 C 
ENDBRANCH   1  21
TORSDOF 4
ENDMDL
MODEL 6
REMARK VINA RESULT:      -7.4      1.628      2.314
REMARK  Name = 
REMARK  6 active torsions:
REMARK  status: ('A' for Active; 'I' for Inactive)
REMARK    1  A    between atoms: C_1  and  C_2
REMARK    2  A    between atoms: C_2  and  C_3
REMARK    3  A    between atoms: C_2  and  C_4
REMARK    4  A    between atoms: C_4  and  C_5
REMARK    5  A    between atoms: C_4  and  N_11
REMARK    6  A    between atoms: N_7  and  C_8
REMARK                            x       y       z     vdW  Elec       q    Type
REMARK                         _______ _______ _______ _____ _____    ______ ____
ROOT
ATOM      1  C   UNL     1       5.972   5.433  17.576  0.00  0.00    +0.000 C 
ENDROOT
BRANCH   1   2
ATOM      2  N   UNL     1       5.213   4.517  18.429  0.00  0.00    +0.000 N 
ATOM      3  C   UNL     1       5.733   3.705  19.405  0.00  0.00    +0.000 A 
ATOM      4  N   UNL     1       4.835   2.889  19.904  0.00  0.00    +0.000 NA
ATOM      5  C   UNL     1       3.682   3.166  19.233  0.00  0.00    +0.000 A 
ATOM      6  C   UNL     1       2.429   2.540  19.349  0.00  0.00    +0.000 A 
ATOM      7  C   UNL     1       1.382   3.019  18.568  0.00  0.00    +0.000 A 
ATOM      8  F   UNL     1       0.182   2.428  18.659  0.00  0.00    +0.000 F 
ATOM      9  C   UNL     1       1.562   4.095  17.704  0.00  0.00    +0.000 A 
ATOM     10  F   UNL     1       0.525   4.547  16.985  0.00  0.00    +0.000 F 
ATOM     11  C   UNL     1       2.805   4.721  17.555  0.00  0.00    +0.000 A 
ATOM     12  C   UNL     1       3.864   4.218  18.329  0.00  0.00    +0.000 A 
ENDBRANCH   1   2
BRANCH   1  13
ATOM     13  C   UNL     1       6.778   4.686  16.498  0.00  0.00    +0.000 C 
ATOM     14  O   UNL     1       7.948   4.336  16.647  0.00  0.00    +0.000 OA
ATOM     15  N   UNL     1       6.106   4.507  15.299  0.00  0.00    +0.000 N 
ATOM     16  H   UNL     1       5.165   4.864  15.183  0.00  0.00    +0.000 HD
BRANCH  15  17
ATOM     17  C   UNL     1       6.759   3.963  14.149  0.00  0.00    +0.000 C 
ATOM     18  C   UNL     1       6.011   3.698  12.871  0.00  0.00    +0.000 C 
ATOM     19  C   UNL     1       7.008   4.817  12.937  0.00  0.00    +0.000 C 
ENDBRANCH  15  17
ENDBRANCH   1  13
BRANCH   1  21
ATOM     20  C   UNL     1       7.937   5.805  19.192  0.00  0.00    +0.000 C 
ATOM     21  C   UNL     1       6.879   6.469  18.309  0.00  0.00    +0.000 C 
ATOM     22  C   UNL     1       7.536   7.505  17.389  0.00  0.00    +0.000 C 
ENDBRANCH   1  21
TORSDOF 4
ENDMDL
MODEL 7
REMARK VINA RESULT:      -7.4      1.788      2.615
REMARK  Name = 
REMARK  6 active torsions:
REMARK  status: ('A' for Active; 'I' for Inactive)
REMARK    1  A    between atoms: C_1  and  C_2
REMARK    2  A    between atoms: C_2  and  C_3
REMARK    3  A    between atoms: C_2  and  C_4
REMARK    4  A    between atoms: C_4  and  C_5
REMARK    5  A    between atoms: C_4  and  N_11
REMARK    6  A    between atoms: N_7  and  C_8
REMARK                            x       y       z     vdW  Elec       q    Type
REMARK                         _______ _______ _______ _____ _____    ______ ____
ROOT
ATOM      1  C   UNL     1       5.870   5.597  16.948  0.00  0.00    +0.000 C 
ENDROOT
BRANCH   1   2
ATOM      2  N   UNL     1       4.908   4.616  17.453  0.00  0.00    +0.000 N 
ATOM      3  C   UNL     1       4.796   3.311  17.045  0.00  0.00    +0.000 A 
ATOM      4  N   UNL     1       3.751   2.714  17.568  0.00  0.00    +0.000 NA
ATOM      5  C   UNL     1       3.148   3.656  18.346  0.00  0.00    +0.000 A 
ATOM      6  C   UNL     1       1.959   3.549  19.088  0.00  0.00    +0.000 A 
ATOM      7  C   UNL     1       1.551   4.650  19.833  0.00  0.00    +0.000 A 
ATOM      8  F   UNL     1       0.415   4.569  20.541  0.00  0.00    +0.000 F 
ATOM      9  C   UNL     1       2.300   5.823  19.856  0.00  0.00    +0.000 A 
ATOM     10  F   UNL     1       1.890   6.856  20.606  0.00  0.00    +0.000 F 
ATOM     11  C   UNL     1       3.475   5.961  19.109  0.00  0.00    +0.000 A 
ATOM     12  C   UNL     1       3.871   4.854  18.340  0.00  0.00    +0.000 A 
ENDBRANCH   1   2
BRANCH   1  13
ATOM     13  C   UNL     1       6.896   4.962  15.991  0.00  0.00    +0.000 C 
ATOM     14  O   UNL     1       7.952   4.457  16.368  0.00  0.00    +0.000 OA
ATOM     15  N   UNL     1       6.576   5.077  14.647  0.00  0.00    +0.000 N 
ATOM     16  H   UNL     1       5.730   5.556  14.363  0.00  0.00    +0.000 HD
BRANCH  15  17
ATOM     17  C   UNL     1       7.488   4.670  13.623  0.00  0.00    +0.000 C 
ATOM     18  C   UNL     1       7.019   4.360  12.229  0.00  0.00    +0.000 C 
ATOM     19  C   UNL     1       7.824   5.598  12.489  0.00  0.00    +0.000 C 
ENDBRANCH  15  17
ENDBRANCH   1  13
BRANCH   1  21
ATOM     20  C   UNL     1       7.284   5.628  19.094  0.00  0.00    +0.000 C 
ATOM     21  C   UNL     1       6.595   6.469  18.017  0.00  0.00    +0.000 C 
ATOM     22  C   UNL     1       7.578   7.496  17.444  0.00  0.00    +0.000 C 
ENDBRANCH   1  21
TORSDOF 4
ENDMDL
MODEL 8
REMARK VINA RESULT:      -7.3      2.785      5.841
REMARK  Name = 
REMARK  6 active torsions:
REMARK  status: ('A' for Active; 'I' for Inactive)
REMARK    1  A    between atoms: C_1  and  C_2
REMARK    2  A    between atoms: C_2  and  C_3
REMARK    3  A    between atoms: C_2  and  C_4
REMARK    4  A    between atoms: C_4  and  C_5
REMARK    5  A    between atoms: C_4  and  N_11
REMARK    6  A    between atoms: N_7  and  C_8
REMARK                            x       y       z     vdW  Elec       q    Type
REMARK                         _______ _______ _______ _____ _____    ______ ____
ROOT
ATOM      1  C   UNL     1       4.332   5.432  18.724  0.00  0.00    +0.000 C 
ENDROOT
BRANCH   1   2
ATOM      2  N   UNL     1       5.593   5.427  17.980  0.00  0.00    +0.000 N 
ATOM      3  C   UNL     1       6.802   5.885  18.438  0.00  0.00    +0.000 A 
ATOM      4  N   UNL     1       7.720   5.888  17.502  0.00  0.00    +0.000 NA
ATOM      5  C   UNL     1       7.099   5.421  16.384  0.00  0.00    +0.000 A 
ATOM      6  C   UNL     1       7.621   5.273  15.087  0.00  0.00    +0.000 A 
ATOM      7  C   UNL     1       6.793   4.744  14.103  0.00  0.00    +0.000 A 
ATOM      8  F   UNL     1       7.272   4.604  12.858  0.00  0.00    +0.000 F 
ATOM      9  C   UNL     1       5.487   4.360  14.391  0.00  0.00    +0.000 A 
ATOM     10  F   UNL     1       4.724   3.831  13.423  0.00  0.00    +0.000 F 
ATOM     11  C   UNL     1       4.937   4.517  15.668  0.00  0.00    +0.000 A 
ATOM     12  C   UNL     1       5.771   5.072  16.652  0.00  0.00    +0.000 A 
ENDBRANCH   1   2
BRANCH   1  13
ATOM     13  C   UNL     1       3.996   4.045  19.301  0.00  0.00    +0.000 C 
ATOM     14  O   UNL     1       4.391   2.991  18.806  0.00  0.00    +0.000 OA
ATOM     15  N   UNL     1       3.135   4.069  20.387  0.00  0.00    +0.000 N 
ATOM     16  H   UNL     1       2.773   4.949  20.733  0.00  0.00    +0.000 HD
BRANCH  15  17
ATOM     17  C   UNL     1       2.608   2.864  20.951  0.00  0.00    +0.000 C 
ATOM     18  C   UNL     1       1.317   2.854  21.722  0.00  0.00    +0.000 C 
ATOM     19  C   UNL     1       1.383   2.219  20.364  0.00  0.00    +0.000 C 
ENDBRANCH  15  17
ENDBRANCH   1  13
BRANCH   1  21
ATOM     20  C   UNL     1       1.961   5.010  17.826  0.00  0.00    +0.000 C 
ATOM     21  C   UNL     1       3.095   6.024  17.982  0.00  0.00    +0.000 C 
ATOM     22  C   UNL     1       2.555   7.328  18.582  0.00  0.00    +0.000 C 
ENDBRANCH   1  21
TORSDOF 4
ENDMDL
MODEL 9
REMARK VINA RESULT:      -7.3      3.008      5.718
REMARK  Name = 
REMARK  6 active torsions:
REMARK  status: ('A' for Active; 'I' for Inactive)
REMARK    1  A    between atoms: C_1  and  C_2
REMARK    2  A    between atoms: C_2  and  C_3
REMARK    3  A    between atoms: C_2  and  C_4
REMARK    4  A    between atoms: C_4  and  C_5
REMARK    5  A    between atoms: C_4  and  N_11
REMARK    6  A    between atoms: N_7  and  C_8
REMARK                            x       y       z     vdW  Elec       q    Type
REMARK                         _______ _______ _______ _____ _____    ______ ____
ROOT
ATOM      1  C   UNL     1       3.111   4.054  18.906  0.00  0.00    +0.000 C 
ENDROOT
BRANCH   1   2
ATOM      2  N   UNL     1       4.524   4.313  18.621  0.00  0.00    +0.000 N 
ATOM      3  C   UNL     1       5.479   4.674  19.537  0.00  0.00    +0.000 A 
ATOM      4  N   UNL     1       6.621   4.981  18.969  0.00  0.00    +0.000 NA
ATOM      5  C   UNL     1       6.415   4.822  17.632  0.00  0.00    +0.000 A 
ATOM      6  C   UNL     1       7.306   5.068  16.573  0.00  0.00    +0.000 A 
ATOM      7  C   UNL     1       6.873   4.804  15.278  0.00  0.00    +0.000 A 
ATOM      8  F   UNL     1       7.707   5.042  14.254  0.00  0.00    +0.000 F 
ATOM      9  C   UNL     1       5.600   4.299  15.033  0.00  0.00    +0.000 A 
ATOM     10  F   UNL     1       5.225   4.032  13.773  0.00  0.00    +0.000 F 
ATOM     11  C   UNL     1       4.688   4.065  16.068  0.00  0.00    +0.000 A 
ATOM     12  C   UNL     1       5.123   4.355  17.372  0.00  0.00    +0.000 A 
ENDBRANCH   1   2
BRANCH   1  13
ATOM     13  C   UNL     1       2.191   5.125  18.292  0.00  0.00    +0.000 C 
ATOM     14  O   UNL     1       1.296   4.869  17.488  0.00  0.00    +0.000 OA
ATOM     15  N   UNL     1       2.505   6.426  18.651  0.00  0.00    +0.000 N 
ATOM     16  H   UNL     1       3.289   6.612  19.264  0.00  0.00    +0.000 HD
BRANCH  15  17
ATOM     17  C   UNL     1       1.843   7.547  18.057  0.00  0.00    +0.000 C 
ATOM     18  C   UNL     1       1.631   8.828  18.815  0.00  0.00    +0.000 C 
ATOM     19  C   UNL     1       2.618   8.781  17.686  0.00  0.00    +0.000 C 
ENDBRANCH  15  17
ENDBRANCH   1  13
BRANCH   1  21
ATOM     20  C   UNL     1       1.248   4.011  20.677  0.00  0.00    +0.000 C 
ATOM     21  C   UNL     1       2.740   3.815  20.401  0.00  0.00    +0.000 C 
ATOM     22  C   UNL     1       3.206   2.468  20.967  0.00  0.00    +0.000 C 
ENDBRANCH   1  21
TORSDOF 4
ENDMDL
