MODEL 1
REMARK VINA RESULT:      -7.1      0.000      0.000
REMARK  Name = 
REMARK  5 active torsions:
REMARK  status: ('A' for Active; 'I' for Inactive)
REMARK    1  A    between atoms: C_1  and  C_2
REMARK    2  A    between atoms: C_2  and  C_3
REMARK    3  A    between atoms: C_2  and  N_9
REMARK    4  A    between atoms: C_10  and  S_11
REMARK    5  A    between atoms: C_14  and  C_15
REMARK                            x       y       z     vdW  Elec       q    Type
REMARK                         _______ _______ _______ _____ _____    ______ ____
ROOT
ATOM      1  N   UNL     1       3.159   3.413  19.458  0.00  0.00    +0.000 N 
ATOM      2  C   UNL     1       3.128   2.775  20.679  0.00  0.00    +0.000 A 
ATOM      3  N   UNL     1       4.291   2.231  20.934  0.00  0.00    +0.000 NA
ATOM      4  N   UNL     1       5.129   2.551  19.910  0.00  0.00    +0.000 NA
ATOM      5  C   UNL     1       4.484   3.289  19.011  0.00  0.00    +0.000 A 
ENDROOT
BRANCH   5   6
ATOM      6  C   UNL     1       5.160   3.795  17.795  0.00  0.00    +0.000 A 
ATOM      7  C   UNL     1       6.421   4.407  17.947  0.00  0.00    +0.000 A 
ATOM      8  C   UNL     1       7.140   4.902  16.849  0.00  0.00    +0.000 A 
ATOM      9  C   UNL     1       6.615   4.790  15.571  0.00  0.00    +0.000 A 
ATOM     10 CL   UNL     1       7.490   5.366  14.210  0.00  0.00    +0.000 Cl
ATOM     11  C   UNL     1       5.364   4.216  15.390  0.00  0.00    +0.000 A 
ATOM     12  C   UNL     1       4.642   3.749  16.495  0.00  0.00    +0.000 A 
ENDBRANCH   5   6
BRANCH   1  14
ATOM     13  C   UNL     1       0.698   3.408  18.735  0.00  0.00    +0.000 C 
ATOM     14  C   UNL     1       2.074   4.090  18.743  0.00  0.00    +0.000 C 
BRANCH  14  15
ATOM     15  C   UNL     1       1.984   5.587  19.068  0.00  0.00    +0.000 A 
ATOM     16  C   UNL     1       1.636   6.090  20.335  0.00  0.00    +0.000 A 
ATOM     17  C   UNL     1       1.629   7.467  20.585  0.00  0.00    +0.000 A 
ATOM     18  C   UNL     1       1.963   8.368  19.579  0.00  0.00    +0.000 A 
ATOM     19  C   UNL     1       2.326   7.894  18.323  0.00  0.00    +0.000 A 
ATOM     20  C   UNL     1       2.340   6.519  18.072  0.00  0.00    +0.000 A 
ENDBRANCH  14  15
ENDBRANCH   1  14
BRANCH   2  21
ATOM     21  S   UNL     1       1.803   2.679  21.786  0.00  0.00    +0.000 S 
ATOM     22  H   UNL     1       1.867   3.903  22.322  0.00  0.00    +0.000 HD
ENDBRANCH   2  21
TORSDOF 4
ENDMDL
MODEL 2
REMARK VINA RESULT:      -7.1      0.167      1.054
REMARK  Name = 
REMARK  5 active torsions:
REMARK  status: ('A' for Active; 'I' for Inactive)
REMARK    1  A    between atoms: C_1  and  C_2
REMARK    2  A    between atoms: C_2  and  C_3
REMARK    3  A    between atoms: C_2  and  N_9
REMARK    4  A    between atoms: C_10  and  S_11
REMARK    5  A    between atoms: C_14  and  C_15
REMARK                            x       y       z     vdW  Elec       q    Type
REMARK                         _______ _______ _______ _____ _____    ______ ____
ROOT
ATOM      1  N   UNL     1       3.173   3.432  19.450  0.00  0.00    +0.000 N 
ATOM      2  C   UNL     1       3.047   2.791  20.663  0.00  0.00    +0.000 A 
ATOM      3  N   UNL     1       4.187   2.251  21.009  0.00  0.00    +0.000 NA
ATOM      4  N   UNL     1       5.104   2.576  20.057  0.00  0.00    +0.000 NA
ATOM      5  C   UNL     1       4.531   3.313  19.111  0.00  0.00    +0.000 A 
ENDROOT
BRANCH   5   6
ATOM      6  C   UNL     1       5.300   3.824  17.953  0.00  0.00    +0.000 A 
ATOM      7  C   UNL     1       4.795   3.570  16.662  0.00  0.00    +0.000 A 
ATOM      8  C   UNL     1       5.449   4.028  15.508  0.00  0.00    +0.000 A 
ATOM      9  C   UNL     1       6.622   4.757  15.623  0.00  0.00    +0.000 A 
ATOM     10 CL   UNL     1       7.425   5.350  14.225  0.00  0.00    +0.000 Cl
ATOM     11  C   UNL     1       7.160   5.003  16.879  0.00  0.00    +0.000 A 
ATOM     12  C   UNL     1       6.513   4.518  18.022  0.00  0.00    +0.000 A 
ENDBRANCH   5   6
BRANCH   1  14
ATOM     13  C   UNL     1       0.769   3.436  18.558  0.00  0.00    +0.000 C 
ATOM     14  C   UNL     1       2.147   4.107  18.650  0.00  0.00    +0.000 C 
BRANCH  14  15
ATOM     15  C   UNL     1       2.048   5.609  18.946  0.00  0.00    +0.000 A 
ATOM     16  C   UNL     1       1.770   6.136  20.220  0.00  0.00    +0.000 A 
ATOM     17  C   UNL     1       1.752   7.519  20.438  0.00  0.00    +0.000 A 
ATOM     18  C   UNL     1       2.006   8.401  19.392  0.00  0.00    +0.000 A 
ATOM     19  C   UNL     1       2.301   7.902  18.128  0.00  0.00    +0.000 A 
ATOM     20  C   UNL     1       2.325   6.523  17.908  0.00  0.00    +0.000 A 
ENDBRANCH  14  15
ENDBRANCH   1  14
BRANCH   2  21
ATOM     21  S   UNL     1       1.636   2.688  21.659  0.00  0.00    +0.000 S 
ATOM     22  H   UNL     1       2.084   1.845  22.597  0.00  0.00    +0.000 HD
ENDBRANCH   2  21
TORSDOF 4
ENDMDL
MODEL 3
REMARK VINA RESULT:      -7.1      0.096      1.054
REMARK  Name = 
REMARK  5 active torsions:
REMARK  status: ('A' for Active; 'I' for Inactive)
REMARK    1  A    between atoms: C_1  and  C_2
REMARK    2  A    between atoms: C_2  and  C_3
REMARK    3  A    between atoms: C_2  and  N_9
REMARK    4  A    between atoms: C_10  and  S_11
REMARK    5  A    between atoms: C_14  and  C_15
REMARK                            x       y       z     vdW  Elec       q    Type
REMARK                         _______ _______ _______ _____ _____    ______ ____
ROOT
ATOM      1  N   UNL     1       3.183   3.427  19.411  0.00  0.00    +0.000 N 
ATOM      2  C   UNL     1       3.151   2.776  20.624  0.00  0.00    +0.000 A 
ATOM      3  N   UNL     1       4.304   2.204  20.861  0.00  0.00    +0.000 NA
ATOM      4  N   UNL     1       5.139   2.517  19.832  0.00  0.00    +0.000 NA
ATOM      5  C   UNL     1       4.501   3.279  18.949  0.00  0.00    +0.000 A 
ENDROOT
BRANCH   5   6
ATOM      6  C   UNL     1       5.175   3.785  17.731  0.00  0.00    +0.000 A 
ATOM      7  C   UNL     1       6.487   4.284  17.863  0.00  0.00    +0.000 A 
ATOM      8  C   UNL     1       7.208   4.770  16.761  0.00  0.00    +0.000 A 
ATOM      9  C   UNL     1       6.632   4.760  15.501  0.00  0.00    +0.000 A 
ATOM     10 CL   UNL     1       7.507   5.326  14.135  0.00  0.00    +0.000 Cl
ATOM     11  C   UNL     1       5.333   4.298  15.341  0.00  0.00    +0.000 A 
ATOM     12  C   UNL     1       4.613   3.841  16.451  0.00  0.00    +0.000 A 
ENDBRANCH   5   6
BRANCH   1  14
ATOM     13  C   UNL     1       0.703   3.513  18.764  0.00  0.00    +0.000 C 
ATOM     14  C   UNL     1       2.106   4.135  18.714  0.00  0.00    +0.000 C 
BRANCH  14  15
ATOM     15  C   UNL     1       2.090   5.641  19.008  0.00  0.00    +0.000 A 
ATOM     16  C   UNL     1       2.387   6.626  18.048  0.00  0.00    +0.000 A 
ATOM     17  C   UNL     1       2.297   7.987  18.362  0.00  0.00    +0.000 A 
ATOM     18  C   UNL     1       1.915   8.392  19.637  0.00  0.00    +0.000 A 
ATOM     19  C   UNL     1       1.600   7.437  20.597  0.00  0.00    +0.000 A 
ATOM     20  C   UNL     1       1.683   6.078  20.285  0.00  0.00    +0.000 A 
ENDBRANCH  14  15
ENDBRANCH   1  14
BRANCH   2  21
ATOM     21  S   UNL     1       1.834   2.695  21.743  0.00  0.00    +0.000 S 
ATOM     22  H   UNL     1       2.478   3.017  22.871  0.00  0.00    +0.000 HD
ENDBRANCH   2  21
TORSDOF 4
ENDMDL
MODEL 4
REMARK VINA RESULT:      -7.0      1.667      2.460
REMARK  Name = 
REMARK  5 active torsions:
REMARK  status: ('A' for Active; 'I' for Inactive)
REMARK    1  A    between atoms: C_1  and  C_2
REMARK    2  A    between atoms: C_2  and  C_3
REMARK    3  A    between atoms: C_2  and  N_9
REMARK    4  A    between atoms: C_10  and  S_11
REMARK    5  A    between atoms: C_14  and  C_15
REMARK                            x       y       z     vdW  Elec       q    Type
REMARK                         _______ _______ _______ _____ _____    ______ ____
ROOT
ATOM      1  N   UNL     1       2.917   4.332  18.679  0.00  0.00    +0.000 N 
ATOM      2  C   UNL     1       1.859   3.527  19.042  0.00  0.00    +0.000 A 
ATOM      3  N   UNL     1       1.544   2.723  18.059  0.00  0.00    +0.000 NA
ATOM      4  N   UNL     1       2.429   2.942  17.048  0.00  0.00    +0.000 NA
ATOM      5  C   UNL     1       3.291   3.892  17.399  0.00  0.00    +0.000 A 
ENDROOT
BRANCH   5   6
ATOM      6  C   UNL     1       4.380   4.325  16.494  0.00  0.00    +0.000 A 
ATOM      7  C   UNL     1       5.290   3.347  16.043  0.00  0.00    +0.000 A 
ATOM      8  C   UNL     1       6.344   3.663  15.171  0.00  0.00    +0.000 A 
ATOM      9  C   UNL     1       6.505   4.966  14.727  0.00  0.00    +0.000 A 
ATOM     10 CL   UNL     1       7.772   5.369  13.640  0.00  0.00    +0.000 Cl
ATOM     11  C   UNL     1       5.641   5.957  15.172  0.00  0.00    +0.000 A 
ATOM     12  C   UNL     1       4.610   5.636  16.063  0.00  0.00    +0.000 A 
ENDBRANCH   5   6
BRANCH   1  14
ATOM     13  C   UNL     1       5.080   5.530  19.359  0.00  0.00    +0.000 C 
ATOM     14  C   UNL     1       3.550   5.420  19.430  0.00  0.00    +0.000 C 
BRANCH  14  15
ATOM     15  C   UNL     1       2.856   6.772  19.227  0.00  0.00    +0.000 A 
ATOM     16  C   UNL     1       2.913   7.506  18.027  0.00  0.00    +0.000 A 
ATOM     17  C   UNL     1       2.207   8.707  17.884  0.00  0.00    +0.000 A 
ATOM     18  C   UNL     1       1.437   9.201  18.932  0.00  0.00    +0.000 A 
ATOM     19  C   UNL     1       1.351   8.484  20.121  0.00  0.00    +0.000 A 
ATOM     20  C   UNL     1       2.049   7.282  20.265  0.00  0.00    +0.000 A 
ENDBRANCH  14  15
ENDBRANCH   1  14
BRANCH   2  21
ATOM     21  S   UNL     1       1.027   3.500  20.558  0.00  0.00    +0.000 S 
ATOM     22  H   UNL     1       0.575   4.759  20.590  0.00  0.00    +0.000 HD
ENDBRANCH   2  21
TORSDOF 4
ENDMDL
MODEL 5
REMARK VINA RESULT:      -6.9      0.235      1.495
REMARK  Name = 
REMARK  5 active torsions:
REMARK  status: ('A' for Active; 'I' for Inactive)
REMARK    1  A    between atoms: C_1  and  C_2
REMARK    2  A    between atoms: C_2  and  C_3
REMARK    3  A    between atoms: C_2  and  N_9
REMARK    4  A    between atoms: C_10  and  S_11
REMARK    5  A    between atoms: C_14  and  C_15
REMARK                            x       y       z     vdW  Elec       q    Type
REMARK                         _______ _______ _______ _____ _____    ______ ____
ROOT
ATOM      1  N   UNL     1       3.229   3.538  19.288  0.00  0.00    +0.000 N 
ATOM      2  C   UNL     1       3.094   2.881  20.492  0.00  0.00    +0.000 A 
ATOM      3  N   UNL     1       4.215   2.285  20.809  0.00  0.00    +0.000 NA
ATOM      4  N   UNL     1       5.130   2.587  19.847  0.00  0.00    +0.000 NA
ATOM      5  C   UNL     1       4.574   3.366  18.924  0.00  0.00    +0.000 A 
ENDROOT
BRANCH   5   6
ATOM      6  C   UNL     1       5.346   3.865  17.763  0.00  0.00    +0.000 A 
ATOM      7  C   UNL     1       4.832   3.616  16.473  0.00  0.00    +0.000 A 
ATOM      8  C   UNL     1       5.489   4.064  15.316  0.00  0.00    +0.000 A 
ATOM      9  C   UNL     1       6.672   4.777  15.426  0.00  0.00    +0.000 A 
ATOM     10 CL   UNL     1       7.478   5.357  14.024  0.00  0.00    +0.000 Cl
ATOM     11  C   UNL     1       7.218   5.017  16.680  0.00  0.00    +0.000 A 
ATOM     12  C   UNL     1       6.569   4.542  17.826  0.00  0.00    +0.000 A 
ENDBRANCH   5   6
BRANCH   1  14
ATOM     13  C   UNL     1       0.829   3.634  18.390  0.00  0.00    +0.000 C 
ATOM     14  C   UNL     1       2.220   4.271  18.518  0.00  0.00    +0.000 C 
BRANCH  14  15
ATOM     15  C   UNL     1       2.152   5.759  18.884  0.00  0.00    +0.000 A 
ATOM     16  C   UNL     1       2.369   6.800  17.963  0.00  0.00    +0.000 A 
ATOM     17  C   UNL     1       2.233   8.140  18.345  0.00  0.00    +0.000 A 
ATOM     18  C   UNL     1       1.884   8.468  19.651  0.00  0.00    +0.000 A 
ATOM     19  C   UNL     1       1.647   7.456  20.575  0.00  0.00    +0.000 A 
ATOM     20  C   UNL     1       1.776   6.118  20.196  0.00  0.00    +0.000 A 
ENDBRANCH  14  15
ENDBRANCH   1  14
BRANCH   2  21
ATOM     21  S   UNL     1       1.697   2.820  21.510  0.00  0.00    +0.000 S 
ATOM     22  H   UNL     1       1.245   4.068  21.346  0.00  0.00    +0.000 HD
ENDBRANCH   2  21
TORSDOF 4
ENDMDL
MODEL 6
REMARK VINA RESULT:      -6.9      1.630      2.181
REMARK  Name = 
REMARK  5 active torsions:
REMARK  status: ('A' for Active; 'I' for Inactive)
REMARK    1  A    between atoms: C_1  and  C_2
REMARK    2  A    between atoms: C_2  and  C_3
REMARK    3  A    between atoms: C_2  and  N_9
REMARK    4  A    between atoms: C_10  and  S_11
REMARK    5  A    between atoms: C_14  and  C_15
REMARK                            x       y       z     vdW  Elec       q    Type
REMARK                         _______ _______ _______ _____ _____    ______ ____
ROOT
ATOM      1  N   UNL     1       2.911   4.248  18.716  0.00  0.00    +0.000 N 
ATOM      2  C   UNL     1       1.875   3.417  19.084  0.00  0.00    +0.000 A 
ATOM      3  N   UNL     1       1.580   2.602  18.103  0.00  0.00    +0.000 NA
ATOM      4  N   UNL     1       2.457   2.841  17.090  0.00  0.00    +0.000 NA
ATOM      5  C   UNL     1       3.295   3.813  17.437  0.00  0.00    +0.000 A 
ENDROOT
BRANCH   5   6
ATOM      6  C   UNL     1       4.371   4.271  16.529  0.00  0.00    +0.000 A 
ATOM      7  C   UNL     1       5.301   3.313  16.074  0.00  0.00    +0.000 A 
ATOM      8  C   UNL     1       6.345   3.654  15.199  0.00  0.00    +0.000 A 
ATOM      9  C   UNL     1       6.476   4.960  14.756  0.00  0.00    +0.000 A 
ATOM     10 CL   UNL     1       7.731   5.392  13.665  0.00  0.00    +0.000 Cl
ATOM     11  C   UNL     1       5.592   5.932  15.205  0.00  0.00    +0.000 A 
ATOM     12  C   UNL     1       4.571   5.587  16.099  0.00  0.00    +0.000 A 
ENDBRANCH   5   6
BRANCH   1  14
ATOM     13  C   UNL     1       5.039   5.529  19.352  0.00  0.00    +0.000 C 
ATOM     14  C   UNL     1       3.518   5.353  19.463  0.00  0.00    +0.000 C 
BRANCH  14  15
ATOM     15  C   UNL     1       2.761   6.677  19.294  0.00  0.00    +0.000 A 
ATOM     16  C   UNL     1       1.986   7.268  20.309  0.00  0.00    +0.000 A 
ATOM     17  C   UNL     1       1.368   8.508  20.113  0.00  0.00    +0.000 A 
ATOM     18  C   UNL     1       1.505   9.180  18.902  0.00  0.00    +0.000 A 
ATOM     19  C   UNL     1       2.280   8.624  17.890  0.00  0.00    +0.000 A 
ATOM     20  C   UNL     1       2.904   7.389  18.085  0.00  0.00    +0.000 A 
ENDBRANCH  14  15
ENDBRANCH   1  14
BRANCH   2  21
ATOM     21  S   UNL     1       1.045   3.373  20.601  0.00  0.00    +0.000 S 
ATOM     22  H   UNL     1       1.926   4.038  21.358  0.00  0.00    +0.000 HD
ENDBRANCH   2  21
TORSDOF 4
ENDMDL
MODEL 7
REMARK VINA RESULT:      -6.9      3.479      5.692
REMARK  Name = 
REMARK  5 active torsions:
REMARK  status: ('A' for Active; 'I' for Inactive)
REMARK    1  A    between atoms: C_1  and  C_2
REMARK    2  A    between atoms: C_2  and  C_3
REMARK    3  A    between atoms: C_2  and  N_9
REMARK    4  A    between atoms: C_10  and  S_11
REMARK    5  A    between atoms: C_14  and  C_15
REMARK                            x       y       z     vdW  Elec       q    Type
REMARK                         _______ _______ _______ _____ _____    ______ ____
ROOT
ATOM      1  N   UNL     1       3.626   5.417  17.472  0.00  0.00    +0.000 N 
ATOM      2  C   UNL     1       4.854   5.177  16.895  0.00  0.00    +0.000 A 
ATOM      3  N   UNL     1       5.548   6.284  16.831  0.00  0.00    +0.000 NA
ATOM      4  N   UNL     1       4.812   7.266  17.421  0.00  0.00    +0.000 NA
ATOM      5  C   UNL     1       3.653   6.771  17.844  0.00  0.00    +0.000 A 
ENDROOT
BRANCH   5   6
ATOM      6  C   UNL     1       2.657   7.616  18.542  0.00  0.00    +0.000 A 
ATOM      7  C   UNL     1       2.062   8.669  17.816  0.00  0.00    +0.000 A 
ATOM      8  C   UNL     1       1.098   9.511  18.391  0.00  0.00    +0.000 A 
ATOM      9  C   UNL     1       0.702   9.312  19.704  0.00  0.00    +0.000 A 
ATOM     10 CL   UNL     1      -0.496  10.315  20.418  0.00  0.00    +0.000 Cl
ATOM     11  C   UNL     1       1.286   8.300  20.454  0.00  0.00    +0.000 A 
ATOM     12  C   UNL     1       2.267   7.483  19.879  0.00  0.00    +0.000 A 
ENDBRANCH   5   6
BRANCH   1  14
ATOM     13  C   UNL     1       2.273   3.416  16.611  0.00  0.00    +0.000 C 
ATOM     14  C   UNL     1       2.506   4.495  17.679  0.00  0.00    +0.000 C 
BRANCH  14  15
ATOM     15  C   UNL     1       2.449   3.930  19.104  0.00  0.00    +0.000 A 
ATOM     16  C   UNL     1       1.322   4.035  19.940  0.00  0.00    +0.000 A 
ATOM     17  C   UNL     1       1.310   3.446  21.210  0.00  0.00    +0.000 A 
ATOM     18  C   UNL     1       2.421   2.747  21.672  0.00  0.00    +0.000 A 
ATOM     19  C   UNL     1       3.539   2.615  20.857  0.00  0.00    +0.000 A 
ATOM     20  C   UNL     1       3.552   3.196  19.587  0.00  0.00    +0.000 A 
ENDBRANCH  14  15
ENDBRANCH   1  14
BRANCH   2  21
ATOM     21  S   UNL     1       5.476   3.664  16.332  0.00  0.00    +0.000 S 
ATOM     22  H   UNL     1       5.048   3.703  15.065  0.00  0.00    +0.000 HD
ENDBRANCH   2  21
TORSDOF 4
ENDMDL
MODEL 8
REMARK VINA RESULT:      -6.8      2.735      5.528
REMARK  Name = 
REMARK  5 active torsions:
REMARK  status: ('A' for Active; 'I' for Inactive)
REMARK    1  A    between atoms: C_1  and  C_2
REMARK    2  A    between atoms: C_2  and  C_3
REMARK    3  A    between atoms: C_2  and  N_9
REMARK    4  A    between atoms: C_10  and  S_11
REMARK    5  A    between atoms: C_14  and  C_15
REMARK                            x       y       z     vdW  Elec       q    Type
REMARK                         _______ _______ _______ _____ _____    ______ ____
ROOT
ATOM      1  N   UNL     1       3.738   5.016  19.402  0.00  0.00    +0.000 N 
ATOM      2  C   UNL     1       3.463   3.734  19.826  0.00  0.00    +0.000 A 
ATOM      3  N   UNL     1       2.249   3.668  20.309  0.00  0.00    +0.000 NA
ATOM      4  N   UNL     1       1.678   4.895  20.158  0.00  0.00    +0.000 NA
ATOM      5  C   UNL     1       2.543   5.729  19.588  0.00  0.00    +0.000 A 
ENDROOT
BRANCH   5   6
ATOM      6  C   UNL     1       2.184   7.134  19.288  0.00  0.00    +0.000 A 
ATOM      7  C   UNL     1       1.622   7.907  20.326  0.00  0.00    +0.000 A 
ATOM      8  C   UNL     1       1.265   9.250  20.136  0.00  0.00    +0.000 A 
ATOM      9  C   UNL     1       1.467   9.852  18.904  0.00  0.00    +0.000 A 
ATOM     10 CL   UNL     1       1.061  11.503  18.659  0.00  0.00    +0.000 Cl
ATOM     11  C   UNL     1       1.994   9.112  17.855  0.00  0.00    +0.000 A 
ATOM     12  C   UNL     1       2.323   7.764  18.047  0.00  0.00    +0.000 A 
ENDBRANCH   5   6
BRANCH   1  14
ATOM     13  C   UNL     1       6.278   5.277  19.648  0.00  0.00    +0.000 C 
ATOM     14  C   UNL     1       4.987   5.563  18.865  0.00  0.00    +0.000 C 
BRANCH  14  15
ATOM     15  C   UNL     1       5.149   5.321  17.360  0.00  0.00    +0.000 A 
ATOM     16  C   UNL     1       5.020   6.331  16.389  0.00  0.00    +0.000 A 
ATOM     17  C   UNL     1       5.239   6.059  15.033  0.00  0.00    +0.000 A 
ATOM     18  C   UNL     1       5.585   4.776  14.619  0.00  0.00    +0.000 A 
ATOM     19  C   UNL     1       5.736   3.766  15.562  0.00  0.00    +0.000 A 
ATOM     20  C   UNL     1       5.524   4.035  16.916  0.00  0.00    +0.000 A 
ENDBRANCH  14  15
ENDBRANCH   1  14
BRANCH   2  21
ATOM     21  S   UNL     1       4.500   2.351  19.747  0.00  0.00    +0.000 S 
ATOM     22  H   UNL     1       4.569   2.047  21.048  0.00  0.00    +0.000 HD
ENDBRANCH   2  21
TORSDOF 4
ENDMDL
MODEL 9
REMARK VINA RESULT:      -6.8      1.790      2.208
REMARK  Name = 
REMARK  5 active torsions:
REMARK  status: ('A' for Active; 'I' for Inactive)
REMARK    1  A    between atoms: C_1  and  C_2
REMARK    2  A    between atoms: C_2  and  C_3
REMARK    3  A    between atoms: C_2  and  N_9
REMARK    4  A    between atoms: C_10  and  S_11
REMARK    5  A    between atoms: C_14  and  C_15
REMARK                            x       y       z     vdW  Elec       q    Type
REMARK                         _______ _______ _______ _____ _____    ______ ____
ROOT
ATOM      1  N   UNL     1       3.439   3.984  18.878  0.00  0.00    +0.000 N 
ATOM      2  C   UNL     1       3.095   2.818  19.527  0.00  0.00    +0.000 A 
ATOM      3  N   UNL     1       4.160   2.254  20.038  0.00  0.00    +0.000 NA
ATOM      4  N   UNL     1       5.220   3.070  19.785  0.00  0.00    +0.000 NA
ATOM      5  C   UNL     1       4.816   4.139  19.107  0.00  0.00    +0.000 A 
ENDROOT
BRANCH   5   6
ATOM      6  C   UNL     1       5.761   5.208  18.709  0.00  0.00    +0.000 A 
ATOM      7  C   UNL     1       5.413   6.019  17.608  0.00  0.00    +0.000 A 
ATOM      8  C   UNL     1       6.240   7.064  17.170  0.00  0.00    +0.000 A 
ATOM      9  C   UNL     1       7.432   7.325  17.828  0.00  0.00    +0.000 A 
ATOM     10 CL   UNL     1       8.446   8.616  17.323  0.00  0.00    +0.000 Cl
ATOM     11  C   UNL     1       7.816   6.529  18.898  0.00  0.00    +0.000 A 
ATOM     12  C   UNL     1       6.996   5.471  19.311  0.00  0.00    +0.000 A 
ENDBRANCH   5   6
BRANCH   1  14
ATOM     13  C   UNL     1       1.418   4.282  17.328  0.00  0.00    +0.000 C 
ATOM     14  C   UNL     1       2.591   4.896  18.106  0.00  0.00    +0.000 C 
BRANCH  14  15
ATOM     15  C   UNL     1       2.180   6.145  18.896  0.00  0.00    +0.000 A 
ATOM     16  C   UNL     1       1.837   6.127  20.261  0.00  0.00    +0.000 A 
ATOM     17  C   UNL     1       1.528   7.311  20.941  0.00  0.00    +0.000 A 
ATOM     18  C   UNL     1       1.550   8.532  20.275  0.00  0.00    +0.000 A 
ATOM     19  C   UNL     1       1.903   8.577  18.931  0.00  0.00    +0.000 A 
ATOM     20  C   UNL     1       2.218   7.398  18.250  0.00  0.00    +0.000 A 
ENDBRANCH  14  15
ENDBRANCH   1  14
BRANCH   2  21
ATOM     21  S   UNL     1       1.515   2.140  19.710  0.00  0.00    +0.000 S 
ATOM     22  H   UNL     1       0.862   3.211  20.174  0.00  0.00    +0.000 HD
ENDBRANCH   2  21
TORSDOF 4
ENDMDL
