MODEL 1
REMARK VINA RESULT:      -8.5      0.000      0.000
REMARK  Name = 
REMARK  9 active torsions:
REMARK  status: ('A' for Active; 'I' for Inactive)
REMARK    1  A    between atoms: C_1  and  C_2
REMARK    2  A    between atoms: C_2  and  C_10
REMARK    3  A    between atoms: C_3  and  C_4
REMARK    4  A    between atoms: C_7  and  C_8
REMARK    5  A    between atoms: C_18  and  C_19
REMARK    6  A    between atoms: C_20  and  O_21
REMARK    7  A    between atoms: C_22  and  C_23
REMARK    8  A    between atoms: C_26  and  C_27
REMARK    9  A    between atoms: C_26  and  C_28
REMARK                            x       y       z     vdW  Elec       q    Type
REMARK                         _______ _______ _______ _____ _____    ______ ____
ROOT
ATOM      1  C   UNL     1      -0.648  10.592  19.914  0.00  0.00    +0.000 C 
ATOM      2  C   UNL     1      -1.194  10.912  18.497  0.00  0.00    +0.000 C 
ATOM      3  C   UNL     1      -2.288   9.987  18.042  0.00  0.00    +0.000 C 
ATOM      4  O   UNL     1      -2.630  10.207  16.665  0.00  0.00    +0.000 OA
ATOM      5  C   UNL     1      -3.715  10.356  17.588  0.00  0.00    +0.000 C 
ATOM      6  C   UNL     1      -4.341  11.727  17.530  0.00  0.00    +0.000 C 
ATOM      7  C   UNL     1      -5.762  11.729  18.135  0.00  0.00    +0.000 C 
ATOM      8  C   UNL     1      -6.174  13.058  18.799  0.00  0.00    +0.000 C 
ATOM      9  C   UNL     1      -5.417  13.324  20.123  0.00  0.00    +0.000 C 
ATOM     10  C   UNL     1      -5.819  12.325  21.208  0.00  0.00    +0.000 C 
ATOM     11  C   UNL     1      -5.535  14.813  20.582  0.00  0.00    +0.000 C 
ATOM     12  C   UNL     1      -4.882  15.211  21.956  0.00  0.00    +0.000 C 
ATOM     13  C   UNL     1      -5.907  15.088  23.067  0.00  0.00    +0.000 C 
ATOM     14  C   UNL     1      -3.495  14.528  22.079  0.00  0.00    +0.000 C 
ATOM     15  O   UNL     1      -2.922  14.246  21.018  0.00  0.00    +0.000 OA
ATOM     16  C   UNL     1      -2.681  14.418  23.388  0.00  0.00    +0.000 C 
ATOM     17  C   UNL     1      -2.131  15.817  23.680  0.00  0.00    +0.000 C 
ATOM     18  C   UNL     1      -3.444  13.889  24.616  0.00  0.00    +0.000 C 
ATOM     19  C   UNL     1      -1.536  13.348  23.205  0.00  0.00    +0.000 C 
ATOM     20  C   UNL     1      -0.438  13.436  22.119  0.00  0.00    +0.000 C 
ATOM     21  C   UNL     1      -0.076  12.004  21.738  0.00  0.00    +0.000 C 
ATOM     22  O   UNL     1       0.056  11.101  22.555  0.00  0.00    +0.000 OA
ATOM     23  O   UNL     1      -0.055  11.829  20.391  0.00  0.00    +0.000 OA
ENDROOT
BRANCH   1  25
ATOM     24  C   UNL     1       0.312   8.551  21.218  0.00  0.00    +0.000 C 
ATOM     25  C   UNL     1       0.334   9.411  19.982  0.00  0.00    +0.000 C 
ATOM     26  C   UNL     1       1.174   9.162  18.942  0.00  0.00    +0.000 C 
BRANCH  26  27
ATOM     27  C   UNL     1       2.126   8.106  18.844  0.00  0.00    +0.000 A 
ATOM     28  C   UNL     1       2.249   7.067  19.739  0.00  0.00    +0.000 A 
ATOM     29  S   UNL     1       3.480   5.997  19.208  0.00  0.00    +0.000 S 
ATOM     30  C   UNL     1       3.731   6.989  17.826  0.00  0.00    +0.000 A 
ATOM     31  C   UNL     1       4.753   6.612  16.807  0.00  0.00    +0.000 C 
ATOM     32  N   UNL     1       2.961   8.059  17.747  0.00  0.00    +0.000 NA
ENDBRANCH  26  27
ENDBRANCH   1  25
BRANCH  11  33
ATOM     33  O   UNL     1      -4.941  15.644  19.571  0.00  0.00    +0.000 OA
ATOM     34  H   UNL     1      -4.850  15.084  18.775  0.00  0.00    +0.000 HD
ENDBRANCH  11  33
TORSDOF 3
ENDMDL
MODEL 2
REMARK VINA RESULT:      -8.1      1.316      1.545
REMARK  Name = 
REMARK  9 active torsions:
REMARK  status: ('A' for Active; 'I' for Inactive)
REMARK    1  A    between atoms: C_1  and  C_2
REMARK    2  A    between atoms: C_2  and  C_10
REMARK    3  A    between atoms: C_3  and  C_4
REMARK    4  A    between atoms: C_7  and  C_8
REMARK    5  A    between atoms: C_18  and  C_19
REMARK    6  A    between atoms: C_20  and  O_21
REMARK    7  A    between atoms: C_22  and  C_23
REMARK    8  A    between atoms: C_26  and  C_27
REMARK    9  A    between atoms: C_26  and  C_28
REMARK                            x       y       z     vdW  Elec       q    Type
REMARK                         _______ _______ _______ _____ _____    ______ ____
ROOT
ATOM      1  C   UNL     1      -1.140  11.491  19.468  0.00  0.00    +0.000 C 
ATOM      2  C   UNL     1      -1.801  11.991  18.155  0.00  0.00    +0.000 C 
ATOM      3  C   UNL     1      -2.584  10.934  17.427  0.00  0.00    +0.000 C 
ATOM      4  O   UNL     1      -3.019  11.390  16.137  0.00  0.00    +0.000 OA
ATOM      5  C   UNL     1      -4.069  10.969  17.014  0.00  0.00    +0.000 C 
ATOM      6  C   UNL     1      -5.076  12.059  17.279  0.00  0.00    +0.000 C 
ATOM      7  C   UNL     1      -6.414  11.485  17.796  0.00  0.00    +0.000 C 
ATOM      8  C   UNL     1      -7.181  12.413  18.757  0.00  0.00    +0.000 C 
ATOM      9  C   UNL     1      -6.497  12.540  20.140  0.00  0.00    +0.000 C 
ATOM     10  C   UNL     1      -6.549  11.222  20.913  0.00  0.00    +0.000 C 
ATOM     11  C   UNL     1      -7.039  13.755  20.959  0.00  0.00    +0.000 C 
ATOM     12  C   UNL     1      -6.492  13.960  22.418  0.00  0.00    +0.000 C 
ATOM     13  C   UNL     1      -7.397  13.256  23.411  0.00  0.00    +0.000 C 
ATOM     14  C   UNL     1      -4.960  13.709  22.429  0.00  0.00    +0.000 C 
ATOM     15  O   UNL     1      -4.363  13.894  21.359  0.00  0.00    +0.000 OA
ATOM     16  C   UNL     1      -4.110  13.511  23.704  0.00  0.00    +0.000 C 
ATOM     17  C   UNL     1      -3.992  14.885  24.370  0.00  0.00    +0.000 C 
ATOM     18  C   UNL     1      -4.641  12.482  24.717  0.00  0.00    +0.000 C 
ATOM     19  C   UNL     1      -2.704  12.913  23.308  0.00  0.00    +0.000 C 
ATOM     20  C   UNL     1      -1.718  13.599  22.335  0.00  0.00    +0.000 C 
ATOM     21  C   UNL     1      -0.957  12.487  21.618  0.00  0.00    +0.000 C 
ATOM     22  O   UNL     1      -0.537  11.485  22.182  0.00  0.00    +0.000 OA
ATOM     23  O   UNL     1      -0.928  12.681  20.273  0.00  0.00    +0.000 OA
ENDROOT
BRANCH   1  25
ATOM     24  C   UNL     1       1.407  11.430  18.920  0.00  0.00    +0.000 C 
ATOM     25  C   UNL     1       0.151  10.679  19.278  0.00  0.00    +0.000 C 
ATOM     26  C   UNL     1       0.140   9.330  19.449  0.00  0.00    +0.000 C 
BRANCH  26  27
ATOM     27  C   UNL     1       1.247   8.441  19.326  0.00  0.00    +0.000 A 
ATOM     28  C   UNL     1       1.654   7.548  20.290  0.00  0.00    +0.000 A 
ATOM     29  S   UNL     1       2.988   6.641  19.705  0.00  0.00    +0.000 S 
ATOM     30  C   UNL     1       2.899   7.495  18.215  0.00  0.00    +0.000 A 
ATOM     31  C   UNL     1       3.850   7.177  17.110  0.00  0.00    +0.000 C 
ATOM     32  N   UNL     1       1.947   8.407  18.137  0.00  0.00    +0.000 NA
ENDBRANCH  26  27
ENDBRANCH   1  25
BRANCH  11  33
ATOM     33  O   UNL     1      -6.752  14.956  20.224  0.00  0.00    +0.000 OA
ATOM     34  H   UNL     1      -5.800  14.922  20.002  0.00  0.00    +0.000 HD
ENDBRANCH  11  33
TORSDOF 3
ENDMDL
MODEL 3
REMARK VINA RESULT:      -7.8      1.166      1.446
REMARK  Name = 
REMARK  9 active torsions:
REMARK  status: ('A' for Active; 'I' for Inactive)
REMARK    1  A    between atoms: C_1  and  C_2
REMARK    2  A    between atoms: C_2  and  C_10
REMARK    3  A    between atoms: C_3  and  C_4
REMARK    4  A    between atoms: C_7  and  C_8
REMARK    5  A    between atoms: C_18  and  C_19
REMARK    6  A    between atoms: C_20  and  O_21
REMARK    7  A    between atoms: C_22  and  C_23
REMARK    8  A    between atoms: C_26  and  C_27
REMARK    9  A    between atoms: C_26  and  C_28
REMARK                            x       y       z     vdW  Elec       q    Type
REMARK                         _______ _______ _______ _____ _____    ______ ____
ROOT
ATOM      1  C   UNL     1      -0.035  11.284  18.986  0.00  0.00    +0.000 C 
ATOM      2  C   UNL     1      -1.075  11.426  17.843  0.00  0.00    +0.000 C 
ATOM      3  C   UNL     1      -2.134  10.359  17.848  0.00  0.00    +0.000 C 
ATOM      4  O   UNL     1      -2.958  10.425  16.674  0.00  0.00    +0.000 OA
ATOM      5  C   UNL     1      -3.664  10.541  17.915  0.00  0.00    +0.000 C 
ATOM      6  C   UNL     1      -4.437  11.831  18.024  0.00  0.00    +0.000 C 
ATOM      7  C   UNL     1      -5.548  11.740  19.095  0.00  0.00    +0.000 C 
ATOM      8  C   UNL     1      -5.865  13.070  19.804  0.00  0.00    +0.000 C 
ATOM      9  C   UNL     1      -4.734  13.523  20.759  0.00  0.00    +0.000 C 
ATOM     10  C   UNL     1      -4.605  12.584  21.958  0.00  0.00    +0.000 C 
ATOM     11  C   UNL     1      -4.871  15.026  21.166  0.00  0.00    +0.000 C 
ATOM     12  C   UNL     1      -3.836  15.603  22.199  0.00  0.00    +0.000 C 
ATOM     13  C   UNL     1      -4.386  15.470  23.607  0.00  0.00    +0.000 C 
ATOM     14  C   UNL     1      -2.419  15.078  21.850  0.00  0.00    +0.000 C 
ATOM     15  O   UNL     1      -2.220  14.767  20.668  0.00  0.00    +0.000 OA
ATOM     16  C   UNL     1      -1.193  15.162  22.788  0.00  0.00    +0.000 C 
ATOM     17  C   UNL     1      -0.755  16.629  22.805  0.00  0.00    +0.000 C 
ATOM     18  C   UNL     1      -1.408  14.664  24.228  0.00  0.00    +0.000 C 
ATOM     19  C   UNL     1      -0.059  14.203  22.256  0.00  0.00    +0.000 C 
ATOM     20  C   UNL     1       0.572  14.310  20.848  0.00  0.00    +0.000 C 
ATOM     21  C   UNL     1       0.955  12.895  20.425  0.00  0.00    +0.000 C 
ATOM     22  O   UNL     1       1.475  12.083  21.180  0.00  0.00    +0.000 OA
ATOM     23  O   UNL     1       0.527  12.610  19.167  0.00  0.00    +0.000 OA
ENDROOT
BRANCH   1  25
ATOM     24  C   UNL     1       2.205  10.581  17.855  0.00  0.00    +0.000 C 
ATOM     25  C   UNL     1       1.049  10.219  18.751  0.00  0.00    +0.000 C 
ATOM     26  C   UNL     1       0.956   9.005  19.355  0.00  0.00    +0.000 C 
BRANCH  26  27
ATOM     27  C   UNL     1       1.879   7.924  19.253  0.00  0.00    +0.000 A 
ATOM     28  C   UNL     1       2.045   6.934  20.195  0.00  0.00    +0.000 A 
ATOM     29  S   UNL     1       3.215   5.808  19.644  0.00  0.00    +0.000 S 
ATOM     30  C   UNL     1       3.387   6.715  18.192  0.00  0.00    +0.000 A 
ATOM     31  C   UNL     1       4.328   6.258  17.129  0.00  0.00    +0.000 C 
ATOM     32  N   UNL     1       2.634   7.797  18.105  0.00  0.00    +0.000 NA
ENDBRANCH  26  27
ENDBRANCH   1  25
BRANCH  11  33
ATOM     33  O   UNL     1      -4.775  15.824  19.975  0.00  0.00    +0.000 OA
ATOM     34  H   UNL     1      -4.724  15.197  19.227  0.00  0.00    +0.000 HD
ENDBRANCH  11  33
TORSDOF 3
ENDMDL
MODEL 4
REMARK VINA RESULT:      -7.7      1.407      1.901
REMARK  Name = 
REMARK  9 active torsions:
REMARK  status: ('A' for Active; 'I' for Inactive)
REMARK    1  A    between atoms: C_1  and  C_2
REMARK    2  A    between atoms: C_2  and  C_10
REMARK    3  A    between atoms: C_3  and  C_4
REMARK    4  A    between atoms: C_7  and  C_8
REMARK    5  A    between atoms: C_18  and  C_19
REMARK    6  A    between atoms: C_20  and  O_21
REMARK    7  A    between atoms: C_22  and  C_23
REMARK    8  A    between atoms: C_26  and  C_27
REMARK    9  A    between atoms: C_26  and  C_28
REMARK                            x       y       z     vdW  Elec       q    Type
REMARK                         _______ _______ _______ _____ _____    ______ ____
ROOT
ATOM      1  C   UNL     1      -0.169  10.840  19.107  0.00  0.00    +0.000 C 
ATOM      2  C   UNL     1      -1.156  11.031  17.925  0.00  0.00    +0.000 C 
ATOM      3  C   UNL     1      -2.310  10.067  17.933  0.00  0.00    +0.000 C 
ATOM      4  O   UNL     1      -3.088  10.161  16.730  0.00  0.00    +0.000 OA
ATOM      5  C   UNL     1      -3.818  10.390  17.941  0.00  0.00    +0.000 C 
ATOM      6  C   UNL     1      -4.470  11.749  17.975  0.00  0.00    +0.000 C 
ATOM      7  C   UNL     1      -5.617  11.803  19.010  0.00  0.00    +0.000 C 
ATOM      8  C   UNL     1      -5.831  13.184  19.658  0.00  0.00    +0.000 C 
ATOM      9  C   UNL     1      -4.693  13.570  20.634  0.00  0.00    +0.000 C 
ATOM     10  C   UNL     1      -4.688  12.672  21.871  0.00  0.00    +0.000 C 
ATOM     11  C   UNL     1      -4.701  15.094  20.980  0.00  0.00    +0.000 C 
ATOM     12  C   UNL     1      -3.650  15.615  22.025  0.00  0.00    +0.000 C 
ATOM     13  C   UNL     1      -4.253  15.589  23.418  0.00  0.00    +0.000 C 
ATOM     14  C   UNL     1      -2.277  14.948  21.745  0.00  0.00    +0.000 C 
ATOM     15  O   UNL     1      -2.072  14.573  20.582  0.00  0.00    +0.000 OA
ATOM     16  C   UNL     1      -1.079  14.958  22.721  0.00  0.00    +0.000 C 
ATOM     17  C   UNL     1      -0.507  16.378  22.698  0.00  0.00    +0.000 C 
ATOM     18  C   UNL     1      -1.383  14.540  24.170  0.00  0.00    +0.000 C 
ATOM     19  C   UNL     1      -0.022  13.878  22.263  0.00  0.00    +0.000 C 
ATOM     20  C   UNL     1       0.658  13.870  20.875  0.00  0.00    +0.000 C 
ATOM     21  C   UNL     1       0.922  12.410  20.518  0.00  0.00    +0.000 C 
ATOM     22  O   UNL     1       1.340  11.585  21.320  0.00  0.00    +0.000 OA
ATOM     23  O   UNL     1       0.508  12.116  19.258  0.00  0.00    +0.000 OA
ENDROOT
BRANCH   1  25
ATOM     24  C   UNL     1       1.828   9.753  17.833  0.00  0.00    +0.000 C 
ATOM     25  C   UNL     1       0.818   9.672  18.949  0.00  0.00    +0.000 C 
ATOM     26  C   UNL     1       0.774   8.620  19.808  0.00  0.00    +0.000 C 
BRANCH  26  27
ATOM     27  C   UNL     1       1.623   7.475  19.806  0.00  0.00    +0.000 A 
ATOM     28  C   UNL     1       2.745   7.325  19.023  0.00  0.00    +0.000 A 
ATOM     29  S   UNL     1       3.496   5.824  19.379  0.00  0.00    +0.000 S 
ATOM     30  C   UNL     1       2.282   5.510  20.557  0.00  0.00    +0.000 A 
ATOM     31  C   UNL     1       2.322   4.253  21.359  0.00  0.00    +0.000 C 
ATOM     32  N   UNL     1       1.362   6.448  20.690  0.00  0.00    +0.000 NA
ENDBRANCH  26  27
ENDBRANCH   1  25
BRANCH  11  33
ATOM     33  O   UNL     1      -4.496  15.832  19.764  0.00  0.00    +0.000 OA
ATOM     34  H   UNL     1      -5.259  15.629  19.188  0.00  0.00    +0.000 HD
ENDBRANCH  11  33
TORSDOF 3
ENDMDL
MODEL 5
REMARK VINA RESULT:      -7.6      0.824      1.061
REMARK  Name = 
REMARK  9 active torsions:
REMARK  status: ('A' for Active; 'I' for Inactive)
REMARK    1  A    between atoms: C_1  and  C_2
REMARK    2  A    between atoms: C_2  and  C_10
REMARK    3  A    between atoms: C_3  and  C_4
REMARK    4  A    between atoms: C_7  and  C_8
REMARK    5  A    between atoms: C_18  and  C_19
REMARK    6  A    between atoms: C_20  and  O_21
REMARK    7  A    between atoms: C_22  and  C_23
REMARK    8  A    between atoms: C_26  and  C_27
REMARK    9  A    between atoms: C_26  and  C_28
REMARK                            x       y       z     vdW  Elec       q    Type
REMARK                         _______ _______ _______ _____ _____    ______ ____
ROOT
ATOM      1  C   UNL     1      -0.361  11.205  18.935  0.00  0.00    +0.000 C 
ATOM      2  C   UNL     1      -1.110  11.502  17.609  0.00  0.00    +0.000 C 
ATOM      3  C   UNL     1      -2.072  10.423  17.198  0.00  0.00    +0.000 C 
ATOM      4  O   UNL     1      -2.600  10.655  15.883  0.00  0.00    +0.000 OA
ATOM      5  C   UNL     1      -3.583  10.554  16.920  0.00  0.00    +0.000 C 
ATOM      6  C   UNL     1      -4.439  11.790  17.030  0.00  0.00    +0.000 C 
ATOM      7  C   UNL     1      -5.762  11.502  17.774  0.00  0.00    +0.000 C 
ATOM      8  C   UNL     1      -6.319  12.694  18.575  0.00  0.00    +0.000 C 
ATOM      9  C   UNL     1      -5.476  13.017  19.832  0.00  0.00    +0.000 C 
ATOM     10  C   UNL     1      -5.574  11.902  20.873  0.00  0.00    +0.000 C 
ATOM     11  C   UNL     1      -5.797  14.431  20.413  0.00  0.00    +0.000 C 
ATOM     12  C   UNL     1      -5.072  14.862  21.740  0.00  0.00    +0.000 C 
ATOM     13  C   UNL     1      -5.928  14.492  22.937  0.00  0.00    +0.000 C 
ATOM     14  C   UNL     1      -3.583  14.434  21.670  0.00  0.00    +0.000 C 
ATOM     15  O   UNL     1      -3.093  14.321  20.538  0.00  0.00    +0.000 OA
ATOM     16  C   UNL     1      -2.620  14.398  22.878  0.00  0.00    +0.000 C 
ATOM     17  C   UNL     1      -2.290  15.854  23.219  0.00  0.00    +0.000 C 
ATOM     18  C   UNL     1      -3.136  13.671  24.133  0.00  0.00    +0.000 C 
ATOM     19  C   UNL     1      -1.334  13.564  22.499  0.00  0.00    +0.000 C 
ATOM     20  C   UNL     1      -0.399  13.910  21.318  0.00  0.00    +0.000 C 
ATOM     21  C   UNL     1       0.161  12.591  20.794  0.00  0.00    +0.000 C 
ATOM     22  O   UNL     1       0.538  11.681  21.523  0.00  0.00    +0.000 OA
ATOM     23  O   UNL     1       0.059  12.500  19.442  0.00  0.00    +0.000 OA
ENDROOT
BRANCH   1  25
ATOM     24  C   UNL     1       2.077  10.711  18.159  0.00  0.00    +0.000 C 
ATOM     25  C   UNL     1       0.813  10.219  18.813  0.00  0.00    +0.000 C 
ATOM     26  C   UNL     1       0.696   8.956  19.302  0.00  0.00    +0.000 C 
BRANCH  26  27
ATOM     27  C   UNL     1       1.689   7.934  19.281  0.00  0.00    +0.000 A 
ATOM     28  C   UNL     1       1.952   7.066  20.317  0.00  0.00    +0.000 A 
ATOM     29  S   UNL     1       3.181   5.967  19.846  0.00  0.00    +0.000 S 
ATOM     30  C   UNL     1       3.246   6.721  18.301  0.00  0.00    +0.000 A 
ATOM     31  C   UNL     1       4.186   6.215  17.258  0.00  0.00    +0.000 C 
ATOM     32  N   UNL     1       2.417   7.734  18.126  0.00  0.00    +0.000 NA
ENDBRANCH  26  27
ENDBRANCH   1  25
BRANCH  11  33
ATOM     33  O   UNL     1      -5.474  15.412  19.414  0.00  0.00    +0.000 OA
ATOM     34  H   UNL     1      -6.257  15.478  18.831  0.00  0.00    +0.000 HD
ENDBRANCH  11  33
TORSDOF 3
ENDMDL
MODEL 6
REMARK VINA RESULT:      -7.5      1.496      1.892
REMARK  Name = 
REMARK  9 active torsions:
REMARK  status: ('A' for Active; 'I' for Inactive)
REMARK    1  A    between atoms: C_1  and  C_2
REMARK    2  A    between atoms: C_2  and  C_10
REMARK    3  A    between atoms: C_3  and  C_4
REMARK    4  A    between atoms: C_7  and  C_8
REMARK    5  A    between atoms: C_18  and  C_19
REMARK    6  A    between atoms: C_20  and  O_21
REMARK    7  A    between atoms: C_22  and  C_23
REMARK    8  A    between atoms: C_26  and  C_27
REMARK    9  A    between atoms: C_26  and  C_28
REMARK                            x       y       z     vdW  Elec       q    Type
REMARK                         _______ _______ _______ _____ _____    ______ ____
ROOT
ATOM      1  C   UNL     1      -0.574  10.279  20.575  0.00  0.00    +0.000 C 
ATOM      2  C   UNL     1      -0.707  10.786  19.114  0.00  0.00    +0.000 C 
ATOM      3  C   UNL     1      -1.487   9.864  18.218  0.00  0.00    +0.000 C 
ATOM      4  O   UNL     1      -1.426  10.282  16.846  0.00  0.00    +0.000 OA
ATOM      5  C   UNL     1      -2.748  10.187  17.391  0.00  0.00    +0.000 C 
ATOM      6  C   UNL     1      -3.498  11.493  17.322  0.00  0.00    +0.000 C 
ATOM      7  C   UNL     1      -5.024  11.279  17.443  0.00  0.00    +0.000 C 
ATOM      8  C   UNL     1      -5.782  12.440  18.115  0.00  0.00    +0.000 C 
ATOM      9  C   UNL     1      -5.497  12.542  19.633  0.00  0.00    +0.000 C 
ATOM     10  C   UNL     1      -6.073  11.347  20.392  0.00  0.00    +0.000 C 
ATOM     11  C   UNL     1      -5.938  13.919  20.226  0.00  0.00    +0.000 C 
ATOM     12  C   UNL     1      -5.783  14.134  21.775  0.00  0.00    +0.000 C 
ATOM     13  C   UNL     1      -7.068  13.743  22.480  0.00  0.00    +0.000 C 
ATOM     14  C   UNL     1      -4.420  13.554  22.237  0.00  0.00    +0.000 C 
ATOM     15  O   UNL     1      -3.524  13.500  21.384  0.00  0.00    +0.000 OA
ATOM     16  C   UNL     1      -4.028  13.293  23.709  0.00  0.00    +0.000 C 
ATOM     17  C   UNL     1      -3.775  14.663  24.344  0.00  0.00    +0.000 C 
ATOM     18  C   UNL     1      -5.048  12.507  24.552  0.00  0.00    +0.000 C 
ATOM     19  C   UNL     1      -2.752  12.365  23.756  0.00  0.00    +0.000 C 
ATOM     20  C   UNL     1      -1.401  12.722  23.093  0.00  0.00    +0.000 C 
ATOM     21  C   UNL     1      -0.760  11.407  22.658  0.00  0.00    +0.000 C 
ATOM     22  O   UNL     1      -0.763  10.394  23.346  0.00  0.00    +0.000 OA
ATOM     23  O   UNL     1      -0.315  11.463  21.375  0.00  0.00    +0.000 OA
ENDROOT
BRANCH   1  25
ATOM     24  C   UNL     1       1.375   9.301  22.002  0.00  0.00    +0.000 C 
ATOM     25  C   UNL     1       0.487   9.187  20.790  0.00  0.00    +0.000 C 
ATOM     26  C   UNL     1       0.591   8.154  19.913  0.00  0.00    +0.000 C 
BRANCH  26  27
ATOM     27  C   UNL     1       1.504   7.062  19.979  0.00  0.00    +0.000 A 
ATOM     28  C   UNL     1       2.721   7.009  19.339  0.00  0.00    +0.000 A 
ATOM     29  S   UNL     1       3.516   5.542  19.737  0.00  0.00    +0.000 S 
ATOM     30  C   UNL     1       2.189   5.111  20.743  0.00  0.00    +0.000 A 
ATOM     31  C   UNL     1       2.210   3.826  21.501  0.00  0.00    +0.000 C 
ATOM     32  N   UNL     1       1.202   5.986  20.789  0.00  0.00    +0.000 NA
ENDBRANCH  26  27
ENDBRANCH   1  25
BRANCH  11  33
ATOM     33  O   UNL     1      -5.181  14.952  19.575  0.00  0.00    +0.000 OA
ATOM     34  H   UNL     1      -4.654  15.389  20.274  0.00  0.00    +0.000 HD
ENDBRANCH  11  33
TORSDOF 3
ENDMDL
MODEL 7
REMARK VINA RESULT:      -7.3      1.316      1.783
REMARK  Name = 
REMARK  9 active torsions:
REMARK  status: ('A' for Active; 'I' for Inactive)
REMARK    1  A    between atoms: C_1  and  C_2
REMARK    2  A    between atoms: C_2  and  C_10
REMARK    3  A    between atoms: C_3  and  C_4
REMARK    4  A    between atoms: C_7  and  C_8
REMARK    5  A    between atoms: C_18  and  C_19
REMARK    6  A    between atoms: C_20  and  O_21
REMARK    7  A    between atoms: C_22  and  C_23
REMARK    8  A    between atoms: C_26  and  C_27
REMARK    9  A    between atoms: C_26  and  C_28
REMARK                            x       y       z     vdW  Elec       q    Type
REMARK                         _______ _______ _______ _____ _____    ______ ____
ROOT
ATOM      1  C   UNL     1      -0.485  10.412  19.298  0.00  0.00    +0.000 C 
ATOM      2  C   UNL     1      -0.996  10.961  17.940  0.00  0.00    +0.000 C 
ATOM      3  C   UNL     1      -1.981  10.059  17.250  0.00  0.00    +0.000 C 
ATOM      4  O   UNL     1      -2.282  10.518  15.924  0.00  0.00    +0.000 OA
ATOM      5  C   UNL     1      -3.415  10.394  16.791  0.00  0.00    +0.000 C 
ATOM      6  C   UNL     1      -4.160  11.693  16.963  0.00  0.00    +0.000 C 
ATOM      7  C   UNL     1      -5.601  11.460  17.471  0.00  0.00    +0.000 C 
ATOM      8  C   UNL     1      -6.160  12.592  18.354  0.00  0.00    +0.000 C 
ATOM      9  C   UNL     1      -5.488  12.651  19.747  0.00  0.00    +0.000 C 
ATOM     10  C   UNL     1      -5.843  11.428  20.592  0.00  0.00    +0.000 C 
ATOM     11  C   UNL     1      -5.761  14.005  20.478  0.00  0.00    +0.000 C 
ATOM     12  C   UNL     1      -5.207  14.175  21.939  0.00  0.00    +0.000 C 
ATOM     13  C   UNL     1      -6.263  13.750  22.943  0.00  0.00    +0.000 C 
ATOM     14  C   UNL     1      -3.769  13.595  22.011  0.00  0.00    +0.000 C 
ATOM     15  O   UNL     1      -3.128  13.577  20.951  0.00  0.00    +0.000 OA
ATOM     16  C   UNL     1      -3.006  13.294  23.320  0.00  0.00    +0.000 C 
ATOM     17  C   UNL     1      -2.598  14.647  23.910  0.00  0.00    +0.000 C 
ATOM     18  C   UNL     1      -3.769  12.473  24.374  0.00  0.00    +0.000 C 
ATOM     19  C   UNL     1      -1.760  12.379  23.002  0.00  0.00    +0.000 C 
ATOM     20  C   UNL     1      -0.630  12.769  22.022  0.00  0.00    +0.000 C 
ATOM     21  C   UNL     1      -0.122  11.475  21.393  0.00  0.00    +0.000 C 
ATOM     22  O   UNL     1       0.056  10.442  22.026  0.00  0.00    +0.000 OA
ATOM     23  O   UNL     1      -0.028  11.574  20.041  0.00  0.00    +0.000 OA
ENDROOT
BRANCH   1  25
ATOM     24  C   UNL     1       1.722   9.546  18.217  0.00  0.00    +0.000 C 
ATOM     25  C   UNL     1       0.598   9.325  19.195  0.00  0.00    +0.000 C 
ATOM     26  C   UNL     1       0.530   8.218  19.981  0.00  0.00    +0.000 C 
BRANCH  26  27
ATOM     27  C   UNL     1       1.456   7.134  20.016  0.00  0.00    +0.000 A 
ATOM     28  C   UNL     1       2.657   7.099  19.345  0.00  0.00    +0.000 A 
ATOM     29  S   UNL     1       3.475   5.636  19.712  0.00  0.00    +0.000 S 
ATOM     30  C   UNL     1       2.178   5.184  20.747  0.00  0.00    +0.000 A 
ATOM     31  C   UNL     1       2.230   3.894  21.495  0.00  0.00    +0.000 C 
ATOM     32  N   UNL     1       1.184   6.050  20.825  0.00  0.00    +0.000 NA
ENDBRANCH  26  27
ENDBRANCH   1  25
BRANCH  11  33
ATOM     33  O   UNL     1      -5.203  15.065  19.685  0.00  0.00    +0.000 OA
ATOM     34  H   UNL     1      -5.063  14.695  18.791  0.00  0.00    +0.000 HD
ENDBRANCH  11  33
TORSDOF 3
ENDMDL
MODEL 8
REMARK VINA RESULT:      -7.2      3.583      6.197
REMARK  Name = 
REMARK  9 active torsions:
REMARK  status: ('A' for Active; 'I' for Inactive)
REMARK    1  A    between atoms: C_1  and  C_2
REMARK    2  A    between atoms: C_2  and  C_10
REMARK    3  A    between atoms: C_3  and  C_4
REMARK    4  A    between atoms: C_7  and  C_8
REMARK    5  A    between atoms: C_18  and  C_19
REMARK    6  A    between atoms: C_20  and  O_21
REMARK    7  A    between atoms: C_22  and  C_23
REMARK    8  A    between atoms: C_26  and  C_27
REMARK    9  A    between atoms: C_26  and  C_28
REMARK                            x       y       z     vdW  Elec       q    Type
REMARK                         _______ _______ _______ _____ _____    ______ ____
ROOT
ATOM      1  C   UNL     1      -0.389  13.368  20.737  0.00  0.00    +0.000 C 
ATOM      2  C   UNL     1      -0.586  13.425  22.275  0.00  0.00    +0.000 C 
ATOM      3  C   UNL     1      -0.655  14.821  22.829  0.00  0.00    +0.000 C 
ATOM      4  O   UNL     1      -0.653  14.822  24.265  0.00  0.00    +0.000 OA
ATOM      5  C   UNL     1      -1.787  15.457  23.662  0.00  0.00    +0.000 C 
ATOM      6  C   UNL     1      -3.092  14.829  24.078  0.00  0.00    +0.000 C 
ATOM      7  C   UNL     1      -4.285  15.782  23.837  0.00  0.00    +0.000 C 
ATOM      8  C   UNL     1      -5.613  15.075  23.503  0.00  0.00    +0.000 C 
ATOM      9  C   UNL     1      -5.611  14.433  22.094  0.00  0.00    +0.000 C 
ATOM     10  C   UNL     1      -5.568  15.495  20.996  0.00  0.00    +0.000 C 
ATOM     11  C   UNL     1      -6.773  13.405  21.912  0.00  0.00    +0.000 C 
ATOM     12  C   UNL     1      -6.944  12.734  20.501  0.00  0.00    +0.000 C 
ATOM     13  C   UNL     1      -7.914  13.543  19.660  0.00  0.00    +0.000 C 
ATOM     14  C   UNL     1      -5.548  12.348  19.946  0.00  0.00    +0.000 C 
ATOM     15  O   UNL     1      -4.658  12.142  20.784  0.00  0.00    +0.000 OA
ATOM     16  C   UNL     1      -5.261  11.952  18.480  0.00  0.00    +0.000 C 
ATOM     17  C   UNL     1      -5.840  10.547  18.285  0.00  0.00    +0.000 C 
ATOM     18  C   UNL     1      -5.817  12.901  17.403  0.00  0.00    +0.000 C 
ATOM     19  C   UNL     1      -3.706  12.003  18.218  0.00  0.00    +0.000 C 
ATOM     20  C   UNL     1      -2.669  11.174  19.011  0.00  0.00    +0.000 C 
ATOM     21  C   UNL     1      -1.390  12.003  19.069  0.00  0.00    +0.000 C 
ATOM     22  O   UNL     1      -0.949  12.632  18.115  0.00  0.00    +0.000 OA
ATOM     23  O   UNL     1      -0.885  12.066  20.329  0.00  0.00    +0.000 OA
ENDROOT
BRANCH   1  25
ATOM     24  C   UNL     1       2.047  12.502  20.410  0.00  0.00    +0.000 C 
ATOM     25  C   UNL     1       1.050  13.620  20.256  0.00  0.00    +0.000 C 
ATOM     26  C   UNL     1       1.383  14.814  19.697  0.00  0.00    +0.000 C 
BRANCH  26  27
ATOM     27  C   UNL     1       2.659  15.196  19.191  0.00  0.00    +0.000 A 
ATOM     28  C   UNL     1       3.182  14.798  17.981  0.00  0.00    +0.000 A 
ATOM     29  S   UNL     1       4.713  15.535  17.748  0.00  0.00    +0.000 S 
ATOM     30  C   UNL     1       4.544  16.337  19.260  0.00  0.00    +0.000 A 
ATOM     31  C   UNL     1       5.612  17.261  19.742  0.00  0.00    +0.000 C 
ATOM     32  N   UNL     1       3.428  16.082  19.918  0.00  0.00    +0.000 NA
ENDBRANCH  26  27
ENDBRANCH   1  25
BRANCH  11  33
ATOM     33  O   UNL     1      -6.593  12.348  22.867  0.00  0.00    +0.000 OA
ATOM     34  H   UNL     1      -7.475  11.949  23.006  0.00  0.00    +0.000 HD
ENDBRANCH  11  33
TORSDOF 3
ENDMDL
MODEL 9
REMARK VINA RESULT:      -7.2      4.847      6.161
REMARK  Name = 
REMARK  9 active torsions:
REMARK  status: ('A' for Active; 'I' for Inactive)
REMARK    1  A    between atoms: C_1  and  C_2
REMARK    2  A    between atoms: C_2  and  C_10
REMARK    3  A    between atoms: C_3  and  C_4
REMARK    4  A    between atoms: C_7  and  C_8
REMARK    5  A    between atoms: C_18  and  C_19
REMARK    6  A    between atoms: C_20  and  O_21
REMARK    7  A    between atoms: C_22  and  C_23
REMARK    8  A    between atoms: C_26  and  C_27
REMARK    9  A    between atoms: C_26  and  C_28
REMARK                            x       y       z     vdW  Elec       q    Type
REMARK                         _______ _______ _______ _____ _____    ______ ____
ROOT
ATOM      1  C   UNL     1       1.591  15.185  19.225  0.00  0.00    +0.000 C 
ATOM      2  C   UNL     1       1.111  13.736  18.946  0.00  0.00    +0.000 C 
ATOM      3  C   UNL     1       1.719  12.707  19.859  0.00  0.00    +0.000 C 
ATOM      4  O   UNL     1       1.388  11.372  19.446  0.00  0.00    +0.000 OA
ATOM      5  C   UNL     1       0.991  11.708  20.781  0.00  0.00    +0.000 C 
ATOM      6  C   UNL     1      -0.494  11.563  20.997  0.00  0.00    +0.000 C 
ATOM      7  C   UNL     1      -0.841  11.446  22.498  0.00  0.00    +0.000 C 
ATOM      8  C   UNL     1      -2.215  12.028  22.886  0.00  0.00    +0.000 C 
ATOM      9  C   UNL     1      -2.251  13.574  22.815  0.00  0.00    +0.000 C 
ATOM     10  C   UNL     1      -1.361  14.203  23.887  0.00  0.00    +0.000 C 
ATOM     11  C   UNL     1      -3.710  14.132  22.821  0.00  0.00    +0.000 C 
ATOM     12  C   UNL     1      -3.899  15.693  22.835  0.00  0.00    +0.000 C 
ATOM     13  C   UNL     1      -4.012  16.184  24.266  0.00  0.00    +0.000 C 
ATOM     14  C   UNL     1      -2.885  16.339  21.855  0.00  0.00    +0.000 C 
ATOM     15  O   UNL     1      -2.492  15.629  20.919  0.00  0.00    +0.000 OA
ATOM     16  C   UNL     1      -2.542  17.845  21.809  0.00  0.00    +0.000 C 
ATOM     17  C   UNL     1      -3.750  18.549  21.183  0.00  0.00    +0.000 C 
ATOM     18  C   UNL     1      -2.195  18.501  23.157  0.00  0.00    +0.000 C 
ATOM     19  C   UNL     1      -1.223  18.057  20.970  0.00  0.00    +0.000 C 
ATOM     20  C   UNL     1      -1.056  17.617  19.498  0.00  0.00    +0.000 C 
ATOM     21  C   UNL     1       0.413  17.247  19.309  0.00  0.00    +0.000 C 
ATOM     22  O   UNL     1       1.338  17.898  19.777  0.00  0.00    +0.000 OA
ATOM     23  O   UNL     1       0.555  16.048  18.685  0.00  0.00    +0.000 OA
ENDROOT
BRANCH   1  25
ATOM     24  C   UNL     1       3.102  15.787  17.189  0.00  0.00    +0.000 C 
ATOM     25  C   UNL     1       2.983  15.528  18.668  0.00  0.00    +0.000 C 
ATOM     26  C   UNL     1       4.052  15.604  19.505  0.00  0.00    +0.000 C 
BRANCH  26  27
ATOM     27  C   UNL     1       5.395  15.924  19.151  0.00  0.00    +0.000 A 
ATOM     28  C   UNL     1       5.946  17.184  19.196  0.00  0.00    +0.000 A 
ATOM     29  S   UNL     1       7.598  17.104  18.742  0.00  0.00    +0.000 S 
ATOM     30  C   UNL     1       7.449  15.402  18.545  0.00  0.00    +0.000 A 
ATOM     31  C   UNL     1       8.631  14.587  18.135  0.00  0.00    +0.000 C 
ATOM     32  N   UNL     1       6.251  14.903  18.791  0.00  0.00    +0.000 NA
ENDBRANCH  26  27
ENDBRANCH   1  25
BRANCH  11  33
ATOM     33  O   UNL     1      -4.387  13.632  21.657  0.00  0.00    +0.000 OA
ATOM     34  H   UNL     1      -3.692  13.286  21.062  0.00  0.00    +0.000 HD
ENDBRANCH  11  33
TORSDOF 3
ENDMDL
