MODEL 1
REMARK VINA RESULT:      -7.6      0.000      0.000
REMARK  Name = 
REMARK  9 active torsions:
REMARK  status: ('A' for Active; 'I' for Inactive)
REMARK    1  A    between atoms: C_1  and  O_2
REMARK    2  A    between atoms: O_2  and  C_3
REMARK    3  A    between atoms: N_5  and  C_6
REMARK    4  A    between atoms: C_6  and  C_7
REMARK    5  A    between atoms: C_6  and  C_14
REMARK    6  A    between atoms: C_11  and  C_12
REMARK    7  A    between atoms: C_14  and  C_15
REMARK    8  A    between atoms: C_15  and  O_17
REMARK    9  A    between atoms: O_17  and  C_18
REMARK                            x       y       z     vdW  Elec       q    Type
REMARK                         _______ _______ _______ _____ _____    ______ ____
ROOT
ATOM      1  C   UNL     1       4.067   4.519  19.240  0.00  0.00    +0.000 C 
ENDROOT
BRANCH   1   2
ATOM      2  C   UNL     1       3.322   5.852  19.103  0.00  0.00    +0.000 A 
ATOM      3  C   UNL     1       3.355   6.540  17.879  0.00  0.00    +0.000 A 
ATOM      4  C   UNL     1       2.739   7.783  17.734  0.00  0.00    +0.000 A 
ATOM      5  C   UNL     1       2.028   8.338  18.794  0.00  0.00    +0.000 A 
ATOM      6  C   UNL     1       1.928   7.653  20.008  0.00  0.00    +0.000 A 
ATOM      7  C   UNL     1       1.076   8.191  21.121  0.00  0.00    +0.000 C 
ATOM      8  C   UNL     1       2.591   6.425  20.160  0.00  0.00    +0.000 A 
ENDBRANCH   1   2
BRANCH   1   9
ATOM      9  C   UNL     1       3.149   3.272  19.377  0.00  0.00    +0.000 C 
ATOM     10  C   UNL     1       2.276   3.156  20.649  0.00  0.00    +0.000 C 
ATOM     11  C   UNL     1       0.864   3.594  20.292  0.00  0.00    +0.000 C 
ATOM     12  C   UNL     1       0.692   3.299  18.814  0.00  0.00    +0.000 C 
ATOM     13  C   UNL     1       2.103   3.288  18.285  0.00  0.00    +0.000 C 
ATOM     14  O   UNL     1       2.360   3.298  17.084  0.00  0.00    +0.000 OA
BRANCH   9  15
ATOM     15  C   UNL     1       4.037   2.051  19.420  0.00  0.00    +0.000 C 
ATOM     16  O   UNL     1       3.912   1.109  18.642  0.00  0.00    +0.000 OA
BRANCH  15  17
ATOM     17  O   UNL     1       5.059   2.165  20.308  0.00  0.00    +0.000 OA
ATOM     18  C   UNL     1       5.294   0.974  21.064  0.00  0.00    +0.000 C 
ENDBRANCH  15  17
ENDBRANCH   9  15
ENDBRANCH   1   9
BRANCH   1  21
ATOM     19  C   UNL     1       6.345   4.649  18.235  0.00  0.00    +0.000 C 
ATOM     20  O   UNL     1       6.910   5.062  19.234  0.00  0.00    +0.000 OA
ATOM     21  N   UNL     1       5.022   4.342  18.144  0.00  0.00    +0.000 N 
ATOM     22  H   UNL     1       4.690   4.066  17.225  0.00  0.00    +0.000 HD
BRANCH  19  24
ATOM     23  C   UNL     1       6.022   4.120  15.976  0.00  0.00    +0.000 C 
ATOM     24  O   UNL     1       6.938   4.415  17.038  0.00  0.00    +0.000 OA
ENDBRANCH  19  24
ENDBRANCH   1  21
TORSDOF 6
ENDMDL
MODEL 2
REMARK VINA RESULT:      -7.3      2.353      4.955
REMARK  Name = 
REMARK  9 active torsions:
REMARK  status: ('A' for Active; 'I' for Inactive)
REMARK    1  A    between atoms: C_1  and  O_2
REMARK    2  A    between atoms: O_2  and  C_3
REMARK    3  A    between atoms: N_5  and  C_6
REMARK    4  A    between atoms: C_6  and  C_7
REMARK    5  A    between atoms: C_6  and  C_14
REMARK    6  A    between atoms: C_11  and  C_12
REMARK    7  A    between atoms: C_14  and  C_15
REMARK    8  A    between atoms: C_15  and  O_17
REMARK    9  A    between atoms: O_17  and  C_18
REMARK                            x       y       z     vdW  Elec       q    Type
REMARK                         _______ _______ _______ _____ _____    ______ ____
ROOT
ATOM      1  C   UNL     1       4.056   5.943  18.497  0.00  0.00    +0.000 C 
ENDROOT
BRANCH   1   2
ATOM      2  C   UNL     1       3.013   4.866  18.821  0.00  0.00    +0.000 A 
ATOM      3  C   UNL     1       2.128   4.438  17.819  0.00  0.00    +0.000 A 
ATOM      4  C   UNL     1       1.129   3.503  18.091  0.00  0.00    +0.000 A 
ATOM      5  C   UNL     1       1.030   2.935  19.358  0.00  0.00    +0.000 A 
ATOM      6  C   UNL     1       1.931   3.297  20.363  0.00  0.00    +0.000 A 
ATOM      7  C   UNL     1       1.901   2.615  21.699  0.00  0.00    +0.000 C 
ATOM      8  C   UNL     1       2.904   4.274  20.092  0.00  0.00    +0.000 A 
ENDBRANCH   1   2
BRANCH   1   9
ATOM      9  C   UNL     1       5.315   5.424  17.748  0.00  0.00    +0.000 C 
ATOM     10  C   UNL     1       5.319   3.949  17.280  0.00  0.00    +0.000 C 
ATOM     11  C   UNL     1       4.984   3.925  15.797  0.00  0.00    +0.000 C 
ATOM     12  C   UNL     1       5.455   5.254  15.237  0.00  0.00    +0.000 C 
ATOM     13  C   UNL     1       5.468   6.164  16.438  0.00  0.00    +0.000 C 
ATOM     14  O   UNL     1       5.586   7.383  16.345  0.00  0.00    +0.000 OA
BRANCH   9  15
ATOM     15  C   UNL     1       6.486   5.518  18.699  0.00  0.00    +0.000 C 
ATOM     16  O   UNL     1       6.417   5.170  19.874  0.00  0.00    +0.000 OA
BRANCH  15  17
ATOM     17  O   UNL     1       7.641   5.893  18.089  0.00  0.00    +0.000 OA
ATOM     18  C   UNL     1       8.183   7.116  18.596  0.00  0.00    +0.000 C 
ENDBRANCH  15  17
ENDBRANCH   9  15
ENDBRANCH   1   9
BRANCH   1  21
ATOM     19  C   UNL     1       2.552   7.924  18.328  0.00  0.00    +0.000 C 
ATOM     20  O   UNL     1       2.182   7.913  19.490  0.00  0.00    +0.000 OA
ATOM     21  N   UNL     1       3.444   7.058  17.773  0.00  0.00    +0.000 N 
ATOM     22  H   UNL     1       3.603   7.160  16.775  0.00  0.00    +0.000 HD
BRANCH  19  24
ATOM     23  C   UNL     1       1.443   9.943  17.902  0.00  0.00    +0.000 C 
ATOM     24  O   UNL     1       2.142   8.805  17.382  0.00  0.00    +0.000 OA
ENDBRANCH  19  24
ENDBRANCH   1  21
TORSDOF 6
ENDMDL
MODEL 3
REMARK VINA RESULT:      -7.2      1.449      2.337
REMARK  Name = 
REMARK  9 active torsions:
REMARK  status: ('A' for Active; 'I' for Inactive)
REMARK    1  A    between atoms: C_1  and  O_2
REMARK    2  A    between atoms: O_2  and  C_3
REMARK    3  A    between atoms: N_5  and  C_6
REMARK    4  A    between atoms: C_6  and  C_7
REMARK    5  A    between atoms: C_6  and  C_14
REMARK    6  A    between atoms: C_11  and  C_12
REMARK    7  A    between atoms: C_14  and  C_15
REMARK    8  A    between atoms: C_15  and  O_17
REMARK    9  A    between atoms: O_17  and  C_18
REMARK                            x       y       z     vdW  Elec       q    Type
REMARK                         _______ _______ _______ _____ _____    ______ ____
ROOT
ATOM      1  C   UNL     1       3.667   5.465  19.301  0.00  0.00    +0.000 C 
ENDROOT
BRANCH   1   2
ATOM      2  C   UNL     1       2.834   6.749  19.217  0.00  0.00    +0.000 A 
ATOM      3  C   UNL     1       2.765   7.450  18.003  0.00  0.00    +0.000 A 
ATOM      4  C   UNL     1       2.064   8.653  17.904  0.00  0.00    +0.000 A 
ATOM      5  C   UNL     1       1.371   9.150  19.004  0.00  0.00    +0.000 A 
ATOM      6  C   UNL     1       1.372   8.447  20.211  0.00  0.00    +0.000 A 
ATOM      7  C   UNL     1       0.542   8.917  21.370  0.00  0.00    +0.000 C 
ATOM      8  C   UNL     1       2.118   7.262  20.315  0.00  0.00    +0.000 A 
ENDBRANCH   1   2
BRANCH   1   9
ATOM      9  C   UNL     1       2.856   4.150  19.126  0.00  0.00    +0.000 C 
ATOM     10  C   UNL     1       1.998   3.998  17.849  0.00  0.00    +0.000 C 
ATOM     11  C   UNL     1       2.763   3.120  16.870  0.00  0.00    +0.000 C 
ATOM     12  C   UNL     1       3.646   2.219  17.712  0.00  0.00    +0.000 C 
ATOM     13  C   UNL     1       3.805   2.980  19.003  0.00  0.00    +0.000 C 
ATOM     14  O   UNL     1       4.633   2.670  19.857  0.00  0.00    +0.000 OA
BRANCH   9  15
ATOM     15  C   UNL     1       1.858   4.073  20.258  0.00  0.00    +0.000 C 
ATOM     16  O   UNL     1       0.647   4.177  20.085  0.00  0.00    +0.000 OA
BRANCH  15  17
ATOM     17  O   UNL     1       2.425   3.746  21.449  0.00  0.00    +0.000 OA
ATOM     18  C   UNL     1       1.851   2.584  22.054  0.00  0.00    +0.000 C 
ENDBRANCH  15  17
ENDBRANCH   9  15
ENDBRANCH   1   9
BRANCH   1  21
ATOM     19  C   UNL     1       6.096   5.479  18.739  0.00  0.00    +0.000 C 
ATOM     20  O   UNL     1       6.501   5.365  19.884  0.00  0.00    +0.000 OA
ATOM     21  N   UNL     1       4.789   5.511  18.361  0.00  0.00    +0.000 N 
ATOM     22  H   UNL     1       4.613   5.671  17.374  0.00  0.00    +0.000 HD
BRANCH  19  24
ATOM     23  C   UNL     1       6.832   4.449  16.768  0.00  0.00    +0.000 C 
ATOM     24  O   UNL     1       6.879   5.587  17.637  0.00  0.00    +0.000 OA
ENDBRANCH  19  24
ENDBRANCH   1  21
TORSDOF 6
ENDMDL
MODEL 4
REMARK VINA RESULT:      -7.1      1.618      4.796
REMARK  Name = 
REMARK  9 active torsions:
REMARK  status: ('A' for Active; 'I' for Inactive)
REMARK    1  A    between atoms: C_1  and  O_2
REMARK    2  A    between atoms: O_2  and  C_3
REMARK    3  A    between atoms: N_5  and  C_6
REMARK    4  A    between atoms: C_6  and  C_7
REMARK    5  A    between atoms: C_6  and  C_14
REMARK    6  A    between atoms: C_11  and  C_12
REMARK    7  A    between atoms: C_14  and  C_15
REMARK    8  A    between atoms: C_15  and  O_17
REMARK    9  A    between atoms: O_17  and  C_18
REMARK                            x       y       z     vdW  Elec       q    Type
REMARK                         _______ _______ _______ _____ _____    ______ ____
ROOT
ATOM      1  C   UNL     1       4.498   5.051  16.962  0.00  0.00    +0.000 C 
ENDROOT
BRANCH   1   2
ATOM      2  C   UNL     1       3.698   5.986  17.876  0.00  0.00    +0.000 A 
ATOM      3  C   UNL     1       3.480   5.624  19.215  0.00  0.00    +0.000 A 
ATOM      4  C   UNL     1       2.708   6.421  20.061  0.00  0.00    +0.000 A 
ATOM      5  C   UNL     1       2.186   7.626  19.601  0.00  0.00    +0.000 A 
ATOM      6  C   UNL     1       2.432   8.044  18.290  0.00  0.00    +0.000 A 
ATOM      7  C   UNL     1       1.964   9.389  17.816  0.00  0.00    +0.000 C 
ATOM      8  C   UNL     1       3.170   7.213  17.433  0.00  0.00    +0.000 A 
ENDBRANCH   1   2
BRANCH   1   9
ATOM      9  C   UNL     1       5.964   5.495  16.700  0.00  0.00    +0.000 C 
ATOM     10  C   UNL     1       6.227   6.996  16.435  0.00  0.00    +0.000 C 
ATOM     11  C   UNL     1       6.748   7.617  17.722  0.00  0.00    +0.000 C 
ATOM     12  C   UNL     1       7.441   6.499  18.479  0.00  0.00    +0.000 C 
ATOM     13  C   UNL     1       6.799   5.249  17.937  0.00  0.00    +0.000 C 
ATOM     14  O   UNL     1       6.944   4.148  18.463  0.00  0.00    +0.000 OA
BRANCH   9  15
ATOM     15  C   UNL     1       6.434   4.805  15.440  0.00  0.00    +0.000 C 
ATOM     16  O   UNL     1       7.622   4.654  15.169  0.00  0.00    +0.000 OA
BRANCH  15  17
ATOM     17  O   UNL     1       5.420   4.259  14.720  0.00  0.00    +0.000 OA
ATOM     18  C   UNL     1       5.831   3.753  13.447  0.00  0.00    +0.000 C 
ENDBRANCH  15  17
ENDBRANCH   9  15
ENDBRANCH   1   9
BRANCH   1  21
ATOM     19  C   UNL     1       3.355   2.874  17.375  0.00  0.00    +0.000 C 
ATOM     20  O   UNL     1       2.297   3.173  16.846  0.00  0.00    +0.000 OA
ATOM     21  N   UNL     1       4.453   3.675  17.458  0.00  0.00    +0.000 N 
ATOM     22  H   UNL     1       5.238   3.302  17.984  0.00  0.00    +0.000 HD
BRANCH  19  24
ATOM     23  C   UNL     1       3.926   1.780  19.366  0.00  0.00    +0.000 C 
ATOM     24  O   UNL     1       3.627   1.685  17.968  0.00  0.00    +0.000 OA
ENDBRANCH  19  24
ENDBRANCH   1  21
TORSDOF 6
ENDMDL
MODEL 5
REMARK VINA RESULT:      -7.0      0.555      1.387
REMARK  Name = 
REMARK  9 active torsions:
REMARK  status: ('A' for Active; 'I' for Inactive)
REMARK    1  A    between atoms: C_1  and  O_2
REMARK    2  A    between atoms: O_2  and  C_3
REMARK    3  A    between atoms: N_5  and  C_6
REMARK    4  A    between atoms: C_6  and  C_7
REMARK    5  A    between atoms: C_6  and  C_14
REMARK    6  A    between atoms: C_11  and  C_12
REMARK    7  A    between atoms: C_14  and  C_15
REMARK    8  A    between atoms: C_15  and  O_17
REMARK    9  A    between atoms: O_17  and  C_18
REMARK                            x       y       z     vdW  Elec       q    Type
REMARK                         _______ _______ _______ _____ _____    ______ ____
ROOT
ATOM      1  C   UNL     1       3.880   4.435  19.386  0.00  0.00    +0.000 C 
ENDROOT
BRANCH   1   2
ATOM      2  C   UNL     1       3.071   5.729  19.537  0.00  0.00    +0.000 A 
ATOM      3  C   UNL     1       2.399   5.988  20.742  0.00  0.00    +0.000 A 
ATOM      4  C   UNL     1       1.607   7.126  20.895  0.00  0.00    +0.000 A 
ATOM      5  C   UNL     1       1.516   8.057  19.865  0.00  0.00    +0.000 A 
ATOM      6  C   UNL     1       2.218   7.858  18.674  0.00  0.00    +0.000 A 
ATOM      7  C   UNL     1       2.212   8.906  17.599  0.00  0.00    +0.000 C 
ATOM      8  C   UNL     1       2.975   6.687  18.511  0.00  0.00    +0.000 A 
ENDBRANCH   1   2
BRANCH   1   9
ATOM      9  C   UNL     1       3.027   3.135  19.357  0.00  0.00    +0.000 C 
ATOM     10  C   UNL     1       2.098   2.855  20.561  0.00  0.00    +0.000 C 
ATOM     11  C   UNL     1       0.684   3.251  20.166  0.00  0.00    +0.000 C 
ATOM     12  C   UNL     1       0.605   3.088  18.660  0.00  0.00    +0.000 C 
ATOM     13  C   UNL     1       2.040   3.200  18.214  0.00  0.00    +0.000 C 
ATOM     14  O   UNL     1       2.359   3.336  17.035  0.00  0.00    +0.000 OA
BRANCH   9  15
ATOM     15  C   UNL     1       3.980   1.962  19.339  0.00  0.00    +0.000 C 
ATOM     16  O   UNL     1       3.852   1.013  18.571  0.00  0.00    +0.000 OA
BRANCH  15  17
ATOM     17  O   UNL     1       5.053   2.133  20.155  0.00  0.00    +0.000 OA
ATOM     18  C   UNL     1       5.269   1.040  21.052  0.00  0.00    +0.000 C 
ENDBRANCH  15  17
ENDBRANCH   9  15
ENDBRANCH   1   9
BRANCH   1  21
ATOM     19  C   UNL     1       6.087   4.797  18.286  0.00  0.00    +0.000 C 
ATOM     20  O   UNL     1       6.719   4.994  19.311  0.00  0.00    +0.000 OA
ATOM     21  N   UNL     1       4.760   4.504  18.219  0.00  0.00    +0.000 N 
ATOM     22  H   UNL     1       4.367   4.428  17.285  0.00  0.00    +0.000 HD
BRANCH  19  24
ATOM     23  C   UNL     1       5.646   5.168  16.016  0.00  0.00    +0.000 C 
ATOM     24  O   UNL     1       6.599   4.830  17.031  0.00  0.00    +0.000 OA
ENDBRANCH  19  24
ENDBRANCH   1  21
TORSDOF 6
ENDMDL
MODEL 6
REMARK VINA RESULT:      -7.0      1.411      1.719
REMARK  Name = 
REMARK  9 active torsions:
REMARK  status: ('A' for Active; 'I' for Inactive)
REMARK    1  A    between atoms: C_1  and  O_2
REMARK    2  A    between atoms: O_2  and  C_3
REMARK    3  A    between atoms: N_5  and  C_6
REMARK    4  A    between atoms: C_6  and  C_7
REMARK    5  A    between atoms: C_6  and  C_14
REMARK    6  A    between atoms: C_11  and  C_12
REMARK    7  A    between atoms: C_14  and  C_15
REMARK    8  A    between atoms: C_15  and  O_17
REMARK    9  A    between atoms: O_17  and  C_18
REMARK                            x       y       z     vdW  Elec       q    Type
REMARK                         _______ _______ _______ _____ _____    ______ ____
ROOT
ATOM      1  C   UNL     1       3.762   5.949  18.619  0.00  0.00    +0.000 C 
ENDROOT
BRANCH   1   2
ATOM      2  C   UNL     1       2.757   7.087  18.834  0.00  0.00    +0.000 A 
ATOM      3  C   UNL     1       2.312   7.833  17.731  0.00  0.00    +0.000 A 
ATOM      4  C   UNL     1       1.444   8.913  17.895  0.00  0.00    +0.000 A 
ATOM      5  C   UNL     1       0.958   9.233  19.159  0.00  0.00    +0.000 A 
ATOM      6  C   UNL     1       1.336   8.475  20.270  0.00  0.00    +0.000 A 
ATOM      7  C   UNL     1       0.737   8.744  21.620  0.00  0.00    +0.000 C 
ATOM      8  C   UNL     1       2.247   7.419  20.102  0.00  0.00    +0.000 A 
ENDBRANCH   1   2
BRANCH   1   9
ATOM      9  C   UNL     1       3.293   4.560  19.138  0.00  0.00    +0.000 C 
ATOM     10  C   UNL     1       2.712   4.485  20.569  0.00  0.00    +0.000 C 
ATOM     11  C   UNL     1       1.195   4.450  20.461  0.00  0.00    +0.000 C 
ATOM     12  C   UNL     1       0.883   3.821  19.117  0.00  0.00    +0.000 C 
ATOM     13  C   UNL     1       2.128   4.074  18.306  0.00  0.00    +0.000 C 
ATOM     14  O   UNL     1       2.173   3.902  17.090  0.00  0.00    +0.000 OA
BRANCH   9  15
ATOM     15  C   UNL     1       4.500   3.653  19.175  0.00  0.00    +0.000 C 
ATOM     16  O   UNL     1       5.651   4.079  19.212  0.00  0.00    +0.000 OA
BRANCH  15  17
ATOM     17  O   UNL     1       4.178   2.339  19.301  0.00  0.00    +0.000 OA
ATOM     18  C   UNL     1       4.799   1.703  20.422  0.00  0.00    +0.000 C 
ENDBRANCH  15  17
ENDBRANCH   9  15
ENDBRANCH   1   9
BRANCH   1  21
ATOM     19  C   UNL     1       5.293   6.442  16.714  0.00  0.00    +0.000 C 
ATOM     20  O   UNL     1       6.127   7.050  17.364  0.00  0.00    +0.000 OA
ATOM     21  N   UNL     1       4.164   5.868  17.214  0.00  0.00    +0.000 N 
ATOM     22  H   UNL     1       3.537   5.449  16.533  0.00  0.00    +0.000 HD
BRANCH  19  24
ATOM     23  C   UNL     1       5.887   4.949  15.009  0.00  0.00    +0.000 C 
ATOM     24  O   UNL     1       5.346   6.224  15.377  0.00  0.00    +0.000 OA
ENDBRANCH  19  24
ENDBRANCH   1  21
TORSDOF 6
ENDMDL
MODEL 7
REMARK VINA RESULT:      -7.0      2.612      5.671
REMARK  Name = 
REMARK  9 active torsions:
REMARK  status: ('A' for Active; 'I' for Inactive)
REMARK    1  A    between atoms: C_1  and  O_2
REMARK    2  A    between atoms: O_2  and  C_3
REMARK    3  A    between atoms: N_5  and  C_6
REMARK    4  A    between atoms: C_6  and  C_7
REMARK    5  A    between atoms: C_6  and  C_14
REMARK    6  A    between atoms: C_11  and  C_12
REMARK    7  A    between atoms: C_14  and  C_15
REMARK    8  A    between atoms: C_15  and  O_17
REMARK    9  A    between atoms: O_17  and  C_18
REMARK                            x       y       z     vdW  Elec       q    Type
REMARK                         _______ _______ _______ _____ _____    ______ ____
ROOT
ATOM      1  C   UNL     1       4.874   5.741  18.021  0.00  0.00    +0.000 C 
ENDROOT
BRANCH   1   2
ATOM      2  C   UNL     1       4.304   4.346  18.301  0.00  0.00    +0.000 A 
ATOM      3  C   UNL     1       3.361   3.794  17.419  0.00  0.00    +0.000 A 
ATOM      4  C   UNL     1       2.777   2.553  17.671  0.00  0.00    +0.000 A 
ATOM      5  C   UNL     1       3.165   1.812  18.783  0.00  0.00    +0.000 A 
ATOM      6  C   UNL     1       4.143   2.306  19.651  0.00  0.00    +0.000 A 
ATOM      7  C   UNL     1       4.646   1.470  20.792  0.00  0.00    +0.000 C 
ATOM      8  C   UNL     1       4.691   3.577  19.414  0.00  0.00    +0.000 A 
ENDBRANCH   1   2
BRANCH   1   9
ATOM      9  C   UNL     1       6.099   5.763  17.065  0.00  0.00    +0.000 C 
ATOM     10  C   UNL     1       6.857   4.434  16.834  0.00  0.00    +0.000 C 
ATOM     11  C   UNL     1       6.402   3.858  15.502  0.00  0.00    +0.000 C 
ATOM     12  C   UNL     1       5.981   5.042  14.652  0.00  0.00    +0.000 C 
ATOM     13  C   UNL     1       5.646   6.107  15.664  0.00  0.00    +0.000 C 
ATOM     14  O   UNL     1       5.056   7.143  15.365  0.00  0.00    +0.000 OA
BRANCH   9  15
ATOM     15  C   UNL     1       7.135   6.684  17.667  0.00  0.00    +0.000 C 
ATOM     16  O   UNL     1       7.817   6.372  18.639  0.00  0.00    +0.000 OA
BRANCH  15  17
ATOM     17  O   UNL     1       7.323   7.820  16.947  0.00  0.00    +0.000 OA
ATOM     18  C   UNL     1       7.940   8.874  17.692  0.00  0.00    +0.000 C 
ENDBRANCH  15  17
ENDBRANCH   9  15
ENDBRANCH   1   9
BRANCH   1  21
ATOM     19  C   UNL     1       2.842   7.151  18.335  0.00  0.00    +0.000 C 
ATOM     20  O   UNL     1       2.728   6.960  19.534  0.00  0.00    +0.000 OA
ATOM     21  N   UNL     1       3.827   6.645  17.543  0.00  0.00    +0.000 N 
ATOM     22  H   UNL     1       3.749   6.847  16.550  0.00  0.00    +0.000 HD
BRANCH  19  24
ATOM     23  C   UNL     1       2.006   9.300  17.923  0.00  0.00    +0.000 C 
ATOM     24  O   UNL     1       2.010   7.909  17.579  0.00  0.00    +0.000 OA
ENDBRANCH  19  24
ENDBRANCH   1  21
TORSDOF 6
ENDMDL
MODEL 8
REMARK VINA RESULT:      -6.9      0.864      1.023
REMARK  Name = 
REMARK  9 active torsions:
REMARK  status: ('A' for Active; 'I' for Inactive)
REMARK    1  A    between atoms: C_1  and  O_2
REMARK    2  A    between atoms: O_2  and  C_3
REMARK    3  A    between atoms: N_5  and  C_6
REMARK    4  A    between atoms: C_6  and  C_7
REMARK    5  A    between atoms: C_6  and  C_14
REMARK    6  A    between atoms: C_11  and  C_12
REMARK    7  A    between atoms: C_14  and  C_15
REMARK    8  A    between atoms: C_15  and  O_17
REMARK    9  A    between atoms: O_17  and  C_18
REMARK                            x       y       z     vdW  Elec       q    Type
REMARK                         _______ _______ _______ _____ _____    ______ ____
ROOT
ATOM      1  C   UNL     1       3.900   4.750  19.697  0.00  0.00    +0.000 C 
ENDROOT
BRANCH   1   2
ATOM      2  C   UNL     1       3.123   6.033  19.384  0.00  0.00    +0.000 A 
ATOM      3  C   UNL     1       3.107   6.530  18.071  0.00  0.00    +0.000 A 
ATOM      4  C   UNL     1       2.459   7.726  17.760  0.00  0.00    +0.000 A 
ATOM      5  C   UNL     1       1.765   8.421  18.746  0.00  0.00    +0.000 A 
ATOM      6  C   UNL     1       1.712   7.924  20.051  0.00  0.00    +0.000 A 
ATOM      7  C   UNL     1       0.879   8.608  21.096  0.00  0.00    +0.000 C 
ATOM      8  C   UNL     1       2.407   6.745  20.365  0.00  0.00    +0.000 A 
ENDBRANCH   1   2
BRANCH   1   9
ATOM      9  C   UNL     1       3.016   3.490  19.915  0.00  0.00    +0.000 C 
ATOM     10  C   UNL     1       1.616   3.693  20.541  0.00  0.00    +0.000 C 
ATOM     11  C   UNL     1       0.590   3.660  19.418  0.00  0.00    +0.000 C 
ATOM     12  C   UNL     1       1.188   2.794  18.326  0.00  0.00    +0.000 C 
ATOM     13  C   UNL     1       2.671   2.872  18.579  0.00  0.00    +0.000 C 
ATOM     14  O   UNL     1       3.504   2.475  17.768  0.00  0.00    +0.000 OA
BRANCH   9  15
ATOM     15  C   UNL     1       3.735   2.589  20.892  0.00  0.00    +0.000 C 
ATOM     16  O   UNL     1       3.214   2.179  21.926  0.00  0.00    +0.000 OA
BRANCH  15  17
ATOM     17  O   UNL     1       4.950   2.177  20.445  0.00  0.00    +0.000 OA
ATOM     18  C   UNL     1       5.224   0.801  20.723  0.00  0.00    +0.000 C 
ENDBRANCH  15  17
ENDBRANCH   9  15
ENDBRANCH   1   9
BRANCH   1  21
ATOM     19  C   UNL     1       6.229   4.842  18.810  0.00  0.00    +0.000 C 
ATOM     20  O   UNL     1       6.729   5.356  19.797  0.00  0.00    +0.000 OA
ATOM     21  N   UNL     1       4.919   4.497  18.676  0.00  0.00    +0.000 N 
ATOM     22  H   UNL     1       4.644   4.133  17.769  0.00  0.00    +0.000 HD
BRANCH  19  24
ATOM     23  C   UNL     1       6.078   4.520  16.495  0.00  0.00    +0.000 C 
ATOM     24  O   UNL     1       6.892   4.515  17.674  0.00  0.00    +0.000 OA
ENDBRANCH  19  24
ENDBRANCH   1  21
TORSDOF 6
ENDMDL
MODEL 9
REMARK VINA RESULT:      -6.8      0.614      1.049
REMARK  Name = 
REMARK  9 active torsions:
REMARK  status: ('A' for Active; 'I' for Inactive)
REMARK    1  A    between atoms: C_1  and  O_2
REMARK    2  A    between atoms: O_2  and  C_3
REMARK    3  A    between atoms: N_5  and  C_6
REMARK    4  A    between atoms: C_6  and  C_7
REMARK    5  A    between atoms: C_6  and  C_14
REMARK    6  A    between atoms: C_11  and  C_12
REMARK    7  A    between atoms: C_14  and  C_15
REMARK    8  A    between atoms: C_15  and  O_17
REMARK    9  A    between atoms: O_17  and  C_18
REMARK                            x       y       z     vdW  Elec       q    Type
REMARK                         _______ _______ _______ _____ _____    ______ ____
ROOT
ATOM      1  C   UNL     1       3.968   4.786  19.497  0.00  0.00    +0.000 C 
ENDROOT
BRANCH   1   2
ATOM      2  C   UNL     1       3.192   6.092  19.292  0.00  0.00    +0.000 A 
ATOM      3  C   UNL     1       3.230   6.730  18.042  0.00  0.00    +0.000 A 
ATOM      4  C   UNL     1       2.585   7.949  17.834  0.00  0.00    +0.000 A 
ATOM      5  C   UNL     1       1.840   8.528  18.858  0.00  0.00    +0.000 A 
ATOM      6  C   UNL     1       1.734   7.891  20.097  0.00  0.00    +0.000 A 
ATOM      7  C   UNL     1       0.848   8.451  21.171  0.00  0.00    +0.000 C 
ATOM      8  C   UNL     1       2.426   6.688  20.311  0.00  0.00    +0.000 A 
ENDBRANCH   1   2
BRANCH   1   9
ATOM      9  C   UNL     1       3.084   3.511  19.582  0.00  0.00    +0.000 C 
ATOM     10  C   UNL     1       2.195   3.333  20.835  0.00  0.00    +0.000 C 
ATOM     11  C   UNL     1       0.776   3.740  20.467  0.00  0.00    +0.000 C 
ATOM     12  C   UNL     1       0.637   3.484  18.978  0.00  0.00    +0.000 C 
ATOM     13  C   UNL     1       2.056   3.530  18.474  0.00  0.00    +0.000 C 
ATOM     14  O   UNL     1       2.333   3.582  17.278  0.00  0.00    +0.000 OA
BRANCH   9  15
ATOM     15  C   UNL     1       4.007   2.314  19.605  0.00  0.00    +0.000 C 
ATOM     16  O   UNL     1       5.006   2.259  20.316  0.00  0.00    +0.000 OA
BRANCH  15  17
ATOM     17  O   UNL     1       3.545   1.268  18.871  0.00  0.00    +0.000 OA
ATOM     18  C   UNL     1       4.358   0.964  17.735  0.00  0.00    +0.000 C 
ENDBRANCH  15  17
ENDBRANCH   9  15
ENDBRANCH   1   9
BRANCH   1  21
ATOM     19  C   UNL     1       6.316   4.944  18.672  0.00  0.00    +0.000 C 
ATOM     20  O   UNL     1       6.800   5.345  19.717  0.00  0.00    +0.000 OA
ATOM     21  N   UNL     1       5.005   4.632  18.476  0.00  0.00    +0.000 N 
ATOM     22  H   UNL     1       4.746   4.369  17.530  0.00  0.00    +0.000 HD
BRANCH  19  24
ATOM     23  C   UNL     1       6.171   4.431  16.391  0.00  0.00    +0.000 C 
ATOM     24  O   UNL     1       7.000   4.733  17.521  0.00  0.00    +0.000 OA
ENDBRANCH  19  24
ENDBRANCH   1  21
TORSDOF 6
ENDMDL
