MODEL 1
REMARK VINA RESULT:      -7.9      0.000      0.000
REMARK  Name = 
REMARK  4 active torsions:
REMARK  status: ('A' for Active; 'I' for Inactive)
REMARK    1  A    between atoms: C_6  and  C_7
REMARK    2  A    between atoms: C_7  and  C_8
REMARK    3  A    between atoms: C_8  and  C_9
REMARK    4  A    between atoms: N_14  and  C_15
REMARK                            x       y       z     vdW  Elec       q    Type
REMARK                         _______ _______ _______ _____ _____    ______ ____
ROOT
ATOM      1  C   UNL     1       3.355   6.314  18.648  0.00  0.00    +0.000 C 
ATOM      2  O   UNL     1       3.466   5.421  19.490  0.00  0.00    +0.000 OA
ATOM      3  N   UNL     1       2.504   7.389  18.822  0.00  0.00    +0.000 N 
ATOM      4  C   UNL     1       1.695   7.442  20.046  0.00  0.00    +0.000 C 
ATOM      5  C   UNL     1       1.481   8.886  20.535  0.00  0.00    +0.000 C 
ATOM      6  N   UNL     1       0.959   9.706  19.428  0.00  0.00    +0.000 N 
ATOM      7  C   UNL     1       1.835   9.723  18.246  0.00  0.00    +0.000 C 
ATOM      8  C   UNL     1       2.042   8.282  17.741  0.00  0.00    +0.000 C 
ENDROOT
BRANCH   6   9
ATOM      9  C   UNL     1      -0.125  10.553  19.587  0.00  0.00    +0.000 A 
ATOM     10  C   UNL     1      -0.238  11.323  20.763  0.00  0.00    +0.000 A 
ATOM     11  C   UNL     1      -1.326  12.167  21.012  0.00  0.00    +0.000 A 
ATOM     12  C   UNL     1      -2.339  12.288  20.074  0.00  0.00    +0.000 A 
ATOM     13  C   UNL     1      -2.267  11.552  18.897  0.00  0.00    +0.000 A 
ATOM     14  C   UNL     1      -1.188  10.685  18.659  0.00  0.00    +0.000 A 
ATOM     15 CL   UNL     1      -1.339   9.705  17.232  0.00  0.00    +0.000 Cl
ENDBRANCH   6   9
BRANCH   1  16
ATOM     16  C   UNL     1       4.227   6.328  17.406  0.00  0.00    +0.000 C 
BRANCH  16  17
ATOM     17  C   UNL     1       4.647   4.930  16.953  0.00  0.00    +0.000 C 
BRANCH  17  23
ATOM     18  O   UNL     1       7.641   5.370  20.325  0.00  0.00    +0.000 OA
ATOM     19  C   UNL     1       7.241   5.325  19.182  0.00  0.00    +0.000 C 
ATOM     20  N   UNL     1       7.652   6.100  18.155  0.00  0.00    +0.000 N 
ATOM     21  C   UNL     1       7.085   5.705  16.989  0.00  0.00    +0.000 C 
ATOM     22  O   UNL     1       7.336   6.186  15.892  0.00  0.00    +0.000 OA
ATOM     23  C   UNL     1       6.096   4.574  17.282  0.00  0.00    +0.000 C 
ATOM     24  N   UNL     1       6.285   4.457  18.710  0.00  0.00    +0.000 N 
ATOM     25  H   UNL     1       8.374   6.799  18.231  0.00  0.00    +0.000 HD
ATOM     26  H   UNL     1       5.924   3.713  19.294  0.00  0.00    +0.000 HD
ENDBRANCH  17  23
ENDBRANCH  16  17
ENDBRANCH   1  16
TORSDOF 4
ENDMDL
MODEL 2
REMARK VINA RESULT:      -7.7      1.119      1.471
REMARK  Name = 
REMARK  4 active torsions:
REMARK  status: ('A' for Active; 'I' for Inactive)
REMARK    1  A    between atoms: C_6  and  C_7
REMARK    2  A    between atoms: C_7  and  C_8
REMARK    3  A    between atoms: C_8  and  C_9
REMARK    4  A    between atoms: N_14  and  C_15
REMARK                            x       y       z     vdW  Elec       q    Type
REMARK                         _______ _______ _______ _____ _____    ______ ____
ROOT
ATOM      1  C   UNL     1       3.406   6.472  18.760  0.00  0.00    +0.000 C 
ATOM      2  O   UNL     1       3.522   5.634  19.655  0.00  0.00    +0.000 OA
ATOM      3  N   UNL     1       2.484   7.500  18.827  0.00  0.00    +0.000 N 
ATOM      4  C   UNL     1       1.607   7.569  20.001  0.00  0.00    +0.000 C 
ATOM      5  C   UNL     1       1.281   9.021  20.396  0.00  0.00    +0.000 C 
ATOM      6  N   UNL     1       0.775   9.747  19.218  0.00  0.00    +0.000 N 
ATOM      7  C   UNL     1       1.713   9.754  18.085  0.00  0.00    +0.000 C 
ATOM      8  C   UNL     1       2.032   8.304  17.674  0.00  0.00    +0.000 C 
ENDROOT
BRANCH   6   9
ATOM      9  C   UNL     1      -0.364  10.532  19.270  0.00  0.00    +0.000 A 
ATOM     10  C   UNL     1      -1.446  10.244  18.413  0.00  0.00    +0.000 A 
ATOM     11  C   UNL     1      -2.611  11.019  18.379  0.00  0.00    +0.000 A 
ATOM     12  C   UNL     1      -2.745  12.107  19.227  0.00  0.00    +0.000 A 
ATOM     13  C   UNL     1      -1.706  12.426  20.094  0.00  0.00    +0.000 A 
ATOM     14  C   UNL     1      -0.526  11.663  20.108  0.00  0.00    +0.000 A 
ATOM     15 CL   UNL     1       0.742  12.298  21.112  0.00  0.00    +0.000 Cl
ENDBRANCH   6   9
BRANCH   1  16
ATOM     16  C   UNL     1       4.344   6.474  17.567  0.00  0.00    +0.000 C 
BRANCH  16  17
ATOM     17  C   UNL     1       4.715   5.068  17.095  0.00  0.00    +0.000 C 
BRANCH  17  23
ATOM     18  O   UNL     1       7.730   5.506  20.449  0.00  0.00    +0.000 OA
ATOM     19  C   UNL     1       7.328   5.425  19.308  0.00  0.00    +0.000 C 
ATOM     20  N   UNL     1       7.783   6.121  18.244  0.00  0.00    +0.000 N 
ATOM     21  C   UNL     1       7.195   5.700  17.098  0.00  0.00    +0.000 C 
ATOM     22  O   UNL     1       7.473   6.108  15.979  0.00  0.00    +0.000 OA
ATOM     23  C   UNL     1       6.140   4.645  17.446  0.00  0.00    +0.000 C 
ATOM     24  N   UNL     1       6.322   4.591  18.879  0.00  0.00    +0.000 N 
ATOM     25  H   UNL     1       8.545   6.779  18.286  0.00  0.00    +0.000 HD
ATOM     26  H   UNL     1       5.918   3.901  19.500  0.00  0.00    +0.000 HD
ENDBRANCH  17  23
ENDBRANCH  16  17
ENDBRANCH   1  16
TORSDOF 4
ENDMDL
MODEL 3
REMARK VINA RESULT:      -7.6      1.244      1.290
REMARK  Name = 
REMARK  4 active torsions:
REMARK  status: ('A' for Active; 'I' for Inactive)
REMARK    1  A    between atoms: C_6  and  C_7
REMARK    2  A    between atoms: C_7  and  C_8
REMARK    3  A    between atoms: C_8  and  C_9
REMARK    4  A    between atoms: N_14  and  C_15
REMARK                            x       y       z     vdW  Elec       q    Type
REMARK                         _______ _______ _______ _____ _____    ______ ____
ROOT
ATOM      1  C   UNL     1       3.146   6.063  19.429  0.00  0.00    +0.000 C 
ATOM      2  O   UNL     1       3.118   5.194  20.302  0.00  0.00    +0.000 OA
ATOM      3  N   UNL     1       2.335   7.181  19.475  0.00  0.00    +0.000 N 
ATOM      4  C   UNL     1       1.398   7.313  20.597  0.00  0.00    +0.000 C 
ATOM      5  C   UNL     1       1.202   8.780  21.018  0.00  0.00    +0.000 C 
ATOM      6  N   UNL     1       0.849   9.586  19.836  0.00  0.00    +0.000 N 
ATOM      7  C   UNL     1       1.852   9.523  18.761  0.00  0.00    +0.000 C 
ATOM      8  C   UNL     1       2.042   8.058  18.324  0.00  0.00    +0.000 C 
ENDROOT
BRANCH   6   9
ATOM      9  C   UNL     1      -0.202  10.487  19.846  0.00  0.00    +0.000 A 
ATOM     10  C   UNL     1      -0.417  11.290  20.986  0.00  0.00    +0.000 A 
ATOM     11  C   UNL     1      -1.484  12.190  21.086  0.00  0.00    +0.000 A 
ATOM     12  C   UNL     1      -2.370  12.336  20.030  0.00  0.00    +0.000 A 
ATOM     13  C   UNL     1      -2.194  11.569  18.884  0.00  0.00    +0.000 A 
ATOM     14  C   UNL     1      -1.139  10.646  18.795  0.00  0.00    +0.000 A 
ATOM     15 CL   UNL     1      -1.166   9.640  17.379  0.00  0.00    +0.000 Cl
ENDBRANCH   6   9
BRANCH   1  16
ATOM     16  C   UNL     1       4.151   5.995  18.295  0.00  0.00    +0.000 C 
BRANCH  16  17
ATOM     17  C   UNL     1       3.827   4.908  17.271  0.00  0.00    +0.000 C 
BRANCH  17  23
ATOM     18  O   UNL     1       8.300   4.187  17.334  0.00  0.00    +0.000 OA
ATOM     19  C   UNL     1       7.236   4.585  16.912  0.00  0.00    +0.000 C 
ATOM     20  N   UNL     1       7.011   5.754  16.275  0.00  0.00    +0.000 N 
ATOM     21  C   UNL     1       5.732   5.830  15.832  0.00  0.00    +0.000 C 
ATOM     22  O   UNL     1       5.278   6.747  15.163  0.00  0.00    +0.000 OA
ATOM     23  C   UNL     1       4.972   4.590  16.311  0.00  0.00    +0.000 C 
ATOM     24  N   UNL     1       6.044   3.905  16.998  0.00  0.00    +0.000 N 
ATOM     25  H   UNL     1       7.731   6.424  16.056  0.00  0.00    +0.000 HD
ATOM     26  H   UNL     1       6.011   2.954  17.343  0.00  0.00    +0.000 HD
ENDBRANCH  17  23
ENDBRANCH  16  17
ENDBRANCH   1  16
TORSDOF 4
ENDMDL
MODEL 4
REMARK VINA RESULT:      -7.6      2.022      3.013
REMARK  Name = 
REMARK  4 active torsions:
REMARK  status: ('A' for Active; 'I' for Inactive)
REMARK    1  A    between atoms: C_6  and  C_7
REMARK    2  A    between atoms: C_7  and  C_8
REMARK    3  A    between atoms: C_8  and  C_9
REMARK    4  A    between atoms: N_14  and  C_15
REMARK                            x       y       z     vdW  Elec       q    Type
REMARK                         _______ _______ _______ _____ _____    ______ ____
ROOT
ATOM      1  C   UNL     1       2.435   3.500  18.312  0.00  0.00    +0.000 C 
ATOM      2  O   UNL     1       2.054   2.479  18.887  0.00  0.00    +0.000 OA
ATOM      3  N   UNL     1       2.181   4.765  18.808  0.00  0.00    +0.000 N 
ATOM      4  C   UNL     1       1.412   4.879  20.053  0.00  0.00    +0.000 C 
ATOM      5  C   UNL     1       1.871   6.073  20.909  0.00  0.00    +0.000 C 
ATOM      6  N   UNL     1       1.875   7.295  20.084  0.00  0.00    +0.000 N 
ATOM      7  C   UNL     1       2.733   7.197  18.893  0.00  0.00    +0.000 C 
ATOM      8  C   UNL     1       2.270   6.012  18.024  0.00  0.00    +0.000 C 
ENDROOT
BRANCH   6   9
ATOM      9  C   UNL     1       1.310   8.480  20.522  0.00  0.00    +0.000 A 
ATOM     10  C   UNL     1       1.059   8.663  21.898  0.00  0.00    +0.000 A 
ATOM     11  C   UNL     1       0.452   9.816  22.409  0.00  0.00    +0.000 A 
ATOM     12  C   UNL     1       0.090  10.846  21.555  0.00  0.00    +0.000 A 
ATOM     13  C   UNL     1       0.324  10.712  20.191  0.00  0.00    +0.000 A 
ATOM     14  C   UNL     1       0.909   9.544  19.676  0.00  0.00    +0.000 A 
ATOM     15 CL   UNL     1       0.964   9.458  17.941  0.00  0.00    +0.000 Cl
ENDBRANCH   6   9
BRANCH   1  16
ATOM     16  C   UNL     1       3.293   3.417  17.063  0.00  0.00    +0.000 C 
BRANCH  16  17
ATOM     17  C   UNL     1       4.790   3.362  17.367  0.00  0.00    +0.000 C 
BRANCH  17  23
ATOM     18  O   UNL     1       7.183   5.228  14.002  0.00  0.00    +0.000 OA
ATOM     19  C   UNL     1       6.875   4.965  15.144  0.00  0.00    +0.000 C 
ATOM     20  N   UNL     1       7.720   4.713  16.167  0.00  0.00    +0.000 N 
ATOM     21  C   UNL     1       7.044   4.573  17.334  0.00  0.00    +0.000 C 
ATOM     22  O   UNL     1       7.566   4.410  18.428  0.00  0.00    +0.000 OA
ATOM     23  C   UNL     1       5.542   4.652  17.045  0.00  0.00    +0.000 C 
ATOM     24  N   UNL     1       5.587   4.880  15.618  0.00  0.00    +0.000 N 
ATOM     25  H   UNL     1       8.723   4.745  16.089  0.00  0.00    +0.000 HD
ATOM     26  H   UNL     1       4.800   5.143  15.038  0.00  0.00    +0.000 HD
ENDBRANCH  17  23
ENDBRANCH  16  17
ENDBRANCH   1  16
TORSDOF 4
ENDMDL
MODEL 5
REMARK VINA RESULT:      -7.4      2.135      3.176
REMARK  Name = 
REMARK  4 active torsions:
REMARK  status: ('A' for Active; 'I' for Inactive)
REMARK    1  A    between atoms: C_6  and  C_7
REMARK    2  A    between atoms: C_7  and  C_8
REMARK    3  A    between atoms: C_8  and  C_9
REMARK    4  A    between atoms: N_14  and  C_15
REMARK                            x       y       z     vdW  Elec       q    Type
REMARK                         _______ _______ _______ _____ _____    ______ ____
ROOT
ATOM      1  C   UNL     1       1.876   2.930  18.813  0.00  0.00    +0.000 C 
ATOM      2  O   UNL     1       1.560   2.041  19.605  0.00  0.00    +0.000 OA
ATOM      3  N   UNL     1       1.786   4.271  19.136  0.00  0.00    +0.000 N 
ATOM      4  C   UNL     1       1.273   4.633  20.462  0.00  0.00    +0.000 C 
ATOM      5  C   UNL     1       1.946   5.901  21.017  0.00  0.00    +0.000 C 
ATOM      6  N   UNL     1       1.855   6.981  20.018  0.00  0.00    +0.000 N 
ATOM      7  C   UNL     1       2.467   6.637  18.725  0.00  0.00    +0.000 C 
ATOM      8  C   UNL     1       1.787   5.376  18.156  0.00  0.00    +0.000 C 
ENDROOT
BRANCH   6   9
ATOM      9  C   UNL     1       1.445   8.260  20.352  0.00  0.00    +0.000 A 
ATOM     10  C   UNL     1       1.127   8.559  21.693  0.00  0.00    +0.000 A 
ATOM     11  C   UNL     1       0.664   9.816  22.098  0.00  0.00    +0.000 A 
ATOM     12  C   UNL     1       0.524  10.836  21.169  0.00  0.00    +0.000 A 
ATOM     13  C   UNL     1       0.831  10.588  19.836  0.00  0.00    +0.000 A 
ATOM     14  C   UNL     1       1.269   9.318  19.426  0.00  0.00    +0.000 A 
ATOM     15 CL   UNL     1       1.434   9.122  17.708  0.00  0.00    +0.000 Cl
ENDBRANCH   6   9
BRANCH   1  16
ATOM     16  C   UNL     1       2.476   2.593  17.461  0.00  0.00    +0.000 C 
BRANCH  16  17
ATOM     17  C   UNL     1       4.004   2.560  17.475  0.00  0.00    +0.000 C 
BRANCH  17  23
ATOM     18  O   UNL     1       7.960   4.428  16.296  0.00  0.00    +0.000 OA
ATOM     19  C   UNL     1       6.934   4.282  16.924  0.00  0.00    +0.000 C 
ATOM     20  N   UNL     1       6.776   4.445  18.255  0.00  0.00    +0.000 N 
ATOM     21  C   UNL     1       5.474   4.320  18.610  0.00  0.00    +0.000 C 
ATOM     22  O   UNL     1       5.039   4.490  19.741  0.00  0.00    +0.000 OA
ATOM     23  C   UNL     1       4.661   3.935  17.371  0.00  0.00    +0.000 C 
ATOM     24  N   UNL     1       5.719   3.927  16.386  0.00  0.00    +0.000 N 
ATOM     25  H   UNL     1       7.512   4.738  18.878  0.00  0.00    +0.000 HD
ATOM     26  H   UNL     1       5.592   3.864  15.384  0.00  0.00    +0.000 HD
ENDBRANCH  17  23
ENDBRANCH  16  17
ENDBRANCH   1  16
TORSDOF 4
ENDMDL
MODEL 6
REMARK VINA RESULT:      -7.3      1.309      2.071
REMARK  Name = 
REMARK  4 active torsions:
REMARK  status: ('A' for Active; 'I' for Inactive)
REMARK    1  A    between atoms: C_6  and  C_7
REMARK    2  A    between atoms: C_7  and  C_8
REMARK    3  A    between atoms: C_8  and  C_9
REMARK    4  A    between atoms: N_14  and  C_15
REMARK                            x       y       z     vdW  Elec       q    Type
REMARK                         _______ _______ _______ _____ _____    ______ ____
ROOT
ATOM      1  C   UNL     1       3.366   6.284  18.524  0.00  0.00    +0.000 C 
ATOM      2  O   UNL     1       3.465   5.364  19.337  0.00  0.00    +0.000 OA
ATOM      3  N   UNL     1       2.529   7.365  18.732  0.00  0.00    +0.000 N 
ATOM      4  C   UNL     1       1.721   7.391  19.957  0.00  0.00    +0.000 C 
ATOM      5  C   UNL     1       1.527   8.821  20.491  0.00  0.00    +0.000 C 
ATOM      6  N   UNL     1       1.016   9.683  19.410  0.00  0.00    +0.000 N 
ATOM      7  C   UNL     1       1.892   9.725  18.229  0.00  0.00    +0.000 C 
ATOM      8  C   UNL     1       2.079   8.298  17.679  0.00  0.00    +0.000 C 
ENDROOT
BRANCH   6   9
ATOM      9  C   UNL     1      -0.056  10.538  19.596  0.00  0.00    +0.000 A 
ATOM     10  C   UNL     1      -0.128  11.317  20.769  0.00  0.00    +0.000 A 
ATOM     11  C   UNL     1      -1.202  12.171  21.046  0.00  0.00    +0.000 A 
ATOM     12  C   UNL     1      -2.242  12.294  20.137  0.00  0.00    +0.000 A 
ATOM     13  C   UNL     1      -2.211  11.549  18.964  0.00  0.00    +0.000 A 
ATOM     14  C   UNL     1      -1.146  10.672  18.700  0.00  0.00    +0.000 A 
ATOM     15 CL   UNL     1      -1.347   9.685  17.285  0.00  0.00    +0.000 Cl
ENDBRANCH   6   9
BRANCH   1  16
ATOM     16  C   UNL     1       4.237   6.325  17.283  0.00  0.00    +0.000 C 
BRANCH  16  17
ATOM     17  C   UNL     1       5.666   6.786  17.569  0.00  0.00    +0.000 C 
BRANCH  17  23
ATOM     18  O   UNL     1       5.967   3.946  14.052  0.00  0.00    +0.000 OA
ATOM     19  C   UNL     1       6.275   4.459  15.106  0.00  0.00    +0.000 C 
ATOM     20  N   UNL     1       6.763   3.828  16.195  0.00  0.00    +0.000 N 
ATOM     21  C   UNL     1       7.112   4.716  17.157  0.00  0.00    +0.000 C 
ATOM     22  O   UNL     1       7.647   4.423  18.218  0.00  0.00    +0.000 OA
ATOM     23  C   UNL     1       6.726   6.123  16.691  0.00  0.00    +0.000 C 
ATOM     24  N   UNL     1       6.189   5.802  15.389  0.00  0.00    +0.000 N 
ATOM     25  H   UNL     1       6.953   2.839  16.235  0.00  0.00    +0.000 HD
ATOM     26  H   UNL     1       5.949   6.472  14.668  0.00  0.00    +0.000 HD
ENDBRANCH  17  23
ENDBRANCH  16  17
ENDBRANCH   1  16
TORSDOF 4
ENDMDL
MODEL 7
REMARK VINA RESULT:      -7.2      2.786      3.484
REMARK  Name = 
REMARK  4 active torsions:
REMARK  status: ('A' for Active; 'I' for Inactive)
REMARK    1  A    between atoms: C_6  and  C_7
REMARK    2  A    between atoms: C_7  and  C_8
REMARK    3  A    between atoms: C_8  and  C_9
REMARK    4  A    between atoms: N_14  and  C_15
REMARK                            x       y       z     vdW  Elec       q    Type
REMARK                         _______ _______ _______ _____ _____    ______ ____
ROOT
ATOM      1  C   UNL     1       2.824   6.442  18.923  0.00  0.00    +0.000 C 
ATOM      2  O   UNL     1       3.413   6.144  17.883  0.00  0.00    +0.000 OA
ATOM      3  N   UNL     1       2.179   7.654  19.084  0.00  0.00    +0.000 N 
ATOM      4  C   UNL     1       2.225   8.616  17.977  0.00  0.00    +0.000 C 
ATOM      5  C   UNL     1       0.930   9.441  17.874  0.00  0.00    +0.000 C 
ATOM      6  N   UNL     1       0.625  10.041  19.186  0.00  0.00    +0.000 N 
ATOM      7  C   UNL     1       0.481   9.051  20.265  0.00  0.00    +0.000 C 
ATOM      8  C   UNL     1       1.780   8.231  20.384  0.00  0.00    +0.000 C 
ENDROOT
BRANCH   6   9
ATOM      9  C   UNL     1       0.282  11.375  19.323  0.00  0.00    +0.000 A 
ATOM     10  C   UNL     1      -0.985  11.716  19.842  0.00  0.00    +0.000 A 
ATOM     11  C   UNL     1      -1.418  13.041  19.969  0.00  0.00    +0.000 A 
ATOM     12  C   UNL     1      -0.581  14.083  19.599  0.00  0.00    +0.000 A 
ATOM     13  C   UNL     1       0.679  13.794  19.088  0.00  0.00    +0.000 A 
ATOM     14  C   UNL     1       1.102  12.463  18.935  0.00  0.00    +0.000 A 
ATOM     15 CL   UNL     1       2.622  12.270  18.116  0.00  0.00    +0.000 Cl
ENDBRANCH   6   9
BRANCH   1  16
ATOM     16  C   UNL     1       2.696   5.445  20.060  0.00  0.00    +0.000 C 
BRANCH  16  17
ATOM     17  C   UNL     1       1.549   4.454  19.862  0.00  0.00    +0.000 C 
BRANCH  17  23
ATOM     18  O   UNL     1       5.210   1.860  20.491  0.00  0.00    +0.000 OA
ATOM     19  C   UNL     1       4.203   2.263  19.950  0.00  0.00    +0.000 C 
ATOM     20  N   UNL     1       3.993   2.373  18.621  0.00  0.00    +0.000 N 
ATOM     21  C   UNL     1       2.717   2.744  18.358  0.00  0.00    +0.000 C 
ATOM     22  O   UNL     1       2.236   2.849  17.238  0.00  0.00    +0.000 OA
ATOM     23  C   UNL     1       1.997   3.004  19.685  0.00  0.00    +0.000 C 
ATOM     24  N   UNL     1       3.067   2.681  20.602  0.00  0.00    +0.000 N 
ATOM     25  H   UNL     1       4.664   2.099  17.920  0.00  0.00    +0.000 HD
ATOM     26  H   UNL     1       2.972   2.575  21.604  0.00  0.00    +0.000 HD
ENDBRANCH  17  23
ENDBRANCH  16  17
ENDBRANCH   1  16
TORSDOF 4
ENDMDL
MODEL 8
REMARK VINA RESULT:      -7.2      1.497      2.297
REMARK  Name = 
REMARK  4 active torsions:
REMARK  status: ('A' for Active; 'I' for Inactive)
REMARK    1  A    between atoms: C_6  and  C_7
REMARK    2  A    between atoms: C_7  and  C_8
REMARK    3  A    between atoms: C_8  and  C_9
REMARK    4  A    between atoms: N_14  and  C_15
REMARK                            x       y       z     vdW  Elec       q    Type
REMARK                         _______ _______ _______ _____ _____    ______ ____
ROOT
ATOM      1  C   UNL     1       2.534   7.123  19.233  0.00  0.00    +0.000 C 
ATOM      2  O   UNL     1       2.691   6.105  19.908  0.00  0.00    +0.000 OA
ATOM      3  N   UNL     1       1.757   8.182  19.664  0.00  0.00    +0.000 N 
ATOM      4  C   UNL     1       1.086   8.065  20.964  0.00  0.00    +0.000 C 
ATOM      5  C   UNL     1       0.993   9.418  21.692  0.00  0.00    +0.000 C 
ATOM      6  N   UNL     1       0.396  10.419  20.789  0.00  0.00    +0.000 N 
ATOM      7  C   UNL     1       1.142  10.597  19.534  0.00  0.00    +0.000 C 
ATOM      8  C   UNL     1       1.226   9.249  18.793  0.00  0.00    +0.000 C 
ENDROOT
BRANCH   6   9
ATOM      9  C   UNL     1      -0.623  11.262  21.197  0.00  0.00    +0.000 A 
ATOM     10  C   UNL     1      -0.723  11.623  22.557  0.00  0.00    +0.000 A 
ATOM     11  C   UNL     1      -1.752  12.435  23.050  0.00  0.00    +0.000 A 
ATOM     12  C   UNL     1      -2.713  12.938  22.186  0.00  0.00    +0.000 A 
ATOM     13  C   UNL     1      -2.651  12.612  20.836  0.00  0.00    +0.000 A 
ATOM     14  C   UNL     1      -1.634  11.775  20.347  0.00  0.00    +0.000 A 
ATOM     15 CL   UNL     1      -1.803  11.320  18.679  0.00  0.00    +0.000 Cl
ENDBRANCH   6   9
BRANCH   1  16
ATOM     16  C   UNL     1       3.269   7.308  17.918  0.00  0.00    +0.000 C 
BRANCH  16  17
ATOM     17  C   UNL     1       3.974   6.039  17.442  0.00  0.00    +0.000 C 
BRANCH  17  23
ATOM     18  O   UNL     1       7.651   5.211  14.927  0.00  0.00    +0.000 OA
ATOM     19  C   UNL     1       6.963   5.254  15.924  0.00  0.00    +0.000 C 
ATOM     20  N   UNL     1       6.914   4.330  16.908  0.00  0.00    +0.000 N 
ATOM     21  C   UNL     1       6.130   4.749  17.931  0.00  0.00    +0.000 C 
ATOM     22  O   UNL     1       5.966   4.141  18.980  0.00  0.00    +0.000 OA
ATOM     23  C   UNL     1       5.497   6.090  17.548  0.00  0.00    +0.000 C 
ATOM     24  N   UNL     1       6.098   6.274  16.246  0.00  0.00    +0.000 N 
ATOM     25  H   UNL     1       7.480   3.497  16.927  0.00  0.00    +0.000 HD
ATOM     26  H   UNL     1       6.064   7.122  15.695  0.00  0.00    +0.000 HD
ENDBRANCH  17  23
ENDBRANCH  16  17
ENDBRANCH   1  16
TORSDOF 4
ENDMDL
MODEL 9
REMARK VINA RESULT:      -7.2      1.646      2.517
REMARK  Name = 
REMARK  4 active torsions:
REMARK  status: ('A' for Active; 'I' for Inactive)
REMARK    1  A    between atoms: C_6  and  C_7
REMARK    2  A    between atoms: C_7  and  C_8
REMARK    3  A    between atoms: C_8  and  C_9
REMARK    4  A    between atoms: N_14  and  C_15
REMARK                            x       y       z     vdW  Elec       q    Type
REMARK                         _______ _______ _______ _____ _____    ______ ____
ROOT
ATOM      1  C   UNL     1       3.605   6.449  18.474  0.00  0.00    +0.000 C 
ATOM      2  O   UNL     1       3.768   5.601  19.353  0.00  0.00    +0.000 OA
ATOM      3  N   UNL     1       2.684   7.472  18.598  0.00  0.00    +0.000 N 
ATOM      4  C   UNL     1       1.867   7.525  19.816  0.00  0.00    +0.000 C 
ATOM      5  C   UNL     1       1.557   8.972  20.242  0.00  0.00    +0.000 C 
ATOM      6  N   UNL     1       0.990   9.709  19.099  0.00  0.00    +0.000 N 
ATOM      7  C   UNL     1       1.870   9.732  17.920  0.00  0.00    +0.000 C 
ATOM      8  C   UNL     1       2.172   8.287  17.478  0.00  0.00    +0.000 C 
ENDROOT
BRANCH   6   9
ATOM      9  C   UNL     1      -0.147  10.489  19.217  0.00  0.00    +0.000 A 
ATOM     10  C   UNL     1      -1.290  10.171  18.454  0.00  0.00    +0.000 A 
ATOM     11  C   UNL     1      -2.460  10.939  18.489  0.00  0.00    +0.000 A 
ATOM     12  C   UNL     1      -2.536  12.050  19.314  0.00  0.00    +0.000 A 
ATOM     13  C   UNL     1      -1.436  12.398  20.089  0.00  0.00    +0.000 A 
ATOM     14  C   UNL     1      -0.253  11.643  20.033  0.00  0.00    +0.000 A 
ATOM     15 CL   UNL     1       1.084  12.313  20.918  0.00  0.00    +0.000 Cl
ENDBRANCH   6   9
BRANCH   1  16
ATOM     16  C   UNL     1       4.481   6.466  17.235  0.00  0.00    +0.000 C 
BRANCH  16  17
ATOM     17  C   UNL     1       5.887   7.003  17.503  0.00  0.00    +0.000 C 
BRANCH  17  23
ATOM     18  O   UNL     1       6.620   4.080  14.120  0.00  0.00    +0.000 OA
ATOM     19  C   UNL     1       6.714   4.550  15.233  0.00  0.00    +0.000 C 
ATOM     20  N   UNL     1       6.761   3.864  16.395  0.00  0.00    +0.000 N 
ATOM     21  C   UNL     1       6.987   4.693  17.442  0.00  0.00    +0.000 C 
ATOM     22  O   UNL     1       7.147   4.330  18.599  0.00  0.00    +0.000 OA
ATOM     23  C   UNL     1       7.008   6.136  16.930  0.00  0.00    +0.000 C 
ATOM     24  N   UNL     1       6.800   5.892  15.521  0.00  0.00    +0.000 N 
ATOM     25  H   UNL     1       6.748   2.858  16.455  0.00  0.00    +0.000 HD
ATOM     26  H   UNL     1       6.894   6.579  14.783  0.00  0.00    +0.000 HD
ENDBRANCH  17  23
ENDBRANCH  16  17
ENDBRANCH   1  16
TORSDOF 4
ENDMDL
