MODEL 1
REMARK VINA RESULT:      -7.8      0.000      0.000
REMARK  Name = 
REMARK  9 active torsions:
REMARK  status: ('A' for Active; 'I' for Inactive)
REMARK    1  A    between atoms: C_2  and  C_3
REMARK    2  A    between atoms: C_3  and  N_4
REMARK    3  A    between atoms: C_5  and  S_6
REMARK    4  A    between atoms: S_6  and  C_7
REMARK    5  A    between atoms: C_7  and  C_8
REMARK    6  A    between atoms: C_9  and  C_10
REMARK    7  A    between atoms: C_13  and  C_14
REMARK    8  A    between atoms: C_18  and  C_19
REMARK    9  A    between atoms: C_19  and  O_21
REMARK                            x       y       z     vdW  Elec       q    Type
REMARK                         _______ _______ _______ _____ _____    ______ ____
ROOT
ATOM      1  N   UNL     1       2.735   4.274  19.420  0.00  0.00    +0.000 N 
ATOM      2  C   UNL     1       3.087   4.716  18.146  0.00  0.00    +0.000 A 
ATOM      3  N   UNL     1       2.877   5.924  17.724  0.00  0.00    +0.000 NA
ATOM      4  C   UNL     1       2.315   6.862  18.602  0.00  0.00    +0.000 A 
ATOM      5  C   UNL     1       2.146   8.188  18.188  0.00  0.00    +0.000 A 
ATOM      6  C   UNL     1       1.681   9.174  19.080  0.00  0.00    +0.000 A 
ATOM      7  C   UNL     1       1.391   8.831  20.406  0.00  0.00    +0.000 A 
ATOM      8  C   UNL     1       1.513   7.505  20.814  0.00  0.00    +0.000 A 
ATOM      9  C   UNL     1       1.965   6.534  19.907  0.00  0.00    +0.000 A 
ATOM     10  C   UNL     1       2.123   5.139  20.325  0.00  0.00    +0.000 A 
ATOM     11  O   UNL     1       1.714   4.817  21.440  0.00  0.00    +0.000 OA
ENDROOT
BRANCH   6  12
ATOM     12  C   UNL     1       1.586  10.575  18.595  0.00  0.00    +0.000 C 
ATOM     13  O   UNL     1       1.053  11.456  19.247  0.00  0.00    +0.000 OA
BRANCH  12  14
ATOM     14  O   UNL     1       2.153  10.793  17.390  0.00  0.00    +0.000 OA
ATOM     15  H   UNL     1       3.077  11.103  17.398  0.00  0.00    +0.000 HD
ENDBRANCH  12  14
ENDBRANCH   6  12
BRANCH   1  16
ATOM     16  C   UNL     1       2.955   2.920  19.928  0.00  0.00    +0.000 C 
BRANCH  16  18
ATOM     17  C   UNL     1       0.834   2.162  18.806  0.00  0.00    +0.000 C 
ATOM     18  C   UNL     1       1.679   2.130  19.845  0.00  0.00    +0.000 C 
ENDBRANCH  16  18
ENDBRANCH   1  16
BRANCH   2  19
ATOM     19  S   UNL     1       3.859   3.575  17.040  0.00  0.00    +0.000 S 
BRANCH  19  20
ATOM     20  C   UNL     1       5.604   3.678  17.556  0.00  0.00    +0.000 C 
BRANCH  20  21
ATOM     21  C   UNL     1       6.384   4.685  16.765  0.00  0.00    +0.000 A 
ATOM     22  C   UNL     1       7.156   5.797  17.234  0.00  0.00    +0.000 A 
ATOM     23  C   UNL     1       7.390   6.290  18.612  0.00  0.00    +0.000 C 
ATOM     24  N   UNL     1       7.766   6.433  16.228  0.00  0.00    +0.000 NA
ATOM     25  O   UNL     1       7.415   5.757  15.085  0.00  0.00    +0.000 OA
ATOM     26  C   UNL     1       6.603   4.718  15.401  0.00  0.00    +0.000 A 
ATOM     27  C   UNL     1       6.181   3.882  14.262  0.00  0.00    +0.000 C 
ENDBRANCH  20  21
ENDBRANCH  19  20
ENDBRANCH   2  19
TORSDOF 7
ENDMDL
MODEL 2
REMARK VINA RESULT:      -7.8      0.927      1.895
REMARK  Name = 
REMARK  9 active torsions:
REMARK  status: ('A' for Active; 'I' for Inactive)
REMARK    1  A    between atoms: C_2  and  C_3
REMARK    2  A    between atoms: C_3  and  N_4
REMARK    3  A    between atoms: C_5  and  S_6
REMARK    4  A    between atoms: S_6  and  C_7
REMARK    5  A    between atoms: C_7  and  C_8
REMARK    6  A    between atoms: C_9  and  C_10
REMARK    7  A    between atoms: C_13  and  C_14
REMARK    8  A    between atoms: C_18  and  C_19
REMARK    9  A    between atoms: C_19  and  O_21
REMARK                            x       y       z     vdW  Elec       q    Type
REMARK                         _______ _______ _______ _____ _____    ______ ____
ROOT
ATOM      1  N   UNL     1       3.057   4.261  19.581  0.00  0.00    +0.000 N 
ATOM      2  C   UNL     1       3.504   4.670  18.326  0.00  0.00    +0.000 A 
ATOM      3  N   UNL     1       3.250   5.837  17.821  0.00  0.00    +0.000 NA
ATOM      4  C   UNL     1       2.533   6.768  18.587  0.00  0.00    +0.000 A 
ATOM      5  C   UNL     1       2.310   8.056  18.088  0.00  0.00    +0.000 A 
ATOM      6  C   UNL     1       1.685   9.042  18.875  0.00  0.00    +0.000 A 
ATOM      7  C   UNL     1       1.287   8.739  20.182  0.00  0.00    +0.000 A 
ATOM      8  C   UNL     1       1.463   7.447  20.671  0.00  0.00    +0.000 A 
ATOM      9  C   UNL     1       2.076   6.473  19.867  0.00  0.00    +0.000 A 
ATOM     10  C   UNL     1       2.293   5.116  20.373  0.00  0.00    +0.000 A 
ATOM     11  O   UNL     1       1.797   4.815  21.458  0.00  0.00    +0.000 OA
ENDROOT
BRANCH   6  12
ATOM     12  C   UNL     1       1.537  10.407  18.308  0.00  0.00    +0.000 C 
ATOM     13  O   UNL     1       2.493  11.065  17.934  0.00  0.00    +0.000 OA
BRANCH  12  14
ATOM     14  O   UNL     1       0.264  10.845  18.220  0.00  0.00    +0.000 OA
ATOM     15  H   UNL     1      -0.366  10.256  17.769  0.00  0.00    +0.000 HD
ENDBRANCH  12  14
ENDBRANCH   6  12
BRANCH   1  16
ATOM     16  C   UNL     1       3.322   2.953  20.180  0.00  0.00    +0.000 C 
BRANCH  16  18
ATOM     17  C   UNL     1       1.173   2.281  19.056  0.00  0.00    +0.000 C 
ATOM     18  C   UNL     1       2.297   1.960  19.712  0.00  0.00    +0.000 C 
ENDBRANCH  16  18
ENDBRANCH   1  16
BRANCH   2  19
ATOM     19  S   UNL     1       4.467   3.543  17.365  0.00  0.00    +0.000 S 
BRANCH  19  20
ATOM     20  C   UNL     1       4.478   4.359  15.735  0.00  0.00    +0.000 C 
BRANCH  20  21
ATOM     21  C   UNL     1       5.848   4.802  15.318  0.00  0.00    +0.000 A 
ATOM     22  C   UNL     1       6.564   4.501  14.114  0.00  0.00    +0.000 A 
ATOM     23  C   UNL     1       6.183   3.658  12.955  0.00  0.00    +0.000 C 
ATOM     24  N   UNL     1       7.742   5.135  14.069  0.00  0.00    +0.000 NA
ATOM     25  O   UNL     1       7.824   5.863  15.230  0.00  0.00    +0.000 OA
ATOM     26  C   UNL     1       6.701   5.674  15.968  0.00  0.00    +0.000 A 
ATOM     27  C   UNL     1       6.643   6.434  17.230  0.00  0.00    +0.000 C 
ENDBRANCH  20  21
ENDBRANCH  19  20
ENDBRANCH   2  19
TORSDOF 7
ENDMDL
MODEL 3
REMARK VINA RESULT:      -7.6      1.642      2.184
REMARK  Name = 
REMARK  9 active torsions:
REMARK  status: ('A' for Active; 'I' for Inactive)
REMARK    1  A    between atoms: C_2  and  C_3
REMARK    2  A    between atoms: C_3  and  N_4
REMARK    3  A    between atoms: C_5  and  S_6
REMARK    4  A    between atoms: S_6  and  C_7
REMARK    5  A    between atoms: C_7  and  C_8
REMARK    6  A    between atoms: C_9  and  C_10
REMARK    7  A    between atoms: C_13  and  C_14
REMARK    8  A    between atoms: C_18  and  C_19
REMARK    9  A    between atoms: C_19  and  O_21
REMARK                            x       y       z     vdW  Elec       q    Type
REMARK                         _______ _______ _______ _____ _____    ______ ____
ROOT
ATOM      1  N   UNL     1       2.225   6.517  19.826  0.00  0.00    +0.000 N 
ATOM      2  C   UNL     1       2.728   6.832  18.565  0.00  0.00    +0.000 A 
ATOM      3  N   UNL     1       2.559   7.984  17.995  0.00  0.00    +0.000 NA
ATOM      4  C   UNL     1       1.882   8.995  18.693  0.00  0.00    +0.000 A 
ATOM      5  C   UNL     1       1.751  10.266  18.122  0.00  0.00    +0.000 A 
ATOM      6  C   UNL     1       1.167  11.327  18.840  0.00  0.00    +0.000 A 
ATOM      7  C   UNL     1       0.718  11.117  20.149  0.00  0.00    +0.000 A 
ATOM      8  C   UNL     1       0.802   9.845  20.708  0.00  0.00    +0.000 A 
ATOM      9  C   UNL     1       1.375   8.795  19.971  0.00  0.00    +0.000 A 
ATOM     10  C   UNL     1       1.494   7.456  20.552  0.00  0.00    +0.000 A 
ATOM     11  O   UNL     1       0.953   7.242  21.635  0.00  0.00    +0.000 OA
ENDROOT
BRANCH   6  12
ATOM     12  C   UNL     1       1.118  12.668  18.201  0.00  0.00    +0.000 C 
ATOM     13  O   UNL     1       2.125  13.300  17.933  0.00  0.00    +0.000 OA
BRANCH  12  14
ATOM     14  O   UNL     1      -0.125  13.114  17.924  0.00  0.00    +0.000 OA
ATOM     15  H   UNL     1      -0.862  12.604  18.306  0.00  0.00    +0.000 HD
ENDBRANCH  12  14
ENDBRANCH   6  12
BRANCH   1  16
ATOM     16  C   UNL     1       2.394   5.228  20.497  0.00  0.00    +0.000 C 
BRANCH  16  18
ATOM     17  C   UNL     1       1.166   3.031  20.479  0.00  0.00    +0.000 C 
ATOM     18  C   UNL     1       1.214   4.343  20.209  0.00  0.00    +0.000 C 
ENDBRANCH  16  18
ENDBRANCH   1  16
BRANCH   2  19
ATOM     19  S   UNL     1       3.645   5.601  17.690  0.00  0.00    +0.000 S 
BRANCH  19  20
ATOM     20  C   UNL     1       5.184   6.493  17.296  0.00  0.00    +0.000 C 
BRANCH  20  21
ATOM     21  C   UNL     1       6.366   5.579  17.163  0.00  0.00    +0.000 A 
ATOM     22  C   UNL     1       7.337   5.213  18.151  0.00  0.00    +0.000 A 
ATOM     23  C   UNL     1       7.477   5.639  19.564  0.00  0.00    +0.000 C 
ATOM     24  N   UNL     1       8.212   4.320  17.676  0.00  0.00    +0.000 NA
ATOM     25  O   UNL     1       7.836   4.077  16.377  0.00  0.00    +0.000 OA
ATOM     26  C   UNL     1       6.739   4.816  16.073  0.00  0.00    +0.000 A 
ATOM     27  C   UNL     1       6.206   4.619  14.713  0.00  0.00    +0.000 C 
ENDBRANCH  20  21
ENDBRANCH  19  20
ENDBRANCH   2  19
TORSDOF 7
ENDMDL
MODEL 4
REMARK VINA RESULT:      -7.5      1.687      2.672
REMARK  Name = 
REMARK  9 active torsions:
REMARK  status: ('A' for Active; 'I' for Inactive)
REMARK    1  A    between atoms: C_2  and  C_3
REMARK    2  A    between atoms: C_3  and  N_4
REMARK    3  A    between atoms: C_5  and  S_6
REMARK    4  A    between atoms: S_6  and  C_7
REMARK    5  A    between atoms: C_7  and  C_8
REMARK    6  A    between atoms: C_9  and  C_10
REMARK    7  A    between atoms: C_13  and  C_14
REMARK    8  A    between atoms: C_18  and  C_19
REMARK    9  A    between atoms: C_19  and  O_21
REMARK                            x       y       z     vdW  Elec       q    Type
REMARK                         _______ _______ _______ _____ _____    ______ ____
ROOT
ATOM      1  N   UNL     1       2.110   6.622  19.904  0.00  0.00    +0.000 N 
ATOM      2  C   UNL     1       2.626   6.909  18.641  0.00  0.00    +0.000 A 
ATOM      3  N   UNL     1       2.491   8.060  18.058  0.00  0.00    +0.000 NA
ATOM      4  C   UNL     1       1.840   9.097  18.743  0.00  0.00    +0.000 A 
ATOM      5  C   UNL     1       1.747  10.365  18.158  0.00  0.00    +0.000 A 
ATOM      6  C   UNL     1       1.191  11.450  18.863  0.00  0.00    +0.000 A 
ATOM      7  C   UNL     1       0.733  11.267  20.173  0.00  0.00    +0.000 A 
ATOM      8  C   UNL     1       0.779   9.998  20.745  0.00  0.00    +0.000 A 
ATOM      9  C   UNL     1       1.324   8.925  20.022  0.00  0.00    +0.000 A 
ATOM     10  C   UNL     1       1.405   7.589  20.617  0.00  0.00    +0.000 A 
ATOM     11  O   UNL     1       0.855   7.402  21.701  0.00  0.00    +0.000 OA
ENDROOT
BRANCH   6  12
ATOM     12  C   UNL     1       1.182  12.784  18.210  0.00  0.00    +0.000 C 
ATOM     13  O   UNL     1       0.281  13.587  18.380  0.00  0.00    +0.000 OA
BRANCH  12  14
ATOM     14  O   UNL     1       2.257  13.039  17.435  0.00  0.00    +0.000 OA
ATOM     15  H   UNL     1       2.684  12.268  17.021  0.00  0.00    +0.000 HD
ENDBRANCH  12  14
ENDBRANCH   6  12
BRANCH   1  16
ATOM     16  C   UNL     1       2.241   5.337  20.590  0.00  0.00    +0.000 C 
BRANCH  16  18
ATOM     17  C   UNL     1       0.964   3.168  20.617  0.00  0.00    +0.000 C 
ATOM     18  C   UNL     1       1.173   4.393  20.115  0.00  0.00    +0.000 C 
ENDBRANCH  16  18
ENDBRANCH   1  16
BRANCH   2  19
ATOM     19  S   UNL     1       3.510   5.644  17.782  0.00  0.00    +0.000 S 
BRANCH  19  20
ATOM     20  C   UNL     1       5.013   6.530  17.258  0.00  0.00    +0.000 C 
BRANCH  20  21
ATOM     21  C   UNL     1       6.170   5.610  17.004  0.00  0.00    +0.000 A 
ATOM     22  C   UNL     1       6.485   4.865  15.821  0.00  0.00    +0.000 A 
ATOM     23  C   UNL     1       5.763   4.764  14.530  0.00  0.00    +0.000 C 
ATOM     24  N   UNL     1       7.640   4.203  15.948  0.00  0.00    +0.000 NA
ATOM     25  O   UNL     1       8.108   4.497  17.205  0.00  0.00    +0.000 OA
ATOM     26  C   UNL     1       7.243   5.336  17.830  0.00  0.00    +0.000 A 
ATOM     27  C   UNL     1       7.649   5.764  19.181  0.00  0.00    +0.000 C 
ENDBRANCH  20  21
ENDBRANCH  19  20
ENDBRANCH   2  19
TORSDOF 7
ENDMDL
MODEL 5
REMARK VINA RESULT:      -7.4      2.415      6.725
REMARK  Name = 
REMARK  9 active torsions:
REMARK  status: ('A' for Active; 'I' for Inactive)
REMARK    1  A    between atoms: C_2  and  C_3
REMARK    2  A    between atoms: C_3  and  N_4
REMARK    3  A    between atoms: C_5  and  S_6
REMARK    4  A    between atoms: S_6  and  C_7
REMARK    5  A    between atoms: C_7  and  C_8
REMARK    6  A    between atoms: C_9  and  C_10
REMARK    7  A    between atoms: C_13  and  C_14
REMARK    8  A    between atoms: C_18  and  C_19
REMARK    9  A    between atoms: C_19  and  O_21
REMARK                            x       y       z     vdW  Elec       q    Type
REMARK                         _______ _______ _______ _____ _____    ______ ____
ROOT
ATOM      1  N   UNL     1       1.916   4.294  19.386  0.00  0.00    +0.000 N 
ATOM      2  C   UNL     1       2.323   5.593  19.686  0.00  0.00    +0.000 A 
ATOM      3  N   UNL     1       3.394   6.137  19.198  0.00  0.00    +0.000 NA
ATOM      4  C   UNL     1       4.167   5.412  18.278  0.00  0.00    +0.000 A 
ATOM      5  C   UNL     1       5.287   6.009  17.688  0.00  0.00    +0.000 A 
ATOM      6  C   UNL     1       6.020   5.344  16.687  0.00  0.00    +0.000 A 
ATOM      7  C   UNL     1       5.623   4.071  16.263  0.00  0.00    +0.000 A 
ATOM      8  C   UNL     1       4.537   3.451  16.877  0.00  0.00    +0.000 A 
ATOM      9  C   UNL     1       3.826   4.124  17.883  0.00  0.00    +0.000 A 
ATOM     10  C   UNL     1       2.667   3.498  18.523  0.00  0.00    +0.000 A 
ATOM     11  O   UNL     1       2.423   2.321  18.260  0.00  0.00    +0.000 OA
ENDROOT
BRANCH   6  12
ATOM     12  C   UNL     1       7.159   6.059  16.056  0.00  0.00    +0.000 C 
ATOM     13  O   UNL     1       7.688   7.028  16.573  0.00  0.00    +0.000 OA
BRANCH  12  14
ATOM     14  O   UNL     1       7.572   5.536  14.882  0.00  0.00    +0.000 OA
ATOM     15  H   UNL     1       6.875   5.193  14.294  0.00  0.00    +0.000 HD
ENDBRANCH  12  14
ENDBRANCH   6  12
BRANCH   1  16
ATOM     16  C   UNL     1       0.717   3.648  19.919  0.00  0.00    +0.000 C 
BRANCH  16  18
ATOM     17  C   UNL     1       2.141   2.971  21.880  0.00  0.00    +0.000 C 
ATOM     18  C   UNL     1       1.083   2.771  21.083  0.00  0.00    +0.000 C 
ENDBRANCH  16  18
ENDBRANCH   1  16
BRANCH   2  19
ATOM     19  S   UNL     1       1.333   6.555  20.788  0.00  0.00    +0.000 S 
BRANCH  19  20
ATOM     20  C   UNL     1       1.886   8.248  20.404  0.00  0.00    +0.000 C 
BRANCH  20  21
ATOM     21  C   UNL     1       0.784   9.259  20.520  0.00  0.00    +0.000 A 
ATOM     22  C   UNL     1       0.075   9.941  19.480  0.00  0.00    +0.000 A 
ATOM     23  C   UNL     1       0.231   9.873  18.007  0.00  0.00    +0.000 C 
ATOM     24  N   UNL     1      -0.891  10.725  19.973  0.00  0.00    +0.000 NA
ATOM     25  O   UNL     1      -0.841  10.573  21.337  0.00  0.00    +0.000 OA
ATOM     26  C   UNL     1       0.146   9.700  21.664  0.00  0.00    +0.000 A 
ATOM     27  C   UNL     1       0.282   9.417  23.104  0.00  0.00    +0.000 C 
ENDBRANCH  20  21
ENDBRANCH  19  20
ENDBRANCH   2  19
TORSDOF 7
ENDMDL
MODEL 6
REMARK VINA RESULT:      -7.4      2.302      6.381
REMARK  Name = 
REMARK  9 active torsions:
REMARK  status: ('A' for Active; 'I' for Inactive)
REMARK    1  A    between atoms: C_2  and  C_3
REMARK    2  A    between atoms: C_3  and  N_4
REMARK    3  A    between atoms: C_5  and  S_6
REMARK    4  A    between atoms: S_6  and  C_7
REMARK    5  A    between atoms: C_7  and  C_8
REMARK    6  A    between atoms: C_9  and  C_10
REMARK    7  A    between atoms: C_13  and  C_14
REMARK    8  A    between atoms: C_18  and  C_19
REMARK    9  A    between atoms: C_19  and  O_21
REMARK                            x       y       z     vdW  Elec       q    Type
REMARK                         _______ _______ _______ _____ _____    ______ ____
ROOT
ATOM      1  N   UNL     1       1.970   4.059  19.399  0.00  0.00    +0.000 N 
ATOM      2  C   UNL     1       2.299   5.375  19.723  0.00  0.00    +0.000 A 
ATOM      3  N   UNL     1       3.344   5.985  19.257  0.00  0.00    +0.000 NA
ATOM      4  C   UNL     1       4.167   5.320  18.337  0.00  0.00    +0.000 A 
ATOM      5  C   UNL     1       5.259   5.987  17.771  0.00  0.00    +0.000 A 
ATOM      6  C   UNL     1       6.041   5.380  16.769  0.00  0.00    +0.000 A 
ATOM      7  C   UNL     1       5.721   4.094  16.321  0.00  0.00    +0.000 A 
ATOM      8  C   UNL     1       4.665   3.404  16.912  0.00  0.00    +0.000 A 
ATOM      9  C   UNL     1       3.904   4.020  17.919  0.00  0.00    +0.000 A 
ATOM     10  C   UNL     1       2.774   3.320  18.534  0.00  0.00    +0.000 A 
ATOM     11  O   UNL     1       2.601   2.136  18.251  0.00  0.00    +0.000 OA
ENDROOT
BRANCH   6  12
ATOM     12  C   UNL     1       7.145   6.168  16.164  0.00  0.00    +0.000 C 
ATOM     13  O   UNL     1       7.736   5.800  15.163  0.00  0.00    +0.000 OA
BRANCH  12  14
ATOM     14  O   UNL     1       7.423   7.327  16.796  0.00  0.00    +0.000 OA
ATOM     15  H   UNL     1       8.231   7.792  16.512  0.00  0.00    +0.000 HD
ENDBRANCH  12  14
ENDBRANCH   6  12
BRANCH   1  16
ATOM     16  C   UNL     1       0.802   3.339  19.907  0.00  0.00    +0.000 C 
BRANCH  16  18
ATOM     17  C   UNL     1       2.298   2.482  21.740  0.00  0.00    +0.000 C 
ATOM     18  C   UNL     1       1.083   2.821  21.289  0.00  0.00    +0.000 C 
ENDBRANCH  16  18
ENDBRANCH   1  16
BRANCH   2  19
ATOM     19  S   UNL     1       1.243   6.262  20.827  0.00  0.00    +0.000 S 
BRANCH  19  20
ATOM     20  C   UNL     1       1.970   7.932  20.775  0.00  0.00    +0.000 C 
BRANCH  20  21
ATOM     21  C   UNL     1       0.969   8.990  20.421  0.00  0.00    +0.000 A 
ATOM     22  C   UNL     1       0.018   9.649  21.266  0.00  0.00    +0.000 A 
ATOM     23  C   UNL     1      -0.272   9.467  22.709  0.00  0.00    +0.000 C 
ATOM     24  N   UNL     1      -0.665  10.588  20.602  0.00  0.00    +0.000 NA
ATOM     25  O   UNL     1      -0.179  10.571  19.318  0.00  0.00    +0.000 OA
ATOM     26  C   UNL     1       0.793   9.631  19.209  0.00  0.00    +0.000 A 
ATOM     27  C   UNL     1       1.429   9.535  17.883  0.00  0.00    +0.000 C 
ENDBRANCH  20  21
ENDBRANCH  19  20
ENDBRANCH   2  19
TORSDOF 7
ENDMDL
MODEL 7
REMARK VINA RESULT:      -7.4      1.065      2.108
REMARK  Name = 
REMARK  9 active torsions:
REMARK  status: ('A' for Active; 'I' for Inactive)
REMARK    1  A    between atoms: C_2  and  C_3
REMARK    2  A    between atoms: C_3  and  N_4
REMARK    3  A    between atoms: C_5  and  S_6
REMARK    4  A    between atoms: S_6  and  C_7
REMARK    5  A    between atoms: C_7  and  C_8
REMARK    6  A    between atoms: C_9  and  C_10
REMARK    7  A    between atoms: C_13  and  C_14
REMARK    8  A    between atoms: C_18  and  C_19
REMARK    9  A    between atoms: C_19  and  O_21
REMARK                            x       y       z     vdW  Elec       q    Type
REMARK                         _______ _______ _______ _____ _____    ______ ____
ROOT
ATOM      1  N   UNL     1       2.908   3.972  19.471  0.00  0.00    +0.000 N 
ATOM      2  C   UNL     1       3.359   4.455  18.244  0.00  0.00    +0.000 A 
ATOM      3  N   UNL     1       3.132   5.660  17.823  0.00  0.00    +0.000 NA
ATOM      4  C   UNL     1       2.445   6.554  18.657  0.00  0.00    +0.000 A 
ATOM      5  C   UNL     1       2.253   7.879  18.248  0.00  0.00    +0.000 A 
ATOM      6  C   UNL     1       1.658   8.824  19.106  0.00  0.00    +0.000 A 
ATOM      7  C   UNL     1       1.259   8.442  20.392  0.00  0.00    +0.000 A 
ATOM      8  C   UNL     1       1.405   7.115  20.790  0.00  0.00    +0.000 A 
ATOM      9  C   UNL     1       1.988   6.184  19.916  0.00  0.00    +0.000 A 
ATOM     10  C   UNL     1       2.171   4.789  20.327  0.00  0.00    +0.000 A 
ATOM     11  O   UNL     1       1.674   4.427  21.391  0.00  0.00    +0.000 OA
ENDROOT
BRANCH   6  12
ATOM     12  C   UNL     1       1.543  10.228  18.636  0.00  0.00    +0.000 C 
ATOM     13  O   UNL     1       1.074  11.112  19.331  0.00  0.00    +0.000 OA
BRANCH  12  14
ATOM     14  O   UNL     1       2.017  10.446  17.391  0.00  0.00    +0.000 OA
ATOM     15  H   UNL     1       1.424  10.210  16.655  0.00  0.00    +0.000 HD
ENDBRANCH  12  14
ENDBRANCH   6  12
BRANCH   1  16
ATOM     16  C   UNL     1       3.143   2.620  19.977  0.00  0.00    +0.000 C 
BRANCH  16  18
ATOM     17  C   UNL     1       5.121   1.362  20.892  0.00  0.00    +0.000 C 
ATOM     18  C   UNL     1       4.543   2.509  20.510  0.00  0.00    +0.000 C 
ENDBRANCH  16  18
ENDBRANCH   1  16
BRANCH   2  19
ATOM     19  S   UNL     1       4.287   3.373  17.201  0.00  0.00    +0.000 S 
BRANCH  19  20
ATOM     20  C   UNL     1       4.380   4.334  15.656  0.00  0.00    +0.000 C 
BRANCH  20  21
ATOM     21  C   UNL     1       5.766   4.821  15.358  0.00  0.00    +0.000 A 
ATOM     22  C   UNL     1       6.579   4.575  14.204  0.00  0.00    +0.000 A 
ATOM     23  C   UNL     1       6.309   3.760  12.995  0.00  0.00    +0.000 C 
ATOM     24  N   UNL     1       7.741   5.235  14.268  0.00  0.00    +0.000 NA
ATOM     25  O   UNL     1       7.716   5.929  15.454  0.00  0.00    +0.000 OA
ATOM     26  C   UNL     1       6.545   5.691  16.097  0.00  0.00    +0.000 A 
ATOM     27  C   UNL     1       6.373   6.410  17.373  0.00  0.00    +0.000 C 
ENDBRANCH  20  21
ENDBRANCH  19  20
ENDBRANCH   2  19
TORSDOF 7
ENDMDL
MODEL 8
REMARK VINA RESULT:      -7.3      0.986      1.748
REMARK  Name = 
REMARK  9 active torsions:
REMARK  status: ('A' for Active; 'I' for Inactive)
REMARK    1  A    between atoms: C_2  and  C_3
REMARK    2  A    between atoms: C_3  and  N_4
REMARK    3  A    between atoms: C_5  and  S_6
REMARK    4  A    between atoms: S_6  and  C_7
REMARK    5  A    between atoms: C_7  and  C_8
REMARK    6  A    between atoms: C_9  and  C_10
REMARK    7  A    between atoms: C_13  and  C_14
REMARK    8  A    between atoms: C_18  and  C_19
REMARK    9  A    between atoms: C_19  and  O_21
REMARK                            x       y       z     vdW  Elec       q    Type
REMARK                         _______ _______ _______ _____ _____    ______ ____
ROOT
ATOM      1  N   UNL     1       3.036   4.369  19.375  0.00  0.00    +0.000 N 
ATOM      2  C   UNL     1       3.407   4.862  18.125  0.00  0.00    +0.000 A 
ATOM      3  N   UNL     1       3.116   6.057  17.712  0.00  0.00    +0.000 NA
ATOM      4  C   UNL     1       2.440   6.929  18.577  0.00  0.00    +0.000 A 
ATOM      5  C   UNL     1       2.180   8.244  18.176  0.00  0.00    +0.000 A 
ATOM      6  C   UNL     1       1.596   9.171  19.060  0.00  0.00    +0.000 A 
ATOM      7  C   UNL     1       1.276   8.781  20.365  0.00  0.00    +0.000 A 
ATOM      8  C   UNL     1       1.489   7.462  20.759  0.00  0.00    +0.000 A 
ATOM      9  C   UNL     1       2.060   6.548  19.859  0.00  0.00    +0.000 A 
ATOM     10  C   UNL     1       2.314   5.164  20.264  0.00  0.00    +0.000 A 
ATOM     11  O   UNL     1       1.884   4.789  21.353  0.00  0.00    +0.000 OA
ENDROOT
BRANCH   6  12
ATOM     12  C   UNL     1       1.406  10.569  18.592  0.00  0.00    +0.000 C 
ATOM     13  O   UNL     1       0.697  11.364  19.183  0.00  0.00    +0.000 OA
BRANCH  12  14
ATOM     14  O   UNL     1       2.098  10.888  17.478  0.00  0.00    +0.000 OA
ATOM     15  H   UNL     1       1.584  11.271  16.745  0.00  0.00    +0.000 HD
ENDBRANCH  12  14
ENDBRANCH   6  12
BRANCH   1  16
ATOM     16  C   UNL     1       3.344   3.028  19.872  0.00  0.00    +0.000 C 
BRANCH  16  18
ATOM     17  C   UNL     1       1.128   2.237  18.979  0.00  0.00    +0.000 C 
ATOM     18  C   UNL     1       2.427   2.024  19.233  0.00  0.00    +0.000 C 
ENDBRANCH  16  18
ENDBRANCH   1  16
BRANCH   2  19
ATOM     19  S   UNL     1       4.319   3.809  17.039  0.00  0.00    +0.000 S 
BRANCH  19  20
ATOM     20  C   UNL     1       5.995   3.905  17.749  0.00  0.00    +0.000 C 
BRANCH  20  21
ATOM     21  C   UNL     1       6.618   5.258  17.585  0.00  0.00    +0.000 A 
ATOM     22  C   UNL     1       6.459   6.200  16.517  0.00  0.00    +0.000 A 
ATOM     23  C   UNL     1       5.665   6.110  15.268  0.00  0.00    +0.000 C 
ATOM     24  N   UNL     1       7.128   7.334  16.755  0.00  0.00    +0.000 NA
ATOM     25  O   UNL     1       7.734   7.166  17.976  0.00  0.00    +0.000 OA
ATOM     26  C   UNL     1       7.429   5.941  18.472  0.00  0.00    +0.000 A 
ATOM     27  C   UNL     1       7.988   5.646  19.804  0.00  0.00    +0.000 C 
ENDBRANCH  20  21
ENDBRANCH  19  20
ENDBRANCH   2  19
TORSDOF 7
ENDMDL
MODEL 9
REMARK VINA RESULT:      -7.3      0.886      1.100
REMARK  Name = 
REMARK  9 active torsions:
REMARK  status: ('A' for Active; 'I' for Inactive)
REMARK    1  A    between atoms: C_2  and  C_3
REMARK    2  A    between atoms: C_3  and  N_4
REMARK    3  A    between atoms: C_5  and  S_6
REMARK    4  A    between atoms: S_6  and  C_7
REMARK    5  A    between atoms: C_7  and  C_8
REMARK    6  A    between atoms: C_9  and  C_10
REMARK    7  A    between atoms: C_13  and  C_14
REMARK    8  A    between atoms: C_18  and  C_19
REMARK    9  A    between atoms: C_19  and  O_21
REMARK                            x       y       z     vdW  Elec       q    Type
REMARK                         _______ _______ _______ _____ _____    ______ ____
ROOT
ATOM      1  N   UNL     1       3.129   4.361  19.565  0.00  0.00    +0.000 N 
ATOM      2  C   UNL     1       3.599   4.789  18.324  0.00  0.00    +0.000 A 
ATOM      3  N   UNL     1       3.334   5.955  17.823  0.00  0.00    +0.000 NA
ATOM      4  C   UNL     1       2.581   6.865  18.578  0.00  0.00    +0.000 A 
ATOM      5  C   UNL     1       2.345   8.153  18.083  0.00  0.00    +0.000 A 
ATOM      6  C   UNL     1       1.681   9.120  18.862  0.00  0.00    +0.000 A 
ATOM      7  C   UNL     1       1.257   8.798  20.157  0.00  0.00    +0.000 A 
ATOM      8  C   UNL     1       1.447   7.506  20.640  0.00  0.00    +0.000 A 
ATOM      9  C   UNL     1       2.099   6.551  19.844  0.00  0.00    +0.000 A 
ATOM     10  C   UNL     1       2.329   5.194  20.345  0.00  0.00    +0.000 A 
ATOM     11  O   UNL     1       1.813   4.875  21.414  0.00  0.00    +0.000 OA
ENDROOT
BRANCH   6  12
ATOM     12  C   UNL     1       1.520  10.486  18.302  0.00  0.00    +0.000 C 
ATOM     13  O   UNL     1       2.470  11.158  17.940  0.00  0.00    +0.000 OA
BRANCH  12  14
ATOM     14  O   UNL     1       0.242  10.909  18.209  0.00  0.00    +0.000 OA
ATOM     15  H   UNL     1       0.097  11.869  18.292  0.00  0.00    +0.000 HD
ENDBRANCH  12  14
ENDBRANCH   6  12
BRANCH   1  16
ATOM     16  C   UNL     1       3.405   3.054  20.160  0.00  0.00    +0.000 C 
BRANCH  16  18
ATOM     17  C   UNL     1       1.327   2.023  19.186  0.00  0.00    +0.000 C 
ATOM     18  C   UNL     1       2.645   1.987  19.425  0.00  0.00    +0.000 C 
ENDBRANCH  16  18
ENDBRANCH   1  16
BRANCH   2  19
ATOM     19  S   UNL     1       4.607   3.689  17.379  0.00  0.00    +0.000 S 
BRANCH  19  20
ATOM     20  C   UNL     1       4.526   4.442  15.721  0.00  0.00    +0.000 C 
BRANCH  20  21
ATOM     21  C   UNL     1       5.870   4.868  15.211  0.00  0.00    +0.000 A 
ATOM     22  C   UNL     1       6.853   5.694  15.845  0.00  0.00    +0.000 A 
ATOM     23  C   UNL     1       6.827   6.382  17.158  0.00  0.00    +0.000 C 
ATOM     24  N   UNL     1       7.962   5.799  15.104  0.00  0.00    +0.000 NA
ATOM     25  O   UNL     1       7.736   5.047  13.977  0.00  0.00    +0.000 OA
ATOM     26  C   UNL     1       6.501   4.489  14.041  0.00  0.00    +0.000 A 
ATOM     27  C   UNL     1       6.144   3.620  12.904  0.00  0.00    +0.000 C 
ENDBRANCH  20  21
ENDBRANCH  19  20
ENDBRANCH   2  19
TORSDOF 7
ENDMDL
