MODEL 1
REMARK VINA RESULT:      -7.5      0.000      0.000
REMARK  Name = 
REMARK  2 active torsions:
REMARK  status: ('A' for Active; 'I' for Inactive)
REMARK    1  A    between atoms: S_2  and  C_5
REMARK    2  A    between atoms: C_10  and  O_11
REMARK                            x       y       z     vdW  Elec       q    Type
REMARK                         _______ _______ _______ _____ _____    ______ ____
ROOT
ATOM      1  C   UNL     1       5.658   4.752  17.313  0.00  0.00    +0.000 A 
ATOM      2  C   UNL     1       5.608   5.500  18.490  0.00  0.00    +0.000 A 
ATOM      3  C   UNL     1       4.527   5.336  19.354  0.00  0.00    +0.000 A 
ATOM      4  C   UNL     1       3.499   4.428  19.046  0.00  0.00    +0.000 A 
ATOM      5  C   UNL     1       2.384   4.275  19.888  0.00  0.00    +0.000 A 
ATOM      6  C   UNL     1       1.373   3.378  19.560  0.00  0.00    +0.000 A 
ATOM      7  C   UNL     1       1.452   2.606  18.408  0.00  0.00    +0.000 A 
ATOM      8  C   UNL     1       2.545   2.751  17.554  0.00  0.00    +0.000 A 
ATOM      9  C   UNL     1       3.565   3.666  17.854  0.00  0.00    +0.000 A 
ATOM     10  C   UNL     1       4.656   3.833  16.995  0.00  0.00    +0.000 A 
ENDROOT
BRANCH   1  12
ATOM     11  O   UNL     1       8.117   4.193  17.070  0.00  0.00    +0.000 OA
ATOM     12  S   UNL     1       7.100   4.836  16.233  0.00  0.00    +0.000 S 
ATOM     13  O   UNL     1       7.352   6.270  16.133  0.00  0.00    +0.000 OA
ATOM     14  O   UNL     1       6.678   4.129  15.041  0.00  0.00    +0.000 OA
ENDBRANCH   1  12
BRANCH   6  15
ATOM     15  O   UNL     1       0.272   3.225  20.351  0.00  0.00    +0.000 OA
ATOM     16  H   UNL     1       0.392   3.760  21.152  0.00  0.00    +0.000 HD
ENDBRANCH   6  15
TORSDOF 2
ENDMDL
MODEL 2
REMARK VINA RESULT:      -7.4      1.060      1.415
REMARK  Name = 
REMARK  2 active torsions:
REMARK  status: ('A' for Active; 'I' for Inactive)
REMARK    1  A    between atoms: S_2  and  C_5
REMARK    2  A    between atoms: C_10  and  O_11
REMARK                            x       y       z     vdW  Elec       q    Type
REMARK                         _______ _______ _______ _____ _____    ______ ____
ROOT
ATOM      1  C   UNL     1       5.331   5.175  16.856  0.00  0.00    +0.000 A 
ATOM      2  C   UNL     1       4.544   6.236  17.305  0.00  0.00    +0.000 A 
ATOM      3  C   UNL     1       3.329   5.964  17.928  0.00  0.00    +0.000 A 
ATOM      4  C   UNL     1       2.900   4.636  18.106  0.00  0.00    +0.000 A 
ATOM      5  C   UNL     1       1.661   4.343  18.702  0.00  0.00    +0.000 A 
ATOM      6  C   UNL     1       1.252   3.023  18.860  0.00  0.00    +0.000 A 
ATOM      7  C   UNL     1       2.061   1.972  18.449  0.00  0.00    +0.000 A 
ATOM      8  C   UNL     1       3.289   2.243  17.846  0.00  0.00    +0.000 A 
ATOM      9  C   UNL     1       3.713   3.567  17.657  0.00  0.00    +0.000 A 
ATOM     10  C   UNL     1       4.934   3.849  17.036  0.00  0.00    +0.000 A 
ENDROOT
BRANCH   1  12
ATOM     11  O   UNL     1       7.219   6.848  16.615  0.00  0.00    +0.000 OA
ATOM     12  S   UNL     1       6.970   5.477  16.162  0.00  0.00    +0.000 S 
ATOM     13  O   UNL     1       6.725   5.451  14.723  0.00  0.00    +0.000 OA
ATOM     14  O   UNL     1       7.785   4.429  16.739  0.00  0.00    +0.000 OA
ENDBRANCH   1  12
BRANCH   6  15
ATOM     15  O   UNL     1       0.046   2.714  19.418  0.00  0.00    +0.000 OA
ATOM     16  H   UNL     1      -0.457   3.535  19.541  0.00  0.00    +0.000 HD
ENDBRANCH   6  15
TORSDOF 2
ENDMDL
MODEL 3
REMARK VINA RESULT:      -7.4      1.085      1.612
REMARK  Name = 
REMARK  2 active torsions:
REMARK  status: ('A' for Active; 'I' for Inactive)
REMARK    1  A    between atoms: S_2  and  C_5
REMARK    2  A    between atoms: C_10  and  O_11
REMARK                            x       y       z     vdW  Elec       q    Type
REMARK                         _______ _______ _______ _____ _____    ______ ____
ROOT
ATOM      1  C   UNL     1       5.348   5.234  16.870  0.00  0.00    +0.000 A 
ATOM      2  C   UNL     1       4.531   6.281  17.298  0.00  0.00    +0.000 A 
ATOM      3  C   UNL     1       3.311   5.987  17.901  0.00  0.00    +0.000 A 
ATOM      4  C   UNL     1       2.906   4.652  18.079  0.00  0.00    +0.000 A 
ATOM      5  C   UNL     1       1.663   4.336  18.654  0.00  0.00    +0.000 A 
ATOM      6  C   UNL     1       1.277   3.009  18.812  0.00  0.00    +0.000 A 
ATOM      7  C   UNL     1       2.116   1.973  18.422  0.00  0.00    +0.000 A 
ATOM      8  C   UNL     1       3.349   2.266  17.840  0.00  0.00    +0.000 A 
ATOM      9  C   UNL     1       3.749   3.597  17.651  0.00  0.00    +0.000 A 
ATOM     10  C   UNL     1       4.975   3.901  17.051  0.00  0.00    +0.000 A 
ENDROOT
BRANCH   1  12
ATOM     11  O   UNL     1       6.749   5.422  14.767  0.00  0.00    +0.000 OA
ATOM     12  S   UNL     1       6.993   5.566  16.205  0.00  0.00    +0.000 S 
ATOM     13  O   UNL     1       7.781   4.444  16.706  0.00  0.00    +0.000 OA
ATOM     14  O   UNL     1       7.300   6.894  16.695  0.00  0.00    +0.000 OA
ENDBRANCH   1  12
BRANCH   6  15
ATOM     15  O   UNL     1       0.068   2.678  19.349  0.00  0.00    +0.000 OA
ATOM     16  H   UNL     1      -0.578   3.357  19.095  0.00  0.00    +0.000 HD
ENDBRANCH   6  15
TORSDOF 2
ENDMDL
MODEL 4
REMARK VINA RESULT:      -7.4      1.009      1.009
REMARK  Name = 
REMARK  2 active torsions:
REMARK  status: ('A' for Active; 'I' for Inactive)
REMARK    1  A    between atoms: S_2  and  C_5
REMARK    2  A    between atoms: C_10  and  O_11
REMARK                            x       y       z     vdW  Elec       q    Type
REMARK                         _______ _______ _______ _____ _____    ______ ____
ROOT
ATOM      1  C   UNL     1       5.416   5.188  16.730  0.00  0.00    +0.000 A 
ATOM      2  C   UNL     1       4.706   6.283  17.223  0.00  0.00    +0.000 A 
ATOM      3  C   UNL     1       3.528   6.065  17.934  0.00  0.00    +0.000 A 
ATOM      4  C   UNL     1       3.060   4.758  18.156  0.00  0.00    +0.000 A 
ATOM      5  C   UNL     1       1.856   4.520  18.841  0.00  0.00    +0.000 A 
ATOM      6  C   UNL     1       1.406   3.219  19.041  0.00  0.00    +0.000 A 
ATOM      7  C   UNL     1       2.142   2.133  18.584  0.00  0.00    +0.000 A 
ATOM      8  C   UNL     1       3.333   2.349  17.893  0.00  0.00    +0.000 A 
ATOM      9  C   UNL     1       3.795   3.653  17.661  0.00  0.00    +0.000 A 
ATOM     10  C   UNL     1       4.979   3.881  16.952  0.00  0.00    +0.000 A 
ENDROOT
BRANCH   1  12
ATOM     11  O   UNL     1       7.782   4.313  16.495  0.00  0.00    +0.000 OA
ATOM     12  S   UNL     1       7.011   5.418  15.919  0.00  0.00    +0.000 S 
ATOM     13  O   UNL     1       7.470   6.696  16.455  0.00  0.00    +0.000 OA
ATOM     14  O   UNL     1       6.693   5.340  14.508  0.00  0.00    +0.000 OA
ENDBRANCH   1  12
BRANCH   6  15
ATOM     15  O   UNL     1       0.232   2.963  19.686  0.00  0.00    +0.000 OA
ATOM     16  H   UNL     1       0.433   2.690  20.596  0.00  0.00    +0.000 HD
ENDBRANCH   6  15
TORSDOF 2
ENDMDL
MODEL 5
REMARK VINA RESULT:      -7.2      0.626      1.324
REMARK  Name = 
REMARK  2 active torsions:
REMARK  status: ('A' for Active; 'I' for Inactive)
REMARK    1  A    between atoms: S_2  and  C_5
REMARK    2  A    between atoms: C_10  and  O_11
REMARK                            x       y       z     vdW  Elec       q    Type
REMARK                         _______ _______ _______ _____ _____    ______ ____
ROOT
ATOM      1  C   UNL     1       5.442   4.545  17.036  0.00  0.00    +0.000 A 
ATOM      2  C   UNL     1       5.704   5.117  18.281  0.00  0.00    +0.000 A 
ATOM      3  C   UNL     1       4.805   4.915  19.324  0.00  0.00    +0.000 A 
ATOM      4  C   UNL     1       3.646   4.142  19.128  0.00  0.00    +0.000 A 
ATOM      5  C   UNL     1       2.709   3.956  20.159  0.00  0.00    +0.000 A 
ATOM      6  C   UNL     1       1.565   3.195  19.941  0.00  0.00    +0.000 A 
ATOM      7  C   UNL     1       1.334   2.594  18.711  0.00  0.00    +0.000 A 
ATOM      8  C   UNL     1       2.246   2.776  17.672  0.00  0.00    +0.000 A 
ATOM      9  C   UNL     1       3.396   3.557  17.863  0.00  0.00    +0.000 A 
ATOM     10  C   UNL     1       4.307   3.761  16.822  0.00  0.00    +0.000 A 
ENDROOT
BRANCH   1  12
ATOM     11  O   UNL     1       6.334   6.002  15.164  0.00  0.00    +0.000 OA
ATOM     12  S   UNL     1       6.644   4.672  15.695  0.00  0.00    +0.000 S 
ATOM     13  O   UNL     1       6.207   3.635  14.765  0.00  0.00    +0.000 OA
ATOM     14  O   UNL     1       7.919   4.504  16.361  0.00  0.00    +0.000 OA
ENDBRANCH   1  12
BRANCH   6  15
ATOM     15  O   UNL     1       0.633   3.016  20.920  0.00  0.00    +0.000 OA
ATOM     16  H   UNL     1       0.768   3.693  21.603  0.00  0.00    +0.000 HD
ENDBRANCH   6  15
TORSDOF 2
ENDMDL
MODEL 6
REMARK VINA RESULT:      -7.2      1.465      1.636
REMARK  Name = 
REMARK  2 active torsions:
REMARK  status: ('A' for Active; 'I' for Inactive)
REMARK    1  A    between atoms: S_2  and  C_5
REMARK    2  A    between atoms: C_10  and  O_11
REMARK                            x       y       z     vdW  Elec       q    Type
REMARK                         _______ _______ _______ _____ _____    ______ ____
ROOT
ATOM      1  C   UNL     1       5.432   5.753  17.342  0.00  0.00    +0.000 A 
ATOM      2  C   UNL     1       4.377   6.641  17.549  0.00  0.00    +0.000 A 
ATOM      3  C   UNL     1       3.114   6.137  17.849  0.00  0.00    +0.000 A 
ATOM      4  C   UNL     1       2.903   4.750  17.945  0.00  0.00    +0.000 A 
ATOM      5  C   UNL     1       1.628   4.222  18.213  0.00  0.00    +0.000 A 
ATOM      6  C   UNL     1       1.440   2.846  18.294  0.00  0.00    +0.000 A 
ATOM      7  C   UNL     1       2.506   1.971  18.130  0.00  0.00    +0.000 A 
ATOM      8  C   UNL     1       3.776   2.475  17.853  0.00  0.00    +0.000 A 
ATOM      9  C   UNL     1       3.985   3.858  17.745  0.00  0.00    +0.000 A 
ATOM     10  C   UNL     1       5.251   4.373  17.449  0.00  0.00    +0.000 A 
ENDROOT
BRANCH   1  12
ATOM     11  O   UNL     1       7.771   5.906  18.306  0.00  0.00    +0.000 OA
ATOM     12  S   UNL     1       7.110   6.365  17.081  0.00  0.00    +0.000 S 
ATOM     13  O   UNL     1       6.936   7.814  17.105  0.00  0.00    +0.000 OA
ATOM     14  O   UNL     1       7.513   5.743  15.837  0.00  0.00    +0.000 OA
ENDBRANCH   1  12
BRANCH   6  15
ATOM     15  O   UNL     1       0.210   2.309  18.534  0.00  0.00    +0.000 OA
ATOM     16  H   UNL     1      -0.190   2.062  17.684  0.00  0.00    +0.000 HD
ENDBRANCH   6  15
TORSDOF 2
ENDMDL
MODEL 7
REMARK VINA RESULT:      -7.2      0.592      1.102
REMARK  Name = 
REMARK  2 active torsions:
REMARK  status: ('A' for Active; 'I' for Inactive)
REMARK    1  A    between atoms: S_2  and  C_5
REMARK    2  A    between atoms: C_10  and  O_11
REMARK                            x       y       z     vdW  Elec       q    Type
REMARK                         _______ _______ _______ _____ _____    ______ ____
ROOT
ATOM      1  C   UNL     1       5.393   4.602  17.082  0.00  0.00    +0.000 A 
ATOM      2  C   UNL     1       5.585   5.261  18.297  0.00  0.00    +0.000 A 
ATOM      3  C   UNL     1       4.677   5.054  19.333  0.00  0.00    +0.000 A 
ATOM      4  C   UNL     1       3.581   4.189  19.160  0.00  0.00    +0.000 A 
ATOM      5  C   UNL     1       2.636   3.995  20.182  0.00  0.00    +0.000 A 
ATOM      6  C   UNL     1       1.554   3.143  19.986  0.00  0.00    +0.000 A 
ATOM      7  C   UNL     1       1.395   2.458  18.789  0.00  0.00    +0.000 A 
ATOM      8  C   UNL     1       2.316   2.645  17.759  0.00  0.00    +0.000 A 
ATOM      9  C   UNL     1       3.403   3.517  17.926  0.00  0.00    +0.000 A 
ATOM     10  C   UNL     1       4.322   3.727  16.893  0.00  0.00    +0.000 A 
ENDROOT
BRANCH   1  12
ATOM     11  O   UNL     1       6.254   3.590  14.925  0.00  0.00    +0.000 OA
ATOM     12  S   UNL     1       6.614   4.738  15.760  0.00  0.00    +0.000 S 
ATOM     13  O   UNL     1       7.875   4.493  16.454  0.00  0.00    +0.000 OA
ATOM     14  O   UNL     1       6.379   6.058  15.211  0.00  0.00    +0.000 OA
ENDBRANCH   1  12
BRANCH   6  15
ATOM     15  O   UNL     1       0.614   2.953  20.955  0.00  0.00    +0.000 OA
ATOM     16  H   UNL     1       0.724   2.060  21.321  0.00  0.00    +0.000 HD
ENDBRANCH   6  15
TORSDOF 2
ENDMDL
MODEL 8
REMARK VINA RESULT:      -7.1      1.110      2.362
REMARK  Name = 
REMARK  2 active torsions:
REMARK  status: ('A' for Active; 'I' for Inactive)
REMARK    1  A    between atoms: S_2  and  C_5
REMARK    2  A    between atoms: C_10  and  O_11
REMARK                            x       y       z     vdW  Elec       q    Type
REMARK                         _______ _______ _______ _____ _____    ______ ____
ROOT
ATOM      1  C   UNL     1       5.746   4.523  18.048  0.00  0.00    +0.000 A 
ATOM      2  C   UNL     1       5.119   4.079  16.883  0.00  0.00    +0.000 A 
ATOM      3  C   UNL     1       3.790   3.668  16.941  0.00  0.00    +0.000 A 
ATOM      4  C   UNL     1       3.085   3.701  18.157  0.00  0.00    +0.000 A 
ATOM      5  C   UNL     1       1.754   3.258  18.242  0.00  0.00    +0.000 A 
ATOM      6  C   UNL     1       1.078   3.290  19.457  0.00  0.00    +0.000 A 
ATOM      7  C   UNL     1       1.696   3.775  20.603  0.00  0.00    +0.000 A 
ATOM      8  C   UNL     1       3.019   4.209  20.541  0.00  0.00    +0.000 A 
ATOM      9  C   UNL     1       3.727   4.165  19.331  0.00  0.00    +0.000 A 
ATOM     10  C   UNL     1       5.061   4.581  19.263  0.00  0.00    +0.000 A 
ENDROOT
BRANCH   1  12
ATOM     11  O   UNL     1       7.204   6.445  17.272  0.00  0.00    +0.000 OA
ATOM     12  S   UNL     1       7.422   5.188  17.993  0.00  0.00    +0.000 S 
ATOM     13  O   UNL     1       8.126   4.229  17.146  0.00  0.00    +0.000 OA
ATOM     14  O   UNL     1       7.801   5.279  19.387  0.00  0.00    +0.000 OA
ENDBRANCH   1  12
BRANCH   6  15
ATOM     15  O   UNL     1      -0.207   2.847  19.569  0.00  0.00    +0.000 OA
ATOM     16  H   UNL     1      -0.420   2.752  20.511  0.00  0.00    +0.000 HD
ENDBRANCH   6  15
TORSDOF 2
ENDMDL
MODEL 9
REMARK VINA RESULT:      -7.1      1.127      2.226
REMARK  Name = 
REMARK  2 active torsions:
REMARK  status: ('A' for Active; 'I' for Inactive)
REMARK    1  A    between atoms: S_2  and  C_5
REMARK    2  A    between atoms: C_10  and  O_11
REMARK                            x       y       z     vdW  Elec       q    Type
REMARK                         _______ _______ _______ _____ _____    ______ ____
ROOT
ATOM      1  C   UNL     1       5.737   4.592  18.072  0.00  0.00    +0.000 A 
ATOM      2  C   UNL     1       5.146   4.071  16.921  0.00  0.00    +0.000 A 
ATOM      3  C   UNL     1       3.826   3.632  16.974  0.00  0.00    +0.000 A 
ATOM      4  C   UNL     1       3.094   3.713  18.173  0.00  0.00    +0.000 A 
ATOM      5  C   UNL     1       1.772   3.243  18.255  0.00  0.00    +0.000 A 
ATOM      6  C   UNL     1       1.070   3.325  19.454  0.00  0.00    +0.000 A 
ATOM      7  C   UNL     1       1.653   3.884  20.583  0.00  0.00    +0.000 A 
ATOM      8  C   UNL     1       2.966   4.347  20.524  0.00  0.00    +0.000 A 
ATOM      9  C   UNL     1       3.701   4.255  19.333  0.00  0.00    +0.000 A 
ATOM     10  C   UNL     1       5.026   4.698  19.269  0.00  0.00    +0.000 A 
ENDROOT
BRANCH   1  12
ATOM     11  O   UNL     1       8.126   4.235  17.306  0.00  0.00    +0.000 OA
ATOM     12  S   UNL     1       7.399   5.293  18.014  0.00  0.00    +0.000 S 
ATOM     13  O   UNL     1       7.788   5.328  19.421  0.00  0.00    +0.000 OA
ATOM     14  O   UNL     1       7.218   6.551  17.321  0.00  0.00    +0.000 OA
ENDBRANCH   1  12
BRANCH   6  15
ATOM     15  O   UNL     1      -0.206   2.858  19.563  0.00  0.00    +0.000 OA
ATOM     16  H   UNL     1      -0.628   3.290  20.323  0.00  0.00    +0.000 HD
ENDBRANCH   6  15
TORSDOF 2
ENDMDL
