MODEL 1
REMARK VINA RESULT:      -9.0      0.000      0.000
REMARK  Name = 
REMARK  5 active torsions:
REMARK  status: ('A' for Active; 'I' for Inactive)
REMARK    1  A    between atoms: C_2  and  C_3
REMARK    2  A    between atoms: C_3  and  N_4
REMARK    3  A    between atoms: C_6  and  S_7
REMARK    4  A    between atoms: S_7  and  C_10
REMARK    5  A    between atoms: C_10  and  C_11
REMARK                            x       y       z     vdW  Elec       q    Type
REMARK                         _______ _______ _______ _____ _____    ______ ____
ROOT
ATOM      1  N   UNL     1       2.795   6.567  19.091  0.00  0.00    +0.000 N 
ATOM      2  C   UNL     1       3.849   7.135  18.416  0.00  0.00    +0.000 A 
ATOM      3  C   UNL     1       4.297   6.225  17.478  0.00  0.00    +0.000 A 
ATOM      4  C   UNL     1       3.506   5.049  17.597  0.00  0.00    +0.000 A 
ATOM      5  C   UNL     1       3.500   3.791  16.952  0.00  0.00    +0.000 A 
ATOM      6  C   UNL     1       2.562   2.823  17.322  0.00  0.00    +0.000 A 
ATOM      7  C   UNL     1       1.637   3.085  18.323  0.00  0.00    +0.000 A 
ATOM      8  C   UNL     1       1.620   4.319  18.984  0.00  0.00    +0.000 A 
ATOM      9  C   UNL     1       2.563   5.289  18.608  0.00  0.00    +0.000 A 
ENDROOT
BRANCH   3  10
ATOM     10  S   UNL     1       5.604   6.467  16.359  0.00  0.00    +0.000 S 
ATOM     11  O   UNL     1       4.949   6.896  15.137  0.00  0.00    +0.000 OA
ATOM     12  O   UNL     1       6.537   7.310  17.081  0.00  0.00    +0.000 OA
BRANCH  10  13
ATOM     13  C   UNL     1       6.289   4.829  16.136  0.00  0.00    +0.000 C 
BRANCH  13  14
ATOM     14  C   UNL     1       6.565   4.573  14.674  0.00  0.00    +0.000 A 
ATOM     15  C   UNL     1       7.596   5.258  14.009  0.00  0.00    +0.000 A 
ATOM     16  C   UNL     1       7.826   5.062  12.645  0.00  0.00    +0.000 A 
ATOM     17  C   UNL     1       7.030   4.175  11.924  0.00  0.00    +0.000 A 
ATOM     18  C   UNL     1       6.018   3.483  12.578  0.00  0.00    +0.000 A 
ATOM     19  F   UNL     1       5.252   2.630  11.885  0.00  0.00    +0.000 F 
ATOM     20  C   UNL     1       5.781   3.669  13.939  0.00  0.00    +0.000 A 
ENDBRANCH  13  14
ENDBRANCH  10  13
ENDBRANCH   3  10
BRANCH   1  21
ATOM     21  C   UNL     1       1.996   7.255  20.109  0.00  0.00    +0.000 C 
BRANCH  21  23
ATOM     22  O   UNL     1       1.769   9.110  18.587  0.00  0.00    +0.000 OA
ATOM     23  C   UNL     1       1.416   8.583  19.643  0.00  0.00    +0.000 C 
ATOM     24  N   UNL     1       0.462   9.187  20.457  0.00  0.00    +0.000 N 
ATOM     25  C   UNL     1      -0.222  10.398  19.984  0.00  0.00    +0.000 C 
ATOM     26  C   UNL     1      -0.223  11.474  21.073  0.00  0.00    +0.000 C 
ATOM     27  O   UNL     1      -0.817  10.971  22.282  0.00  0.00    +0.000 OA
ATOM     28  C   UNL     1      -0.083   9.841  22.777  0.00  0.00    +0.000 C 
ATOM     29  C   UNL     1      -0.041   8.699  21.748  0.00  0.00    +0.000 C 
ENDBRANCH  21  23
ENDBRANCH   1  21
TORSDOF 5
ENDMDL
MODEL 2
REMARK VINA RESULT:      -8.4      1.055      1.372
REMARK  Name = 
REMARK  5 active torsions:
REMARK  status: ('A' for Active; 'I' for Inactive)
REMARK    1  A    between atoms: C_2  and  C_3
REMARK    2  A    between atoms: C_3  and  N_4
REMARK    3  A    between atoms: C_6  and  S_7
REMARK    4  A    between atoms: S_7  and  C_10
REMARK    5  A    between atoms: C_10  and  C_11
REMARK                            x       y       z     vdW  Elec       q    Type
REMARK                         _______ _______ _______ _____ _____    ______ ____
ROOT
ATOM      1  N   UNL     1       2.691   6.691  19.048  0.00  0.00    +0.000 N 
ATOM      2  C   UNL     1       3.761   7.108  18.293  0.00  0.00    +0.000 A 
ATOM      3  C   UNL     1       4.141   6.063  17.473  0.00  0.00    +0.000 A 
ATOM      4  C   UNL     1       3.289   4.957  17.751  0.00  0.00    +0.000 A 
ATOM      5  C   UNL     1       3.202   3.630  17.273  0.00  0.00    +0.000 A 
ATOM      6  C   UNL     1       2.219   2.772  17.775  0.00  0.00    +0.000 A 
ATOM      7  C   UNL     1       1.330   3.211  18.746  0.00  0.00    +0.000 A 
ATOM      8  C   UNL     1       1.393   4.518  19.244  0.00  0.00    +0.000 A 
ATOM      9  C   UNL     1       2.380   5.378  18.734  0.00  0.00    +0.000 A 
ENDROOT
BRANCH   3  10
ATOM     10  S   UNL     1       5.437   6.086  16.317  0.00  0.00    +0.000 S 
ATOM     11  O   UNL     1       4.963   6.974  15.272  0.00  0.00    +0.000 OA
ATOM     12  O   UNL     1       6.615   6.376  17.111  0.00  0.00    +0.000 OA
BRANCH  10  13
ATOM     13  C   UNL     1       5.498   4.406  15.704  0.00  0.00    +0.000 C 
BRANCH  13  14
ATOM     14  C   UNL     1       6.133   4.373  14.334  0.00  0.00    +0.000 A 
ATOM     15  C   UNL     1       5.619   3.537  13.328  0.00  0.00    +0.000 A 
ATOM     16  C   UNL     1       6.229   3.466  12.073  0.00  0.00    +0.000 A 
ATOM     17  C   UNL     1       7.361   4.230  11.804  0.00  0.00    +0.000 A 
ATOM     18  C   UNL     1       7.866   5.070  12.789  0.00  0.00    +0.000 A 
ATOM     19  F   UNL     1       8.955   5.805  12.530  0.00  0.00    +0.000 F 
ATOM     20  C   UNL     1       7.264   5.152  14.044  0.00  0.00    +0.000 A 
ENDBRANCH  13  14
ENDBRANCH  10  13
ENDBRANCH   3  10
BRANCH   1  21
ATOM     21  C   UNL     1       1.950   7.547  19.979  0.00  0.00    +0.000 C 
BRANCH  21  23
ATOM     22  O   UNL     1       1.695   9.171  18.217  0.00  0.00    +0.000 OA
ATOM     23  C   UNL     1       1.337   8.779  19.329  0.00  0.00    +0.000 C 
ATOM     24  N   UNL     1       0.347   9.452  20.037  0.00  0.00    +0.000 N 
ATOM     25  C   UNL     1      -0.367  10.564  19.394  0.00  0.00    +0.000 C 
ATOM     26  C   UNL     1      -0.426  11.776  20.327  0.00  0.00    +0.000 C 
ATOM     27  O   UNL     1      -1.028  11.420  21.583  0.00  0.00    +0.000 OA
ATOM     28  C   UNL     1      -0.268  10.394  22.238  0.00  0.00    +0.000 C 
ATOM     29  C   UNL     1      -0.167   9.126  21.374  0.00  0.00    +0.000 C 
ENDBRANCH  21  23
ENDBRANCH   1  21
TORSDOF 5
ENDMDL
MODEL 3
REMARK VINA RESULT:      -8.4      1.524      1.823
REMARK  Name = 
REMARK  5 active torsions:
REMARK  status: ('A' for Active; 'I' for Inactive)
REMARK    1  A    between atoms: C_2  and  C_3
REMARK    2  A    between atoms: C_3  and  N_4
REMARK    3  A    between atoms: C_6  and  S_7
REMARK    4  A    between atoms: S_7  and  C_10
REMARK    5  A    between atoms: C_10  and  C_11
REMARK                            x       y       z     vdW  Elec       q    Type
REMARK                         _______ _______ _______ _____ _____    ______ ____
ROOT
ATOM      1  N   UNL     1       2.777   6.226  19.424  0.00  0.00    +0.000 N 
ATOM      2  C   UNL     1       3.857   6.198  18.575  0.00  0.00    +0.000 A 
ATOM      3  C   UNL     1       4.053   4.890  18.174  0.00  0.00    +0.000 A 
ATOM      4  C   UNL     1       3.074   4.084  18.818  0.00  0.00    +0.000 A 
ATOM      5  C   UNL     1       2.786   2.700  18.834  0.00  0.00    +0.000 A 
ATOM      6  C   UNL     1       1.721   2.219  19.602  0.00  0.00    +0.000 A 
ATOM      7  C   UNL     1       0.946   3.090  20.355  0.00  0.00    +0.000 A 
ATOM      8  C   UNL     1       1.209   4.465  20.364  0.00  0.00    +0.000 A 
ATOM      9  C   UNL     1       2.277   4.944  19.589  0.00  0.00    +0.000 A 
ENDROOT
BRANCH   3  10
ATOM     10  S   UNL     1       5.285   4.325  17.086  0.00  0.00    +0.000 S 
ATOM     11  O   UNL     1       6.517   4.475  17.840  0.00  0.00    +0.000 OA
ATOM     12  O   UNL     1       4.797   3.036  16.638  0.00  0.00    +0.000 OA
BRANCH  10  13
ATOM     13  C   UNL     1       5.249   5.507  15.743  0.00  0.00    +0.000 C 
BRANCH  13  14
ATOM     14  C   UNL     1       5.891   4.915  14.511  0.00  0.00    +0.000 A 
ATOM     15  C   UNL     1       7.192   5.288  14.133  0.00  0.00    +0.000 A 
ATOM     16  C   UNL     1       7.774   4.782  12.968  0.00  0.00    +0.000 A 
ATOM     17  C   UNL     1       7.066   3.892  12.164  0.00  0.00    +0.000 A 
ATOM     18  C   UNL     1       5.785   3.507  12.540  0.00  0.00    +0.000 A 
ATOM     19  F   UNL     1       5.103   2.652  11.766  0.00  0.00    +0.000 F 
ATOM     20  C   UNL     1       5.194   4.004  13.701  0.00  0.00    +0.000 A 
ENDBRANCH  13  14
ENDBRANCH  10  13
ENDBRANCH   3  10
BRANCH   1  21
ATOM     21  C   UNL     1       2.204   7.448  19.994  0.00  0.00    +0.000 C 
BRANCH  21  23
ATOM     22  O   UNL     1       1.967   8.321  17.760  0.00  0.00    +0.000 OA
ATOM     23  C   UNL     1       1.679   8.426  18.953  0.00  0.00    +0.000 C 
ATOM     24  N   UNL     1       0.850   9.452  19.397  0.00  0.00    +0.000 N 
ATOM     25  C   UNL     1       0.212  10.338  18.414  0.00  0.00    +0.000 C 
ATOM     26  C   UNL     1       0.389  11.803  18.815  0.00  0.00    +0.000 C 
ATOM     27  O   UNL     1      -0.123  12.031  20.139  0.00  0.00    +0.000 OA
ATOM     28  C   UNL     1       0.573  11.223  21.100  0.00  0.00    +0.000 C 
ATOM     29  C   UNL     1       0.437   9.724  20.780  0.00  0.00    +0.000 C 
ENDBRANCH  21  23
ENDBRANCH   1  21
TORSDOF 5
ENDMDL
MODEL 4
REMARK VINA RESULT:      -8.3      1.503      1.972
REMARK  Name = 
REMARK  5 active torsions:
REMARK  status: ('A' for Active; 'I' for Inactive)
REMARK    1  A    between atoms: C_2  and  C_3
REMARK    2  A    between atoms: C_3  and  N_4
REMARK    3  A    between atoms: C_6  and  S_7
REMARK    4  A    between atoms: S_7  and  C_10
REMARK    5  A    between atoms: C_10  and  C_11
REMARK                            x       y       z     vdW  Elec       q    Type
REMARK                         _______ _______ _______ _____ _____    ______ ____
ROOT
ATOM      1  N   UNL     1       2.759   6.352  18.340  0.00  0.00    +0.000 N 
ATOM      2  C   UNL     1       4.031   6.598  17.881  0.00  0.00    +0.000 A 
ATOM      3  C   UNL     1       4.595   5.391  17.512  0.00  0.00    +0.000 A 
ATOM      4  C   UNL     1       3.644   4.366  17.775  0.00  0.00    +0.000 A 
ATOM      5  C   UNL     1       3.644   2.959  17.643  0.00  0.00    +0.000 A 
ATOM      6  C   UNL     1       2.511   2.225  18.009  0.00  0.00    +0.000 A 
ATOM      7  C   UNL     1       1.387   2.868  18.507  0.00  0.00    +0.000 A 
ATOM      8  C   UNL     1       1.357   4.259  18.656  0.00  0.00    +0.000 A 
ATOM      9  C   UNL     1       2.496   4.993  18.284  0.00  0.00    +0.000 A 
ENDROOT
BRANCH   3  10
ATOM     10  S   UNL     1       6.187   5.162  16.855  0.00  0.00    +0.000 S 
ATOM     11  O   UNL     1       6.419   6.358  16.066  0.00  0.00    +0.000 OA
ATOM     12  O   UNL     1       6.998   4.817  18.006  0.00  0.00    +0.000 OA
BRANCH  10  13
ATOM     13  C   UNL     1       6.007   3.747  15.774  0.00  0.00    +0.000 C 
BRANCH  13  14
ATOM     14  C   UNL     1       6.468   4.095  14.379  0.00  0.00    +0.000 A 
ATOM     15  C   UNL     1       5.852   3.515  13.257  0.00  0.00    +0.000 A 
ATOM     16  C   UNL     1       6.304   3.795  11.965  0.00  0.00    +0.000 A 
ATOM     17  C   UNL     1       7.377   4.662  11.774  0.00  0.00    +0.000 A 
ATOM     18  C   UNL     1       7.982   5.250  12.878  0.00  0.00    +0.000 A 
ATOM     19  F   UNL     1       9.015   6.083  12.695  0.00  0.00    +0.000 F 
ATOM     20  C   UNL     1       7.538   4.981  14.171  0.00  0.00    +0.000 A 
ENDBRANCH  13  14
ENDBRANCH  10  13
ENDBRANCH   3  10
BRANCH   1  21
ATOM     21  C   UNL     1       1.809   7.392  18.745  0.00  0.00    +0.000 C 
BRANCH  21  23
ATOM     22  O   UNL     1       1.926   6.616  21.023  0.00  0.00    +0.000 OA
ATOM     23  C   UNL     1       1.663   7.540  20.252  0.00  0.00    +0.000 C 
ATOM     24  N   UNL     1       1.222   8.768  20.736  0.00  0.00    +0.000 N 
ATOM     25  C   UNL     1       1.196   9.002  22.187  0.00  0.00    +0.000 C 
ATOM     26  C   UNL     1      -0.146   9.604  22.609  0.00  0.00    +0.000 C 
ATOM     27  O   UNL     1      -0.413  10.811  21.877  0.00  0.00    +0.000 OA
ATOM     28  C   UNL     1      -0.471  10.548  20.467  0.00  0.00    +0.000 C 
ATOM     29  C   UNL     1       0.848   9.950  19.949  0.00  0.00    +0.000 C 
ENDBRANCH  21  23
ENDBRANCH   1  21
TORSDOF 5
ENDMDL
MODEL 5
REMARK VINA RESULT:      -8.3      1.536      2.078
REMARK  Name = 
REMARK  5 active torsions:
REMARK  status: ('A' for Active; 'I' for Inactive)
REMARK    1  A    between atoms: C_2  and  C_3
REMARK    2  A    between atoms: C_3  and  N_4
REMARK    3  A    between atoms: C_6  and  S_7
REMARK    4  A    between atoms: S_7  and  C_10
REMARK    5  A    between atoms: C_10  and  C_11
REMARK                            x       y       z     vdW  Elec       q    Type
REMARK                         _______ _______ _______ _____ _____    ______ ____
ROOT
ATOM      1  N   UNL     1       3.094   7.008  17.921  0.00  0.00    +0.000 N 
ATOM      2  C   UNL     1       4.428   7.315  17.801  0.00  0.00    +0.000 A 
ATOM      3  C   UNL     1       5.131   6.132  17.673  0.00  0.00    +0.000 A 
ATOM      4  C   UNL     1       4.197   5.060  17.740  0.00  0.00    +0.000 A 
ATOM      5  C   UNL     1       4.304   3.652  17.703  0.00  0.00    +0.000 A 
ATOM      6  C   UNL     1       3.154   2.863  17.801  0.00  0.00    +0.000 A 
ATOM      7  C   UNL     1       1.906   3.453  17.942  0.00  0.00    +0.000 A 
ATOM      8  C   UNL     1       1.767   4.845  17.987  0.00  0.00    +0.000 A 
ATOM      9  C   UNL     1       2.925   5.633  17.885  0.00  0.00    +0.000 A 
ENDROOT
BRANCH   3  10
ATOM     10  S   UNL     1       6.850   5.977  17.478  0.00  0.00    +0.000 S 
ATOM     11  O   UNL     1       7.188   6.992  16.497  0.00  0.00    +0.000 OA
ATOM     12  O   UNL     1       7.363   6.001  18.834  0.00  0.00    +0.000 OA
BRANCH  10  13
ATOM     13  C   UNL     1       7.058   4.350  16.763  0.00  0.00    +0.000 C 
BRANCH  13  14
ATOM     14  C   UNL     1       6.930   4.420  15.261  0.00  0.00    +0.000 A 
ATOM     15  C   UNL     1       5.944   3.675  14.591  0.00  0.00    +0.000 A 
ATOM     16  C   UNL     1       5.849   3.698  13.197  0.00  0.00    +0.000 A 
ATOM     17  C   UNL     1       6.738   4.468  12.451  0.00  0.00    +0.000 A 
ATOM     18  C   UNL     1       7.706   5.218  13.107  0.00  0.00    +0.000 A 
ATOM     19  F   UNL     1       8.562   5.957  12.389  0.00  0.00    +0.000 F 
ATOM     20  C   UNL     1       7.808   5.205  14.497  0.00  0.00    +0.000 A 
ENDBRANCH  13  14
ENDBRANCH  10  13
ENDBRANCH   3  10
BRANCH   1  21
ATOM     21  C   UNL     1       2.019   8.001  17.992  0.00  0.00    +0.000 C 
BRANCH  21  23
ATOM     22  O   UNL     1       1.909   7.713  20.382  0.00  0.00    +0.000 OA
ATOM     23  C   UNL     1       1.668   8.430  19.409  0.00  0.00    +0.000 C 
ATOM     24  N   UNL     1       1.063   9.672  19.572  0.00  0.00    +0.000 N 
ATOM     25  C   UNL     1       0.830  10.186  20.929  0.00  0.00    +0.000 C 
ATOM     26  C   UNL     1      -0.602  10.707  21.068  0.00  0.00    +0.000 C 
ATOM     27  O   UNL     1      -0.877  11.706  20.073  0.00  0.00    +0.000 OA
ATOM     28  C   UNL     1      -0.730  11.163  18.752  0.00  0.00    +0.000 C 
ATOM     29  C   UNL     1       0.692  10.625  18.518  0.00  0.00    +0.000 C 
ENDBRANCH  21  23
ENDBRANCH   1  21
TORSDOF 5
ENDMDL
MODEL 6
REMARK VINA RESULT:      -8.0      2.542      3.435
REMARK  Name = 
REMARK  5 active torsions:
REMARK  status: ('A' for Active; 'I' for Inactive)
REMARK    1  A    between atoms: C_2  and  C_3
REMARK    2  A    between atoms: C_3  and  N_4
REMARK    3  A    between atoms: C_6  and  S_7
REMARK    4  A    between atoms: S_7  and  C_10
REMARK    5  A    between atoms: C_10  and  C_11
REMARK                            x       y       z     vdW  Elec       q    Type
REMARK                         _______ _______ _______ _____ _____    ______ ____
ROOT
ATOM      1  N   UNL     1       3.211   6.196  18.526  0.00  0.00    +0.000 N 
ATOM      2  C   UNL     1       3.980   6.495  17.427  0.00  0.00    +0.000 A 
ATOM      3  C   UNL     1       4.353   5.306  16.829  0.00  0.00    +0.000 A 
ATOM      4  C   UNL     1       3.813   4.240  17.601  0.00  0.00    +0.000 A 
ATOM      5  C   UNL     1       3.871   2.831  17.519  0.00  0.00    +0.000 A 
ATOM      6  C   UNL     1       3.211   2.050  18.472  0.00  0.00    +0.000 A 
ATOM      7  C   UNL     1       2.501   2.648  19.504  0.00  0.00    +0.000 A 
ATOM      8  C   UNL     1       2.428   4.041  19.616  0.00  0.00    +0.000 A 
ATOM      9  C   UNL     1       3.091   4.822  18.655  0.00  0.00    +0.000 A 
ENDROOT
BRANCH   3  10
ATOM     10  S   UNL     1       5.322   5.140  15.396  0.00  0.00    +0.000 S 
ATOM     11  O   UNL     1       4.664   4.086  14.646  0.00  0.00    +0.000 OA
ATOM     12  O   UNL     1       5.446   6.494  14.894  0.00  0.00    +0.000 OA
BRANCH  10  13
ATOM     13  C   UNL     1       6.899   4.556  16.008  0.00  0.00    +0.000 C 
BRANCH  13  14
ATOM     14  C   UNL     1       7.397   5.458  17.112  0.00  0.00    +0.000 A 
ATOM     15  C   UNL     1       7.674   4.940  18.388  0.00  0.00    +0.000 A 
ATOM     16  C   UNL     1       8.090   5.776  19.427  0.00  0.00    +0.000 A 
ATOM     17  C   UNL     1       8.238   7.143  19.206  0.00  0.00    +0.000 A 
ATOM     18  C   UNL     1       7.979   7.660  17.942  0.00  0.00    +0.000 A 
ATOM     19  F   UNL     1       8.120   8.975  17.729  0.00  0.00    +0.000 F 
ATOM     20  C   UNL     1       7.567   6.835  16.897  0.00  0.00    +0.000 A 
ENDBRANCH  13  14
ENDBRANCH  10  13
ENDBRANCH   3  10
BRANCH   1  21
ATOM     21  C   UNL     1       2.555   7.195  19.374  0.00  0.00    +0.000 C 
BRANCH  21  23
ATOM     22  O   UNL     1       2.316   8.605  17.435  0.00  0.00    +0.000 OA
ATOM     23  C   UNL     1       2.007   8.390  18.607  0.00  0.00    +0.000 C 
ATOM     24  N   UNL     1       1.133   9.239  19.281  0.00  0.00    +0.000 N 
ATOM     25  C   UNL     1       0.474  10.325  18.543  0.00  0.00    +0.000 C 
ATOM     26  C   UNL     1       0.590  11.644  19.312  0.00  0.00    +0.000 C 
ATOM     27  O   UNL     1       0.052  11.506  20.638  0.00  0.00    +0.000 OA
ATOM     28  C   UNL     1       0.765  10.501  21.374  0.00  0.00    +0.000 C 
ATOM     29  C   UNL     1       0.691   9.132  20.678  0.00  0.00    +0.000 C 
ENDBRANCH  21  23
ENDBRANCH   1  21
TORSDOF 5
ENDMDL
MODEL 7
REMARK VINA RESULT:      -7.9      1.741      2.194
REMARK  Name = 
REMARK  5 active torsions:
REMARK  status: ('A' for Active; 'I' for Inactive)
REMARK    1  A    between atoms: C_2  and  C_3
REMARK    2  A    between atoms: C_3  and  N_4
REMARK    3  A    between atoms: C_6  and  S_7
REMARK    4  A    between atoms: S_7  and  C_10
REMARK    5  A    between atoms: C_10  and  C_11
REMARK                            x       y       z     vdW  Elec       q    Type
REMARK                         _______ _______ _______ _____ _____    ______ ____
ROOT
ATOM      1  N   UNL     1       2.658   6.184  19.663  0.00  0.00    +0.000 N 
ATOM      2  C   UNL     1       3.768   6.188  18.852  0.00  0.00    +0.000 A 
ATOM      3  C   UNL     1       3.984   4.895  18.415  0.00  0.00    +0.000 A 
ATOM      4  C   UNL     1       2.986   4.065  18.997  0.00  0.00    +0.000 A 
ATOM      5  C   UNL     1       2.703   2.681  18.958  0.00  0.00    +0.000 A 
ATOM      6  C   UNL     1       1.613   2.171  19.670  0.00  0.00    +0.000 A 
ATOM      7  C   UNL     1       0.808   3.014  20.423  0.00  0.00    +0.000 A 
ATOM      8  C   UNL     1       1.064   4.389  20.487  0.00  0.00    +0.000 A 
ATOM      9  C   UNL     1       2.158   4.897  19.767  0.00  0.00    +0.000 A 
ENDROOT
BRANCH   3  10
ATOM     10  S   UNL     1       5.256   4.370  17.355  0.00  0.00    +0.000 S 
ATOM     11  O   UNL     1       6.442   4.384  18.192  0.00  0.00    +0.000 OA
ATOM     12  O   UNL     1       4.739   3.156  16.755  0.00  0.00    +0.000 OA
BRANCH  10  13
ATOM     13  C   UNL     1       5.362   5.672  16.132  0.00  0.00    +0.000 C 
BRANCH  13  14
ATOM     14  C   UNL     1       5.952   5.136  14.849  0.00  0.00    +0.000 A 
ATOM     15  C   UNL     1       5.279   4.148  14.111  0.00  0.00    +0.000 A 
ATOM     16  C   UNL     1       5.840   3.613  12.948  0.00  0.00    +0.000 A 
ATOM     17  C   UNL     1       7.082   4.061  12.504  0.00  0.00    +0.000 A 
ATOM     18  C   UNL     1       7.746   5.049  13.221  0.00  0.00    +0.000 A 
ATOM     19  F   UNL     1       8.941   5.479  12.795  0.00  0.00    +0.000 F 
ATOM     20  C   UNL     1       7.194   5.591  14.381  0.00  0.00    +0.000 A 
ENDBRANCH  13  14
ENDBRANCH  10  13
ENDBRANCH   3  10
BRANCH   1  21
ATOM     21  C   UNL     1       2.059   7.385  20.252  0.00  0.00    +0.000 C 
BRANCH  21  23
ATOM     22  O   UNL     1       1.996   8.391  18.063  0.00  0.00    +0.000 OA
ATOM     23  C   UNL     1       1.591   8.407  19.226  0.00  0.00    +0.000 C 
ATOM     24  N   UNL     1       0.677   9.368  19.648  0.00  0.00    +0.000 N 
ATOM     25  C   UNL     1       0.094  10.288  18.662  0.00  0.00    +0.000 C 
ATOM     26  C   UNL     1       0.164  11.731  19.168  0.00  0.00    +0.000 C 
ATOM     27  O   UNL     1      -0.482  11.851  20.447  0.00  0.00    +0.000 OA
ATOM     28  C   UNL     1       0.156  11.011  21.420  0.00  0.00    +0.000 C 
ATOM     29  C   UNL     1       0.121   9.532  20.998  0.00  0.00    +0.000 C 
ENDBRANCH  21  23
ENDBRANCH   1  21
TORSDOF 5
ENDMDL
MODEL 8
REMARK VINA RESULT:      -7.9      1.622      2.004
REMARK  Name = 
REMARK  5 active torsions:
REMARK  status: ('A' for Active; 'I' for Inactive)
REMARK    1  A    between atoms: C_2  and  C_3
REMARK    2  A    between atoms: C_3  and  N_4
REMARK    3  A    between atoms: C_6  and  S_7
REMARK    4  A    between atoms: S_7  and  C_10
REMARK    5  A    between atoms: C_10  and  C_11
REMARK                            x       y       z     vdW  Elec       q    Type
REMARK                         _______ _______ _______ _____ _____    ______ ____
ROOT
ATOM      1  N   UNL     1       2.572   7.271  19.112  0.00  0.00    +0.000 N 
ATOM      2  C   UNL     1       3.488   7.598  18.141  0.00  0.00    +0.000 A 
ATOM      3  C   UNL     1       4.111   6.435  17.731  0.00  0.00    +0.000 A 
ATOM      4  C   UNL     1       3.576   5.360  18.493  0.00  0.00    +0.000 A 
ATOM      5  C   UNL     1       3.826   3.970  18.555  0.00  0.00    +0.000 A 
ATOM      6  C   UNL     1       3.103   3.172  19.447  0.00  0.00    +0.000 A 
ATOM      7  C   UNL     1       2.145   3.734  20.278  0.00  0.00    +0.000 A 
ATOM      8  C   UNL     1       1.878   5.107  20.245  0.00  0.00    +0.000 A 
ATOM      9  C   UNL     1       2.604   5.906  19.346  0.00  0.00    +0.000 A 
ENDROOT
BRANCH   3  10
ATOM     10  S   UNL     1       5.342   6.308  16.511  0.00  0.00    +0.000 S 
ATOM     11  O   UNL     1       4.890   7.200  15.460  0.00  0.00    +0.000 OA
ATOM     12  O   UNL     1       6.580   6.518  17.234  0.00  0.00    +0.000 OA
BRANCH  10  13
ATOM     13  C   UNL     1       5.225   4.610  15.957  0.00  0.00    +0.000 C 
BRANCH  13  14
ATOM     14  C   UNL     1       5.857   4.462  14.594  0.00  0.00    +0.000 A 
ATOM     15  C   UNL     1       5.282   3.620  13.627  0.00  0.00    +0.000 A 
ATOM     16  C   UNL     1       5.886   3.440  12.380  0.00  0.00    +0.000 A 
ATOM     17  C   UNL     1       7.074   4.102  12.079  0.00  0.00    +0.000 A 
ATOM     18  C   UNL     1       7.641   4.947  13.025  0.00  0.00    +0.000 A 
ATOM     19  F   UNL     1       8.784   5.583  12.737  0.00  0.00    +0.000 F 
ATOM     20  C   UNL     1       7.045   5.136  14.271  0.00  0.00    +0.000 A 
ENDBRANCH  13  14
ENDBRANCH  10  13
ENDBRANCH   3  10
BRANCH   1  21
ATOM     21  C   UNL     1       1.649   8.224  19.736  0.00  0.00    +0.000 C 
BRANCH  21  23
ATOM     22  O   UNL     1       1.014   9.066  17.569  0.00  0.00    +0.000 OA
ATOM     23  C   UNL     1       1.112   9.278  18.778  0.00  0.00    +0.000 C 
ATOM     24  N   UNL     1       0.728  10.501  19.321  0.00  0.00    +0.000 N 
ATOM     25  C   UNL     1       0.078  11.497  18.458  0.00  0.00    +0.000 C 
ATOM     26  C   UNL     1       0.723  12.872  18.646  0.00  0.00    +0.000 C 
ATOM     27  O   UNL     1       0.683  13.266  20.028  0.00  0.00    +0.000 OA
ATOM     28  C   UNL     1       1.398  12.327  20.845  0.00  0.00    +0.000 C 
ATOM     29  C   UNL     1       0.806  10.912  20.728  0.00  0.00    +0.000 C 
ENDBRANCH  21  23
ENDBRANCH   1  21
TORSDOF 5
ENDMDL
MODEL 9
REMARK VINA RESULT:      -7.9      1.445      1.646
REMARK  Name = 
REMARK  5 active torsions:
REMARK  status: ('A' for Active; 'I' for Inactive)
REMARK    1  A    between atoms: C_2  and  C_3
REMARK    2  A    between atoms: C_3  and  N_4
REMARK    3  A    between atoms: C_6  and  S_7
REMARK    4  A    between atoms: S_7  and  C_10
REMARK    5  A    between atoms: C_10  and  C_11
REMARK                            x       y       z     vdW  Elec       q    Type
REMARK                         _______ _______ _______ _____ _____    ______ ____
ROOT
ATOM      1  N   UNL     1       3.221   5.992  18.839  0.00  0.00    +0.000 N 
ATOM      2  C   UNL     1       4.436   6.095  18.206  0.00  0.00    +0.000 A 
ATOM      3  C   UNL     1       4.664   4.917  17.521  0.00  0.00    +0.000 A 
ATOM      4  C   UNL     1       3.561   4.051  17.761  0.00  0.00    +0.000 A 
ATOM      5  C   UNL     1       3.235   2.733  17.371  0.00  0.00    +0.000 A 
ATOM      6  C   UNL     1       2.034   2.157  17.797  0.00  0.00    +0.000 A 
ATOM      7  C   UNL     1       1.160   2.869  18.607  0.00  0.00    +0.000 A 
ATOM      8  C   UNL     1       1.457   4.175  19.014  0.00  0.00    +0.000 A 
ATOM      9  C   UNL     1       2.662   4.750  18.581  0.00  0.00    +0.000 A 
ENDROOT
BRANCH   3  10
ATOM     10  S   UNL     1       6.057   4.549  16.549  0.00  0.00    +0.000 S 
ATOM     11  O   UNL     1       7.171   5.079  17.313  0.00  0.00    +0.000 OA
ATOM     12  O   UNL     1       5.917   3.138  16.250  0.00  0.00    +0.000 OA
BRANCH  10  13
ATOM     13  C   UNL     1       5.819   5.526  15.068  0.00  0.00    +0.000 C 
BRANCH  13  14
ATOM     14  C   UNL     1       6.006   4.667  13.841  0.00  0.00    +0.000 A 
ATOM     15  C   UNL     1       7.270   4.540  13.242  0.00  0.00    +0.000 A 
ATOM     16  C   UNL     1       7.442   3.786  12.078  0.00  0.00    +0.000 A 
ATOM     17  C   UNL     1       6.352   3.142  11.498  0.00  0.00    +0.000 A 
ATOM     18  C   UNL     1       5.101   3.251  12.093  0.00  0.00    +0.000 A 
ATOM     19  F   UNL     1       4.052   2.633  11.534  0.00  0.00    +0.000 F 
ATOM     20  C   UNL     1       4.918   3.999  13.255  0.00  0.00    +0.000 A 
ENDBRANCH  13  14
ENDBRANCH  10  13
ENDBRANCH   3  10
BRANCH   1  21
ATOM     21  C   UNL     1       2.589   7.073  19.599  0.00  0.00    +0.000 C 
BRANCH  21  23
ATOM     22  O   UNL     1       2.435   8.348  17.560  0.00  0.00    +0.000 OA
ATOM     23  C   UNL     1       2.091   8.224  18.736  0.00  0.00    +0.000 C 
ATOM     24  N   UNL     1       1.224   9.139  19.326  0.00  0.00    +0.000 N 
ATOM     25  C   UNL     1       0.612  10.187  18.496  0.00  0.00    +0.000 C 
ATOM     26  C   UNL     1       0.742  11.552  19.174  0.00  0.00    +0.000 C 
ATOM     27  O   UNL     1       0.168  11.522  20.491  0.00  0.00    +0.000 OA
ATOM     28  C   UNL     1       0.836  10.554  21.315  0.00  0.00    +0.000 C 
ATOM     29  C   UNL     1       0.744   9.141  20.714  0.00  0.00    +0.000 C 
ENDBRANCH  21  23
ENDBRANCH   1  21
TORSDOF 5
ENDMDL
