MODEL 1
REMARK VINA RESULT:      -7.6      0.000      0.000
REMARK  Name = 
REMARK  4 active torsions:
REMARK  status: ('A' for Active; 'I' for Inactive)
REMARK    1  A    between atoms: C_1  and  O_2
REMARK    2  A    between atoms: O_2  and  C_3
REMARK    3  A    between atoms: C_9  and  C_10
REMARK    4  A    between atoms: N_12  and  C_13
REMARK                            x       y       z     vdW  Elec       q    Type
REMARK                         _______ _______ _______ _____ _____    ______ ____
ROOT
ATOM      1  C   UNL     1       5.381   4.270  17.849  0.00  0.00    +0.000 C 
ATOM      2  O   UNL     1       6.109   4.154  18.829  0.00  0.00    +0.000 OA
ATOM      3  N   UNL     1       4.006   4.170  17.946  0.00  0.00    +0.000 N 
ATOM      4  H   UNL     1       3.465   4.412  17.122  0.00  0.00    +0.000 HD
ENDROOT
BRANCH   3   5
ATOM      5  C   UNL     1       3.331   4.029  19.233  0.00  0.00    +0.000 C 
ATOM      6  C   UNL     1       3.273   2.560  19.747  0.00  0.00    +0.000 C 
ATOM      7  N   UNL     1       1.879   2.110  20.016  0.00  0.00    +0.000 NA
ATOM      8  C   UNL     1       1.280   2.985  21.044  0.00  0.00    +0.000 C 
ATOM      9  C   UNL     1       1.320   4.468  20.632  0.00  0.00    +0.000 C 
ATOM     10  C   UNL     1       1.886   4.586  19.203  0.00  0.00    +0.000 C 
ATOM     11  C   UNL     1       0.990   3.703  18.314  0.00  0.00    +0.000 C 
ATOM     12  C   UNL     1       1.104   2.238  18.764  0.00  0.00    +0.000 C 
ENDBRANCH   3   5
BRANCH   1  19
ATOM     13  C   UNL     1       7.137   5.335  16.278  0.00  0.00    +0.000 A 
ATOM     14  C   UNL     1       7.651   5.450  14.974  0.00  0.00    +0.000 A 
ATOM     15  C   UNL     1       7.006   4.856  13.894  0.00  0.00    +0.000 A 
ATOM     16  C   UNL     1       5.833   4.141  14.102  0.00  0.00    +0.000 A 
ATOM     17 CL   UNL     1       5.028   3.425  12.761  0.00  0.00    +0.000 Cl
ATOM     18  C   UNL     1       5.321   3.992  15.389  0.00  0.00    +0.000 A 
ATOM     19  C   UNL     1       5.979   4.560  16.499  0.00  0.00    +0.000 A 
BRANCH  13  21
ATOM     20  C   UNL     1       7.500   7.322  17.519  0.00  0.00    +0.000 C 
ATOM     21  O   UNL     1       7.755   5.926  17.354  0.00  0.00    +0.000 OA
ENDBRANCH  13  21
ENDBRANCH   1  19
TORSDOF 3
ENDMDL
MODEL 2
REMARK VINA RESULT:      -7.3      1.032      1.077
REMARK  Name = 
REMARK  4 active torsions:
REMARK  status: ('A' for Active; 'I' for Inactive)
REMARK    1  A    between atoms: C_1  and  O_2
REMARK    2  A    between atoms: O_2  and  C_3
REMARK    3  A    between atoms: C_9  and  C_10
REMARK    4  A    between atoms: N_12  and  C_13
REMARK                            x       y       z     vdW  Elec       q    Type
REMARK                         _______ _______ _______ _____ _____    ______ ____
ROOT
ATOM      1  C   UNL     1       4.584   5.238  17.410  0.00  0.00    +0.000 C 
ATOM      2  O   UNL     1       4.094   6.339  17.635  0.00  0.00    +0.000 OA
ATOM      3  N   UNL     1       4.342   4.151  18.228  0.00  0.00    +0.000 N 
ATOM      4  H   UNL     1       4.668   3.246  17.904  0.00  0.00    +0.000 HD
ENDROOT
BRANCH   3   5
ATOM      5  C   UNL     1       3.407   4.219  19.346  0.00  0.00    +0.000 C 
ATOM      6  C   UNL     1       3.455   2.970  20.275  0.00  0.00    +0.000 C 
ATOM      7  N   UNL     1       2.124   2.314  20.409  0.00  0.00    +0.000 NA
ATOM      8  C   UNL     1       1.166   3.281  20.983  0.00  0.00    +0.000 C 
ATOM      9  C   UNL     1       1.074   4.567  20.142  0.00  0.00    +0.000 C 
ATOM     10  C   UNL     1       1.943   4.414  18.878  0.00  0.00    +0.000 C 
ATOM     11  C   UNL     1       1.437   3.149  18.161  0.00  0.00    +0.000 C 
ATOM     12  C   UNL     1       1.665   1.923  19.060  0.00  0.00    +0.000 C 
ENDBRANCH   3   5
BRANCH   1  19
ATOM     13  C   UNL     1       6.831   5.310  16.132  0.00  0.00    +0.000 A 
ATOM     14  C   UNL     1       7.547   4.983  14.967  0.00  0.00    +0.000 A 
ATOM     15  C   UNL     1       6.903   4.444  13.857  0.00  0.00    +0.000 A 
ATOM     16  C   UNL     1       5.531   4.227  13.896  0.00  0.00    +0.000 A 
ATOM     17 CL   UNL     1       4.736   3.578  12.516  0.00  0.00    +0.000 Cl
ATOM     18  C   UNL     1       4.807   4.517  15.052  0.00  0.00    +0.000 A 
ATOM     19  C   UNL     1       5.449   5.035  16.195  0.00  0.00    +0.000 A 
BRANCH  13  21
ATOM     20  C   UNL     1       7.870   4.921  18.227  0.00  0.00    +0.000 C 
ATOM     21  O   UNL     1       7.449   5.855  17.232  0.00  0.00    +0.000 OA
ENDBRANCH  13  21
ENDBRANCH   1  19
TORSDOF 3
ENDMDL
MODEL 3
REMARK VINA RESULT:      -7.1      1.323      1.695
REMARK  Name = 
REMARK  4 active torsions:
REMARK  status: ('A' for Active; 'I' for Inactive)
REMARK    1  A    between atoms: C_1  and  O_2
REMARK    2  A    between atoms: O_2  and  C_3
REMARK    3  A    between atoms: C_9  and  C_10
REMARK    4  A    between atoms: N_12  and  C_13
REMARK                            x       y       z     vdW  Elec       q    Type
REMARK                         _______ _______ _______ _____ _____    ______ ____
ROOT
ATOM      1  C   UNL     1       4.437   5.279  16.778  0.00  0.00    +0.000 C 
ATOM      2  O   UNL     1       4.208   6.439  17.103  0.00  0.00    +0.000 OA
ATOM      3  N   UNL     1       3.810   4.212  17.393  0.00  0.00    +0.000 N 
ATOM      4  H   UNL     1       3.946   3.295  16.980  0.00  0.00    +0.000 HD
ENDROOT
BRANCH   3   5
ATOM      5  C   UNL     1       2.762   4.403  18.391  0.00  0.00    +0.000 C 
ATOM      6  C   UNL     1       3.305   4.780  19.801  0.00  0.00    +0.000 C 
ATOM      7  N   UNL     1       2.848   3.832  20.855  0.00  0.00    +0.000 NA
ATOM      8  C   UNL     1       1.371   3.847  20.908  0.00  0.00    +0.000 C 
ATOM      9  C   UNL     1       0.743   3.513  19.542  0.00  0.00    +0.000 C 
ATOM     10  C   UNL     1       1.858   3.154  18.541  0.00  0.00    +0.000 C 
ATOM     11  C   UNL     1       2.648   1.996  19.178  0.00  0.00    +0.000 C 
ATOM     12  C   UNL     1       3.302   2.476  20.484  0.00  0.00    +0.000 C 
ENDBRANCH   3   5
BRANCH   1  19
ATOM     13  C   UNL     1       6.791   5.217  15.708  0.00  0.00    +0.000 A 
ATOM     14  C   UNL     1       7.595   4.811  14.629  0.00  0.00    +0.000 A 
ATOM     15  C   UNL     1       7.034   4.237  13.493  0.00  0.00    +0.000 A 
ATOM     16  C   UNL     1       5.657   4.064  13.417  0.00  0.00    +0.000 A 
ATOM     17 CL   UNL     1       4.967   3.371  12.003  0.00  0.00    +0.000 Cl
ATOM     18  C   UNL     1       4.844   4.434  14.486  0.00  0.00    +0.000 A 
ATOM     19  C   UNL     1       5.399   4.989  15.658  0.00  0.00    +0.000 A 
BRANCH  13  21
ATOM     20  C   UNL     1       7.669   4.898  17.886  0.00  0.00    +0.000 C 
ATOM     21  O   UNL     1       7.326   5.799  16.832  0.00  0.00    +0.000 OA
ENDBRANCH  13  21
ENDBRANCH   1  19
TORSDOF 3
ENDMDL
MODEL 4
REMARK VINA RESULT:      -6.7      1.303      1.689
REMARK  Name = 
REMARK  4 active torsions:
REMARK  status: ('A' for Active; 'I' for Inactive)
REMARK    1  A    between atoms: C_1  and  O_2
REMARK    2  A    between atoms: O_2  and  C_3
REMARK    3  A    between atoms: C_9  and  C_10
REMARK    4  A    between atoms: N_12  and  C_13
REMARK                            x       y       z     vdW  Elec       q    Type
REMARK                         _______ _______ _______ _____ _____    ______ ____
ROOT
ATOM      1  C   UNL     1       4.206   3.633  17.161  0.00  0.00    +0.000 C 
ATOM      2  O   UNL     1       3.041   3.583  16.781  0.00  0.00    +0.000 OA
ATOM      3  N   UNL     1       4.574   3.247  18.435  0.00  0.00    +0.000 N 
ATOM      4  H   UNL     1       5.569   3.185  18.631  0.00  0.00    +0.000 HD
ENDROOT
BRANCH   3   5
ATOM      5  C   UNL     1       3.620   2.657  19.369  0.00  0.00    +0.000 C 
ATOM      6  C   UNL     1       2.205   2.437  18.757  0.00  0.00    +0.000 C 
ATOM      7  N   UNL     1       1.138   3.117  19.542  0.00  0.00    +0.000 NA
ATOM      8  C   UNL     1       1.136   2.581  20.919  0.00  0.00    +0.000 C 
ATOM      9  C   UNL     1       2.511   2.729  21.596  0.00  0.00    +0.000 C 
ATOM     10  C   UNL     1       3.461   3.500  20.659  0.00  0.00    +0.000 C 
ATOM     11  C   UNL     1       2.761   4.834  20.343  0.00  0.00    +0.000 C 
ATOM     12  C   UNL     1       1.450   4.561  19.589  0.00  0.00    +0.000 C 
ENDBRANCH   3   5
BRANCH   1  19
ATOM     13  C   UNL     1       6.403   4.870  16.585  0.00  0.00    +0.000 A 
ATOM     14  C   UNL     1       7.393   5.152  15.627  0.00  0.00    +0.000 A 
ATOM     15  C   UNL     1       7.258   4.722  14.311  0.00  0.00    +0.000 A 
ATOM     16  C   UNL     1       6.129   4.007  13.932  0.00  0.00    +0.000 A 
ATOM     17 CL   UNL     1       5.958   3.494  12.299  0.00  0.00    +0.000 Cl
ATOM     18  C   UNL     1       5.149   3.693  14.872  0.00  0.00    +0.000 A 
ATOM     19  C   UNL     1       5.285   4.094  16.217  0.00  0.00    +0.000 A 
BRANCH  13  21
ATOM     20  C   UNL     1       7.379   6.415  18.096  0.00  0.00    +0.000 C 
ATOM     21  O   UNL     1       6.513   5.298  17.887  0.00  0.00    +0.000 OA
ENDBRANCH  13  21
ENDBRANCH   1  19
TORSDOF 3
ENDMDL
MODEL 5
REMARK VINA RESULT:      -6.5      1.039      1.561
REMARK  Name = 
REMARK  4 active torsions:
REMARK  status: ('A' for Active; 'I' for Inactive)
REMARK    1  A    between atoms: C_1  and  O_2
REMARK    2  A    between atoms: O_2  and  C_3
REMARK    3  A    between atoms: C_9  and  C_10
REMARK    4  A    between atoms: N_12  and  C_13
REMARK                            x       y       z     vdW  Elec       q    Type
REMARK                         _______ _______ _______ _____ _____    ______ ____
ROOT
ATOM      1  C   UNL     1       5.031   3.638  18.180  0.00  0.00    +0.000 C 
ATOM      2  O   UNL     1       5.694   3.444  19.193  0.00  0.00    +0.000 OA
ATOM      3  N   UNL     1       3.707   3.253  18.089  0.00  0.00    +0.000 N 
ATOM      4  H   UNL     1       3.188   3.569  17.276  0.00  0.00    +0.000 HD
ENDROOT
BRANCH   3   5
ATOM      5  C   UNL     1       2.987   2.690  19.227  0.00  0.00    +0.000 C 
ATOM      6  C   UNL     1       1.450   2.588  19.002  0.00  0.00    +0.000 C 
ATOM      7  N   UNL     1       0.675   3.305  20.053  0.00  0.00    +0.000 NA
ATOM      8  C   UNL     1       0.991   2.715  21.371  0.00  0.00    +0.000 C 
ATOM      9  C   UNL     1       2.501   2.746  21.667  0.00  0.00    +0.000 C 
ATOM     10  C   UNL     1       3.230   3.490  20.532  0.00  0.00    +0.000 C 
ATOM     11  C   UNL     1       2.572   4.879  20.438  0.00  0.00    +0.000 C 
ATOM     12  C   UNL     1       1.094   4.723  20.048  0.00  0.00    +0.000 C 
ENDBRANCH   3   5
BRANCH   1  19
ATOM     13  C   UNL     1       6.384   5.546  17.075  0.00  0.00    +0.000 A 
ATOM     14  C   UNL     1       6.994   6.052  15.914  0.00  0.00    +0.000 A 
ATOM     15  C   UNL     1       6.840   5.414  14.687  0.00  0.00    +0.000 A 
ATOM     16  C   UNL     1       6.068   4.262  14.602  0.00  0.00    +0.000 A 
ATOM     17 CL   UNL     1       5.864   3.488  13.080  0.00  0.00    +0.000 Cl
ATOM     18  C   UNL     1       5.476   3.728  15.746  0.00  0.00    +0.000 A 
ATOM     19  C   UNL     1       5.649   4.344  17.003  0.00  0.00    +0.000 A 
BRANCH  13  21
ATOM     20  C   UNL     1       7.849   6.264  18.795  0.00  0.00    +0.000 C 
ATOM     21  O   UNL     1       6.515   6.170  18.292  0.00  0.00    +0.000 OA
ENDBRANCH  13  21
ENDBRANCH   1  19
TORSDOF 3
ENDMDL
MODEL 6
REMARK VINA RESULT:      -6.4      3.734      6.915
REMARK  Name = 
REMARK  4 active torsions:
REMARK  status: ('A' for Active; 'I' for Inactive)
REMARK    1  A    between atoms: C_1  and  O_2
REMARK    2  A    between atoms: O_2  and  C_3
REMARK    3  A    between atoms: C_9  and  C_10
REMARK    4  A    between atoms: N_12  and  C_13
REMARK                            x       y       z     vdW  Elec       q    Type
REMARK                         _______ _______ _______ _____ _____    ______ ____
ROOT
ATOM      1  C   UNL     1       2.861   6.342  18.367  0.00  0.00    +0.000 C 
ATOM      2  O   UNL     1       2.281   5.703  17.495  0.00  0.00    +0.000 OA
ATOM      3  N   UNL     1       4.223   6.230  18.570  0.00  0.00    +0.000 N 
ATOM      4  H   UNL     1       4.651   6.889  19.213  0.00  0.00    +0.000 HD
ENDROOT
BRANCH   3   5
ATOM      5  C   UNL     1       5.071   5.430  17.692  0.00  0.00    +0.000 C 
ATOM      6  C   UNL     1       5.975   4.417  18.456  0.00  0.00    +0.000 C 
ATOM      7  N   UNL     1       7.419   4.601  18.145  0.00  0.00    +0.000 NA
ATOM      8  C   UNL     1       7.629   4.409  16.695  0.00  0.00    +0.000 C 
ATOM      9  C   UNL     1       6.749   5.353  15.856  0.00  0.00    +0.000 C 
ATOM     10  C   UNL     1       5.981   6.305  16.795  0.00  0.00    +0.000 C 
ATOM     11  C   UNL     1       7.048   7.018  17.647  0.00  0.00    +0.000 C 
ATOM     12  C   UNL     1       7.795   5.985  18.505  0.00  0.00    +0.000 C 
ENDBRANCH   3   5
BRANCH   1  19
ATOM     13  C   UNL     1       1.689   7.056  20.559  0.00  0.00    +0.000 A 
ATOM     14  C   UNL     1       1.058   8.077  21.292  0.00  0.00    +0.000 A 
ATOM     15  C   UNL     1       0.776   9.309  20.708  0.00  0.00    +0.000 A 
ATOM     16  C   UNL     1       1.118   9.536  19.381  0.00  0.00    +0.000 A 
ATOM     17 CL   UNL     1       0.750  11.052  18.658  0.00  0.00    +0.000 Cl
ATOM     18  C   UNL     1       1.768   8.547  18.645  0.00  0.00    +0.000 A 
ATOM     19  C   UNL     1       2.090   7.304  19.230  0.00  0.00    +0.000 A 
BRANCH  13  21
ATOM     20  C   UNL     1       1.172   4.744  20.629  0.00  0.00    +0.000 C 
ATOM     21  O   UNL     1       1.962   5.830  21.115  0.00  0.00    +0.000 OA
ENDBRANCH  13  21
ENDBRANCH   1  19
TORSDOF 3
ENDMDL
MODEL 7
REMARK VINA RESULT:      -6.4      5.041      6.832
REMARK  Name = 
REMARK  4 active torsions:
REMARK  status: ('A' for Active; 'I' for Inactive)
REMARK    1  A    between atoms: C_1  and  O_2
REMARK    2  A    between atoms: O_2  and  C_3
REMARK    3  A    between atoms: C_9  and  C_10
REMARK    4  A    between atoms: N_12  and  C_13
REMARK                            x       y       z     vdW  Elec       q    Type
REMARK                         _______ _______ _______ _____ _____    ______ ____
ROOT
ATOM      1  C   UNL     1       2.155   7.510  19.390  0.00  0.00    +0.000 C 
ATOM      2  O   UNL     1       2.938   7.680  18.462  0.00  0.00    +0.000 OA
ATOM      3  N   UNL     1       1.903   6.255  19.911  0.00  0.00    +0.000 N 
ATOM      4  H   UNL     1       1.353   6.210  20.763  0.00  0.00    +0.000 HD
ENDROOT
BRANCH   3   5
ATOM      5  C   UNL     1       2.632   5.072  19.463  0.00  0.00    +0.000 C 
ATOM      6  C   UNL     1       2.036   4.425  18.178  0.00  0.00    +0.000 C 
ATOM      7  N   UNL     1       1.684   2.992  18.377  0.00  0.00    +0.000 NA
ATOM      8  C   UNL     1       2.903   2.244  18.751  0.00  0.00    +0.000 C 
ATOM      9  C   UNL     1       3.579   2.835  20.002  0.00  0.00    +0.000 C 
ATOM     10  C   UNL     1       2.711   3.980  20.559  0.00  0.00    +0.000 C 
ATOM     11  C   UNL     1       1.318   3.376  20.815  0.00  0.00    +0.000 C 
ATOM     12  C   UNL     1       0.709   2.906  19.484  0.00  0.00    +0.000 C 
ENDBRANCH   3   5
BRANCH   1  19
ATOM     13  C   UNL     1       1.175   9.903  19.351  0.00  0.00    +0.000 A 
ATOM     14  C   UNL     1       0.435  10.895  20.017  0.00  0.00    +0.000 A 
ATOM     15  C   UNL     1       0.029  10.721  21.337  0.00  0.00    +0.000 A 
ATOM     16  C   UNL     1       0.362   9.553  22.011  0.00  0.00    +0.000 A 
ATOM     17 CL   UNL     1      -0.125   9.351  23.648  0.00  0.00    +0.000 Cl
ATOM     18  C   UNL     1       1.071   8.545  21.361  0.00  0.00    +0.000 A 
ATOM     19  C   UNL     1       1.463   8.692  20.014  0.00  0.00    +0.000 A 
BRANCH  13  21
ATOM     20  C   UNL     1       2.348  11.249  17.792  0.00  0.00    +0.000 C 
ATOM     21  O   UNL     1       1.595  10.063  18.052  0.00  0.00    +0.000 OA
ENDBRANCH  13  21
ENDBRANCH   1  19
TORSDOF 3
ENDMDL
MODEL 8
REMARK VINA RESULT:      -6.4      1.512      1.956
REMARK  Name = 
REMARK  4 active torsions:
REMARK  status: ('A' for Active; 'I' for Inactive)
REMARK    1  A    between atoms: C_1  and  O_2
REMARK    2  A    between atoms: O_2  and  C_3
REMARK    3  A    between atoms: C_9  and  C_10
REMARK    4  A    between atoms: N_12  and  C_13
REMARK                            x       y       z     vdW  Elec       q    Type
REMARK                         _______ _______ _______ _____ _____    ______ ____
ROOT
ATOM      1  C   UNL     1       3.716   4.305  17.057  0.00  0.00    +0.000 C 
ATOM      2  O   UNL     1       2.871   3.606  16.508  0.00  0.00    +0.000 OA
ATOM      3  N   UNL     1       3.540   4.790  18.339  0.00  0.00    +0.000 N 
ATOM      4  H   UNL     1       4.336   5.243  18.776  0.00  0.00    +0.000 HD
ENDROOT
BRANCH   3   5
ATOM      5  C   UNL     1       2.390   4.413  19.156  0.00  0.00    +0.000 C 
ATOM      6  C   UNL     1       2.570   4.735  20.669  0.00  0.00    +0.000 C 
ATOM      7  N   UNL     1       2.400   3.530  21.528  0.00  0.00    +0.000 NA
ATOM      8  C   UNL     1       1.041   2.983  21.328  0.00  0.00    +0.000 C 
ATOM      9  C   UNL     1       0.763   2.662  19.848  0.00  0.00    +0.000 C 
ATOM     10  C   UNL     1       2.040   2.910  19.022  0.00  0.00    +0.000 C 
ATOM     11  C   UNL     1       3.140   2.045  19.665  0.00  0.00    +0.000 C 
ATOM     12  C   UNL     1       3.392   2.519  21.105  0.00  0.00    +0.000 C 
ENDBRANCH   3   5
BRANCH   1  19
ATOM     13  C   UNL     1       6.072   5.361  16.900  0.00  0.00    +0.000 A 
ATOM     14  C   UNL     1       7.260   5.510  16.165  0.00  0.00    +0.000 A 
ATOM     15  C   UNL     1       7.377   4.993  14.879  0.00  0.00    +0.000 A 
ATOM     16  C   UNL     1       6.304   4.321  14.307  0.00  0.00    +0.000 A 
ATOM     17 CL   UNL     1       6.446   3.699  12.709  0.00  0.00    +0.000 Cl
ATOM     18  C   UNL     1       5.126   4.137  15.029  0.00  0.00    +0.000 A 
ATOM     19  C   UNL     1       5.002   4.628  16.345  0.00  0.00    +0.000 A 
BRANCH  13  21
ATOM     20  C   UNL     1       7.013   5.605  19.062  0.00  0.00    +0.000 C 
ATOM     21  O   UNL     1       5.934   5.877  18.166  0.00  0.00    +0.000 OA
ENDBRANCH  13  21
ENDBRANCH   1  19
TORSDOF 3
ENDMDL
MODEL 9
REMARK VINA RESULT:      -6.3      2.024      2.671
REMARK  Name = 
REMARK  4 active torsions:
REMARK  status: ('A' for Active; 'I' for Inactive)
REMARK    1  A    between atoms: C_1  and  O_2
REMARK    2  A    between atoms: O_2  and  C_3
REMARK    3  A    between atoms: C_9  and  C_10
REMARK    4  A    between atoms: N_12  and  C_13
REMARK                            x       y       z     vdW  Elec       q    Type
REMARK                         _______ _______ _______ _____ _____    ______ ____
ROOT
ATOM      1  C   UNL     1       5.426   5.135  15.342  0.00  0.00    +0.000 C 
ATOM      2  O   UNL     1       5.492   6.335  15.584  0.00  0.00    +0.000 OA
ATOM      3  N   UNL     1       4.945   4.230  16.269  0.00  0.00    +0.000 N 
ATOM      4  H   UNL     1       4.792   3.278  15.950  0.00  0.00    +0.000 HD
ENDROOT
BRANCH   3   5
ATOM      5  C   UNL     1       4.389   4.656  17.549  0.00  0.00    +0.000 C 
ATOM      6  C   UNL     1       4.997   3.908  18.772  0.00  0.00    +0.000 C 
ATOM      7  N   UNL     1       3.957   3.236  19.598  0.00  0.00    +0.000 NA
ATOM      8  C   UNL     1       3.010   4.253  20.101  0.00  0.00    +0.000 C 
ATOM      9  C   UNL     1       2.379   5.066  18.957  0.00  0.00    +0.000 C 
ATOM     10  C   UNL     1       2.850   4.497  17.604  0.00  0.00    +0.000 C 
ATOM     11  C   UNL     1       2.466   3.005  17.611  0.00  0.00    +0.000 C 
ATOM     12  C   UNL     1       3.226   2.284  18.735  0.00  0.00    +0.000 C 
ENDBRANCH   3   5
BRANCH   1  19
ATOM     13  C   UNL     1       7.134   4.752  13.438  0.00  0.00    +0.000 A 
ATOM     14  C   UNL     1       7.423   4.137  12.208  0.00  0.00    +0.000 A 
ATOM     15  C   UNL     1       6.443   3.444  11.504  0.00  0.00    +0.000 A 
ATOM     16  C   UNL     1       5.156   3.359  12.020  0.00  0.00    +0.000 A 
ATOM     17 CL   UNL     1       3.943   2.518  11.138  0.00  0.00    +0.000 Cl
ATOM     18  C   UNL     1       4.854   3.938  13.251  0.00  0.00    +0.000 A 
ATOM     19  C   UNL     1       5.843   4.617  13.992  0.00  0.00    +0.000 A 
BRANCH  13  21
ATOM     20  C   UNL     1       9.150   5.995  13.357  0.00  0.00    +0.000 C 
ATOM     21  O   UNL     1       8.086   5.452  14.139  0.00  0.00    +0.000 OA
ENDBRANCH  13  21
ENDBRANCH   1  19
TORSDOF 3
ENDMDL
