MODEL 1
REMARK VINA RESULT:      -8.7      0.000      0.000
REMARK  Name = 
REMARK  7 active torsions:
REMARK  status: ('A' for Active; 'I' for Inactive)
REMARK    1  A    between atoms: C_2  and  C_22
REMARK    2  A    between atoms: N_3  and  C_4
REMARK    3  A    between atoms: C_4  and  C_5
REMARK    4  A    between atoms: C_5  and  C_6
REMARK    5  A    between atoms: N_11  and  S_12
REMARK    6  A    between atoms: S_12  and  C_15
REMARK    7  A    between atoms: N_24  and  C_25
REMARK                            x       y       z     vdW  Elec       q    Type
REMARK                         _______ _______ _______ _____ _____    ______ ____
ROOT
ATOM      1  C   UNL     1       1.731   5.452  18.479  0.00  0.00    +0.000 C 
ENDROOT
BRANCH   1   2
ATOM      2  C   UNL     1       1.722   4.107  19.233  0.00  0.00    +0.000 C 
ATOM      3  C   UNL     1       1.263   4.394  20.680  0.00  0.00    +0.000 C 
ATOM      4  C   UNL     1       1.226   3.156  21.548  0.00  0.00    +0.000 C 
ATOM      5  C   UNL     1       2.601   2.514  21.542  0.00  0.00    +0.000 C 
ATOM      6  C   UNL     1       3.035   2.172  20.122  0.00  0.00    +0.000 C 
ATOM      7  N   UNL     1       3.070   3.391  19.228  0.00  0.00    +0.000 NA
BRANCH   7   8
ATOM      8  S   UNL     1       3.635   2.953  17.626  0.00  0.00    +0.000 S 
ATOM      9  O   UNL     1       4.198   1.623  17.717  0.00  0.00    +0.000 OA
ATOM     10  O   UNL     1       2.617   3.270  16.646  0.00  0.00    +0.000 OA
BRANCH   8  11
ATOM     11  C   UNL     1       4.956   4.102  17.299  0.00  0.00    +0.000 A 
ATOM     12  C   UNL     1       5.085   4.692  16.036  0.00  0.00    +0.000 A 
ATOM     13  C   UNL     1       6.076   5.655  15.829  0.00  0.00    +0.000 A 
ATOM     14  C   UNL     1       6.910   6.024  16.882  0.00  0.00    +0.000 A 
ATOM     15  F   UNL     1       7.858   6.949  16.678  0.00  0.00    +0.000 F 
ATOM     16  C   UNL     1       6.768   5.458  18.146  0.00  0.00    +0.000 A 
ATOM     17  C   UNL     1       5.783   4.493  18.360  0.00  0.00    +0.000 A 
ENDBRANCH   8  11
ENDBRANCH   7   8
ENDBRANCH   1   2
BRANCH   1  18
ATOM     18  C   UNL     1       2.751   6.447  19.027  0.00  0.00    +0.000 C 
BRANCH  18  21
ATOM     19  O   UNL     1       2.254   8.760  17.348  0.00  0.00    +0.000 OA
ATOM     20  C   UNL     1       1.932   8.726  18.525  0.00  0.00    +0.000 C 
ATOM     21  N   UNL     1       2.138   7.690  19.409  0.00  0.00    +0.000 N 
ATOM     22  H   UNL     1       1.839   7.839  20.371  0.00  0.00    +0.000 HD
BRANCH  20  23
ATOM     23  C   UNL     1       1.200   9.907  19.173  0.00  0.00    +0.000 C 
ATOM     24  O   UNL     1       1.001  10.897  18.478  0.00  0.00    +0.000 OA
ATOM     25  N   UNL     1       0.885   9.717  20.502  0.00  0.00    +0.000 N 
ATOM     26  H   UNL     1       1.258   8.874  20.942  0.00  0.00    +0.000 HD
BRANCH  25  27
ATOM     27  C   UNL     1       0.183  10.629  21.312  0.00  0.00    +0.000 A 
ATOM     28  C   UNL     1       0.269  12.012  21.145  0.00  0.00    +0.000 A 
ATOM     29  C   UNL     1      -0.427  12.882  21.980  0.00  0.00    +0.000 A 
ATOM     30  C   UNL     1      -1.230  12.377  23.000  0.00  0.00    +0.000 A 
ATOM     31  C   UNL     1      -1.347  10.998  23.169  0.00  0.00    +0.000 A 
ATOM     32  C   UNL     1      -0.650  10.135  22.325  0.00  0.00    +0.000 A 
ATOM     33  F   UNL     1      -0.768   8.812  22.507  0.00  0.00    +0.000 F 
ENDBRANCH  25  27
ENDBRANCH  20  23
ENDBRANCH  18  21
ENDBRANCH   1  18
TORSDOF 7
ENDMDL
MODEL 2
REMARK VINA RESULT:      -8.6      4.601      7.254
REMARK  Name = 
REMARK  7 active torsions:
REMARK  status: ('A' for Active; 'I' for Inactive)
REMARK    1  A    between atoms: C_2  and  C_22
REMARK    2  A    between atoms: N_3  and  C_4
REMARK    3  A    between atoms: C_4  and  C_5
REMARK    4  A    between atoms: C_5  and  C_6
REMARK    5  A    between atoms: N_11  and  S_12
REMARK    6  A    between atoms: S_12  and  C_15
REMARK    7  A    between atoms: N_24  and  C_25
REMARK                            x       y       z     vdW  Elec       q    Type
REMARK                         _______ _______ _______ _____ _____    ______ ____
ROOT
ATOM      1  C   UNL     1       6.532   5.523  19.131  0.00  0.00    +0.000 C 
ENDROOT
BRANCH   1   2
ATOM      2  C   UNL     1       6.030   4.610  17.994  0.00  0.00    +0.000 C 
ATOM      3  C   UNL     1       7.030   4.740  16.824  0.00  0.00    +0.000 C 
ATOM      4  C   UNL     1       6.649   3.906  15.621  0.00  0.00    +0.000 C 
ATOM      5  C   UNL     1       5.252   4.301  15.176  0.00  0.00    +0.000 C 
ATOM      6  C   UNL     1       4.249   4.117  16.308  0.00  0.00    +0.000 C 
ATOM      7  N   UNL     1       4.612   4.932  17.530  0.00  0.00    +0.000 NA
BRANCH   7   8
ATOM      8  S   UNL     1       3.394   4.732  18.776  0.00  0.00    +0.000 S 
ATOM      9  O   UNL     1       2.385   3.835  18.253  0.00  0.00    +0.000 OA
ATOM     10  O   UNL     1       4.035   4.477  20.048  0.00  0.00    +0.000 OA
BRANCH   8  11
ATOM     11  C   UNL     1       2.673   6.352  18.945  0.00  0.00    +0.000 A 
ATOM     12  C   UNL     1       2.102   6.750  20.160  0.00  0.00    +0.000 A 
ATOM     13  C   UNL     1       1.621   8.055  20.295  0.00  0.00    +0.000 A 
ATOM     14  C   UNL     1       1.728   8.943  19.228  0.00  0.00    +0.000 A 
ATOM     15  F   UNL     1       1.266  10.193  19.362  0.00  0.00    +0.000 F 
ATOM     16  C   UNL     1       2.318   8.559  18.027  0.00  0.00    +0.000 A 
ATOM     17  C   UNL     1       2.798   7.257  17.882  0.00  0.00    +0.000 A 
ENDBRANCH   8  11
ENDBRANCH   7   8
ENDBRANCH   1   2
BRANCH   1  18
ATOM     18  C   UNL     1       8.030   5.811  19.060  0.00  0.00    +0.000 C 
BRANCH  18  21
ATOM     19  O   UNL     1       7.742   7.678  16.859  0.00  0.00    +0.000 OA
ATOM     20  C   UNL     1       8.120   8.027  17.966  0.00  0.00    +0.000 C 
ATOM     21  N   UNL     1       8.307   7.221  19.068  0.00  0.00    +0.000 N 
ATOM     22  H   UNL     1       8.664   7.668  19.910  0.00  0.00    +0.000 HD
BRANCH  20  23
ATOM     23  C   UNL     1       8.426   9.499  18.263  0.00  0.00    +0.000 C 
ATOM     24  O   UNL     1       7.830  10.343  17.604  0.00  0.00    +0.000 OA
ATOM     25  N   UNL     1       9.388   9.693  19.232  0.00  0.00    +0.000 N 
ATOM     26  H   UNL     1       9.869   8.857  19.570  0.00  0.00    +0.000 HD
BRANCH  25  27
ATOM     27  C   UNL     1       9.822  10.943  19.713  0.00  0.00    +0.000 A 
ATOM     28  C   UNL     1      10.682  11.774  18.993  0.00  0.00    +0.000 A 
ATOM     29  C   UNL     1      11.103  12.996  19.512  0.00  0.00    +0.000 A 
ATOM     30  C   UNL     1      10.662  13.409  20.766  0.00  0.00    +0.000 A 
ATOM     31  C   UNL     1       9.785  12.603  21.492  0.00  0.00    +0.000 A 
ATOM     32  C   UNL     1       9.366  11.384  20.961  0.00  0.00    +0.000 A 
ATOM     33  F   UNL     1       8.529  10.618  21.677  0.00  0.00    +0.000 F 
ENDBRANCH  25  27
ENDBRANCH  20  23
ENDBRANCH  18  21
ENDBRANCH   1  18
TORSDOF 7
ENDMDL
MODEL 3
REMARK VINA RESULT:      -8.4      1.105      1.256
REMARK  Name = 
REMARK  7 active torsions:
REMARK  status: ('A' for Active; 'I' for Inactive)
REMARK    1  A    between atoms: C_2  and  C_22
REMARK    2  A    between atoms: N_3  and  C_4
REMARK    3  A    between atoms: C_4  and  C_5
REMARK    4  A    between atoms: C_5  and  C_6
REMARK    5  A    between atoms: N_11  and  S_12
REMARK    6  A    between atoms: S_12  and  C_15
REMARK    7  A    between atoms: N_24  and  C_25
REMARK                            x       y       z     vdW  Elec       q    Type
REMARK                         _______ _______ _______ _____ _____    ______ ____
ROOT
ATOM      1  C   UNL     1       3.258   6.360  19.368  0.00  0.00    +0.000 C 
ENDROOT
BRANCH   1   2
ATOM      2  C   UNL     1       2.529   5.002  19.337  0.00  0.00    +0.000 C 
ATOM      3  C   UNL     1       1.766   4.859  20.673  0.00  0.00    +0.000 C 
ATOM      4  C   UNL     1       1.013   3.552  20.790  0.00  0.00    +0.000 C 
ATOM      5  C   UNL     1       1.992   2.407  20.610  0.00  0.00    +0.000 C 
ATOM      6  C   UNL     1       2.705   2.508  19.267  0.00  0.00    +0.000 C 
ATOM      7  N   UNL     1       3.458   3.811  19.118  0.00  0.00    +0.000 NA
BRANCH   7   8
ATOM      8  S   UNL     1       4.310   3.848  17.584  0.00  0.00    +0.000 S 
ATOM      9  O   UNL     1       4.805   2.511  17.334  0.00  0.00    +0.000 OA
ATOM     10  O   UNL     1       3.512   4.547  16.600  0.00  0.00    +0.000 OA
BRANCH   8  11
ATOM     11  C   UNL     1       5.703   4.917  17.885  0.00  0.00    +0.000 A 
ATOM     12  C   UNL     1       6.029   5.928  16.974  0.00  0.00    +0.000 A 
ATOM     13  C   UNL     1       7.072   6.808  17.273  0.00  0.00    +0.000 A 
ATOM     14  C   UNL     1       7.762   6.677  18.475  0.00  0.00    +0.000 A 
ATOM     15  F   UNL     1       8.760   7.524  18.758  0.00  0.00    +0.000 F 
ATOM     16  C   UNL     1       7.424   5.688  19.396  0.00  0.00    +0.000 A 
ATOM     17  C   UNL     1       6.386   4.803  19.103  0.00  0.00    +0.000 A 
ENDBRANCH   8  11
ENDBRANCH   7   8
ENDBRANCH   1   2
BRANCH   1  18
ATOM     18  C   UNL     1       2.728   7.357  18.340  0.00  0.00    +0.000 C 
BRANCH  18  21
ATOM     19  O   UNL     1       2.139  10.052  17.444  0.00  0.00    +0.000 OA
ATOM     20  C   UNL     1       1.585   9.549  18.409  0.00  0.00    +0.000 C 
ATOM     21  N   UNL     1       1.805   8.291  18.924  0.00  0.00    +0.000 N 
ATOM     22  H   UNL     1       1.282   8.039  19.761  0.00  0.00    +0.000 HD
BRANCH  20  23
ATOM     23  C   UNL     1       0.504  10.315  19.181  0.00  0.00    +0.000 C 
ATOM     24  O   UNL     1      -0.593  10.431  18.648  0.00  0.00    +0.000 OA
ATOM     25  N   UNL     1       0.927  10.823  20.390  0.00  0.00    +0.000 N 
ATOM     26  H   UNL     1       1.923  10.737  20.598  0.00  0.00    +0.000 HD
BRANCH  25  27
ATOM     27  C   UNL     1       0.121  11.530  21.304  0.00  0.00    +0.000 A 
ATOM     28  C   UNL     1       0.084  12.924  21.359  0.00  0.00    +0.000 A 
ATOM     29  C   UNL     1      -0.712  13.586  22.290  0.00  0.00    +0.000 A 
ATOM     30  C   UNL     1      -1.493  12.857  23.183  0.00  0.00    +0.000 A 
ATOM     31  C   UNL     1      -1.486  11.463  23.130  0.00  0.00    +0.000 A 
ATOM     32  C   UNL     1      -0.690  10.810  22.190  0.00  0.00    +0.000 A 
ATOM     33  F   UNL     1      -0.690   9.469  22.159  0.00  0.00    +0.000 F 
ENDBRANCH  25  27
ENDBRANCH  20  23
ENDBRANCH  18  21
ENDBRANCH   1  18
TORSDOF 7
ENDMDL
MODEL 4
REMARK VINA RESULT:      -8.4      4.745      7.611
REMARK  Name = 
REMARK  7 active torsions:
REMARK  status: ('A' for Active; 'I' for Inactive)
REMARK    1  A    between atoms: C_2  and  C_22
REMARK    2  A    between atoms: N_3  and  C_4
REMARK    3  A    between atoms: C_4  and  C_5
REMARK    4  A    between atoms: C_5  and  C_6
REMARK    5  A    between atoms: N_11  and  S_12
REMARK    6  A    between atoms: S_12  and  C_15
REMARK    7  A    between atoms: N_24  and  C_25
REMARK                            x       y       z     vdW  Elec       q    Type
REMARK                         _______ _______ _______ _____ _____    ______ ____
ROOT
ATOM      1  C   UNL     1       6.602   5.911  18.844  0.00  0.00    +0.000 C 
ENDROOT
BRANCH   1   2
ATOM      2  C   UNL     1       6.139   4.903  17.772  0.00  0.00    +0.000 C 
ATOM      3  C   UNL     1       7.083   5.056  16.559  0.00  0.00    +0.000 C 
ATOM      4  C   UNL     1       6.732   4.134  15.413  0.00  0.00    +0.000 C 
ATOM      5  C   UNL     1       5.293   4.390  15.004  0.00  0.00    +0.000 C 
ATOM      6  C   UNL     1       4.348   4.182  16.182  0.00  0.00    +0.000 C 
ATOM      7  N   UNL     1       4.684   5.084  17.348  0.00  0.00    +0.000 NA
BRANCH   7   8
ATOM      8  S   UNL     1       3.531   4.850  18.649  0.00  0.00    +0.000 S 
ATOM      9  O   UNL     1       2.541   3.902  18.181  0.00  0.00    +0.000 OA
ATOM     10  O   UNL     1       4.237   4.641  19.895  0.00  0.00    +0.000 OA
BRANCH   8  11
ATOM     11  C   UNL     1       2.746   6.438  18.829  0.00  0.00    +0.000 A 
ATOM     12  C   UNL     1       2.139   6.796  20.038  0.00  0.00    +0.000 A 
ATOM     13  C   UNL     1       1.607   8.079  20.184  0.00  0.00    +0.000 A 
ATOM     14  C   UNL     1       1.699   8.988  19.132  0.00  0.00    +0.000 A 
ATOM     15  F   UNL     1       1.187  10.217  19.277  0.00  0.00    +0.000 F 
ATOM     16  C   UNL     1       2.324   8.644  17.937  0.00  0.00    +0.000 A 
ATOM     17  C   UNL     1       2.855   7.364  17.781  0.00  0.00    +0.000 A 
ENDBRANCH   8  11
ENDBRANCH   7   8
ENDBRANCH   1   2
BRANCH   1  18
ATOM     18  C   UNL     1       8.120   6.048  18.931  0.00  0.00    +0.000 C 
BRANCH  18  21
ATOM     19  O   UNL     1       7.728   8.256  17.091  0.00  0.00    +0.000 OA
ATOM     20  C   UNL     1       8.277   8.396  18.173  0.00  0.00    +0.000 C 
ATOM     21  N   UNL     1       8.527   7.415  19.106  0.00  0.00    +0.000 N 
ATOM     22  H   UNL     1       9.030   7.696  19.946  0.00  0.00    +0.000 HD
BRANCH  20  23
ATOM     23  C   UNL     1       8.756   9.777  18.637  0.00  0.00    +0.000 C 
ATOM     24  O   UNL     1       9.074   9.897  19.814  0.00  0.00    +0.000 OA
ATOM     25  N   UNL     1       8.729  10.744  17.654  0.00  0.00    +0.000 N 
ATOM     26  H   UNL     1       8.300  10.479  16.765  0.00  0.00    +0.000 HD
BRANCH  25  27
ATOM     27  C   UNL     1       9.151  12.078  17.811  0.00  0.00    +0.000 A 
ATOM     28  C   UNL     1       8.261  13.136  18.000  0.00  0.00    +0.000 A 
ATOM     29  C   UNL     1       8.718  14.445  18.132  0.00  0.00    +0.000 A 
ATOM     30  C   UNL     1      10.083  14.715  18.083  0.00  0.00    +0.000 A 
ATOM     31  C   UNL     1      10.990  13.669  17.917  0.00  0.00    +0.000 A 
ATOM     32  C   UNL     1      10.523  12.362  17.790  0.00  0.00    +0.000 A 
ATOM     33  F   UNL     1      11.409  11.369  17.624  0.00  0.00    +0.000 F 
ENDBRANCH  25  27
ENDBRANCH  20  23
ENDBRANCH  18  21
ENDBRANCH   1  18
TORSDOF 7
ENDMDL
MODEL 5
REMARK VINA RESULT:      -8.3      5.867      8.232
REMARK  Name = 
REMARK  7 active torsions:
REMARK  status: ('A' for Active; 'I' for Inactive)
REMARK    1  A    between atoms: C_2  and  C_22
REMARK    2  A    between atoms: N_3  and  C_4
REMARK    3  A    between atoms: C_4  and  C_5
REMARK    4  A    between atoms: C_5  and  C_6
REMARK    5  A    between atoms: N_11  and  S_12
REMARK    6  A    between atoms: S_12  and  C_15
REMARK    7  A    between atoms: N_24  and  C_25
REMARK                            x       y       z     vdW  Elec       q    Type
REMARK                         _______ _______ _______ _____ _____    ______ ____
ROOT
ATOM      1  C   UNL     1       6.688   7.423  17.446  0.00  0.00    +0.000 C 
ENDROOT
BRANCH   1   2
ATOM      2  C   UNL     1       6.704   5.988  16.880  0.00  0.00    +0.000 C 
ATOM      3  C   UNL     1       7.013   6.093  15.370  0.00  0.00    +0.000 C 
ATOM      4  C   UNL     1       7.041   4.750  14.675  0.00  0.00    +0.000 C 
ATOM      5  C   UNL     1       5.710   4.056  14.900  0.00  0.00    +0.000 C 
ATOM      6  C   UNL     1       5.426   3.895  16.389  0.00  0.00    +0.000 C 
ATOM      7  N   UNL     1       5.403   5.223  17.112  0.00  0.00    +0.000 NA
BRANCH   7   8
ATOM      8  S   UNL     1       5.011   4.986  18.805  0.00  0.00    +0.000 S 
ATOM      9  O   UNL     1       6.043   4.143  19.371  0.00  0.00    +0.000 OA
ATOM     10  O   UNL     1       4.667   6.256  19.409  0.00  0.00    +0.000 OA
BRANCH   8  11
ATOM     11  C   UNL     1       3.486   4.066  18.775  0.00  0.00    +0.000 A 
ATOM     12  C   UNL     1       2.362   4.581  18.119  0.00  0.00    +0.000 A 
ATOM     13  C   UNL     1       1.204   3.804  18.034  0.00  0.00    +0.000 A 
ATOM     14  C   UNL     1       1.188   2.527  18.590  0.00  0.00    +0.000 A 
ATOM     15  F   UNL     1       0.075   1.786  18.506  0.00  0.00    +0.000 F 
ATOM     16  C   UNL     1       2.312   2.002  19.222  0.00  0.00    +0.000 A 
ATOM     17  C   UNL     1       3.472   2.772  19.314  0.00  0.00    +0.000 A 
ENDBRANCH   8  11
ENDBRANCH   7   8
ENDBRANCH   1   2
BRANCH   1  18
ATOM     18  C   UNL     1       8.075   7.945  17.814  0.00  0.00    +0.000 C 
BRANCH  18  21
ATOM     19  O   UNL     1       9.380   9.864  19.554  0.00  0.00    +0.000 OA
ATOM     20  C   UNL     1       8.841  10.191  18.509  0.00  0.00    +0.000 C 
ATOM     21  N   UNL     1       8.182   9.366  17.625  0.00  0.00    +0.000 N 
ATOM     22  H   UNL     1       7.755   9.808  16.813  0.00  0.00    +0.000 HD
BRANCH  20  23
ATOM     23  C   UNL     1       8.865  11.650  18.036  0.00  0.00    +0.000 C 
ATOM     24  O   UNL     1       7.954  12.020  17.305  0.00  0.00    +0.000 OA
ATOM     25  N   UNL     1       9.958  12.367  18.473  0.00  0.00    +0.000 N 
ATOM     26  H   UNL     1      10.682  11.840  18.965  0.00  0.00    +0.000 HD
BRANCH  25  27
ATOM     27  C   UNL     1      10.196  13.730  18.211  0.00  0.00    +0.000 A 
ATOM     28  C   UNL     1       9.715  14.754  19.028  0.00  0.00    +0.000 A 
ATOM     29  C   UNL     1       9.958  16.091  18.723  0.00  0.00    +0.000 A 
ATOM     30  C   UNL     1      10.695  16.425  17.590  0.00  0.00    +0.000 A 
ATOM     31  C   UNL     1      11.203  15.416  16.772  0.00  0.00    +0.000 A 
ATOM     32  C   UNL     1      10.959  14.081  17.089  0.00  0.00    +0.000 A 
ATOM     33  F   UNL     1      11.449  13.123  16.287  0.00  0.00    +0.000 F 
ENDBRANCH  25  27
ENDBRANCH  20  23
ENDBRANCH  18  21
ENDBRANCH   1  18
TORSDOF 7
ENDMDL
MODEL 6
REMARK VINA RESULT:      -8.3      1.341      1.408
REMARK  Name = 
REMARK  7 active torsions:
REMARK  status: ('A' for Active; 'I' for Inactive)
REMARK    1  A    between atoms: C_2  and  C_22
REMARK    2  A    between atoms: N_3  and  C_4
REMARK    3  A    between atoms: C_4  and  C_5
REMARK    4  A    between atoms: C_5  and  C_6
REMARK    5  A    between atoms: N_11  and  S_12
REMARK    6  A    between atoms: S_12  and  C_15
REMARK    7  A    between atoms: N_24  and  C_25
REMARK                            x       y       z     vdW  Elec       q    Type
REMARK                         _______ _______ _______ _____ _____    ______ ____
ROOT
ATOM      1  C   UNL     1       1.840   5.702  18.474  0.00  0.00    +0.000 C 
ENDROOT
BRANCH   1   2
ATOM      2  C   UNL     1       1.824   4.316  19.151  0.00  0.00    +0.000 C 
ATOM      3  C   UNL     1       1.280   4.511  20.584  0.00  0.00    +0.000 C 
ATOM      4  C   UNL     1       1.227   3.225  21.379  0.00  0.00    +0.000 C 
ATOM      5  C   UNL     1       2.617   2.615  21.413  0.00  0.00    +0.000 C 
ATOM      6  C   UNL     1       3.135   2.364  20.003  0.00  0.00    +0.000 C 
ATOM      7  N   UNL     1       3.188   3.632  19.180  0.00  0.00    +0.000 NA
BRANCH   7   8
ATOM      8  S   UNL     1       3.849   3.298  17.590  0.00  0.00    +0.000 S 
ATOM      9  O   UNL     1       4.484   1.999  17.653  0.00  0.00    +0.000 OA
ATOM     10  O   UNL     1       2.861   3.600  16.578  0.00  0.00    +0.000 OA
BRANCH   8  11
ATOM     11  C   UNL     1       5.115   4.532  17.376  0.00  0.00    +0.000 A 
ATOM     12  C   UNL     1       4.989   5.510  16.382  0.00  0.00    +0.000 A 
ATOM     13  C   UNL     1       5.951   6.519  16.289  0.00  0.00    +0.000 A 
ATOM     14  C   UNL     1       7.012   6.546  17.192  0.00  0.00    +0.000 A 
ATOM     15  F   UNL     1       7.931   7.516  17.099  0.00  0.00    +0.000 F 
ATOM     16  C   UNL     1       7.127   5.590  18.197  0.00  0.00    +0.000 A 
ATOM     17  C   UNL     1       6.172   4.577  18.295  0.00  0.00    +0.000 A 
ENDBRANCH   8  11
ENDBRANCH   7   8
ENDBRANCH   1   2
BRANCH   1  18
ATOM     18  C   UNL     1       2.736   6.713  19.185  0.00  0.00    +0.000 C 
BRANCH  18  21
ATOM     19  O   UNL     1       2.455   8.817  17.207  0.00  0.00    +0.000 OA
ATOM     20  C   UNL     1       1.994   8.913  18.333  0.00  0.00    +0.000 C 
ATOM     21  N   UNL     1       2.087   7.986  19.346  0.00  0.00    +0.000 N 
ATOM     22  H   UNL     1       1.675   8.240  20.242  0.00  0.00    +0.000 HD
BRANCH  20  23
ATOM     23  C   UNL     1       1.194  10.154  18.750  0.00  0.00    +0.000 C 
ATOM     24  O   UNL     1       1.748  11.242  18.647  0.00  0.00    +0.000 OA
ATOM     25  N   UNL     1      -0.065   9.876  19.237  0.00  0.00    +0.000 N 
ATOM     26  H   UNL     1      -0.295   8.890  19.372  0.00  0.00    +0.000 HD
BRANCH  25  27
ATOM     27  C   UNL     1      -1.009  10.836  19.650  0.00  0.00    +0.000 A 
ATOM     28  C   UNL     1      -2.071  11.250  18.845  0.00  0.00    +0.000 A 
ATOM     29  C   UNL     1      -2.973  12.216  19.283  0.00  0.00    +0.000 A 
ATOM     30  C   UNL     1      -2.827  12.783  20.547  0.00  0.00    +0.000 A 
ATOM     31  C   UNL     1      -1.785  12.367  21.376  0.00  0.00    +0.000 A 
ATOM     32  C   UNL     1      -0.891  11.396  20.929  0.00  0.00    +0.000 A 
ATOM     33  F   UNL     1       0.110  11.014  21.737  0.00  0.00    +0.000 F 
ENDBRANCH  25  27
ENDBRANCH  20  23
ENDBRANCH  18  21
ENDBRANCH   1  18
TORSDOF 7
ENDMDL
MODEL 7
REMARK VINA RESULT:      -8.3      1.356      1.863
REMARK  Name = 
REMARK  7 active torsions:
REMARK  status: ('A' for Active; 'I' for Inactive)
REMARK    1  A    between atoms: C_2  and  C_22
REMARK    2  A    between atoms: N_3  and  C_4
REMARK    3  A    between atoms: C_4  and  C_5
REMARK    4  A    between atoms: C_5  and  C_6
REMARK    5  A    between atoms: N_11  and  S_12
REMARK    6  A    between atoms: S_12  and  C_15
REMARK    7  A    between atoms: N_24  and  C_25
REMARK                            x       y       z     vdW  Elec       q    Type
REMARK                         _______ _______ _______ _____ _____    ______ ____
ROOT
ATOM      1  C   UNL     1       1.868   5.789  18.299  0.00  0.00    +0.000 C 
ENDROOT
BRANCH   1   2
ATOM      2  C   UNL     1       1.975   4.404  18.968  0.00  0.00    +0.000 C 
ATOM      3  C   UNL     1       1.125   4.449  20.257  0.00  0.00    +0.000 C 
ATOM      4  C   UNL     1       1.154   3.152  21.034  0.00  0.00    +0.000 C 
ATOM      5  C   UNL     1       2.596   2.809  21.358  0.00  0.00    +0.000 C 
ATOM      6  C   UNL     1       3.428   2.703  20.087  0.00  0.00    +0.000 C 
ATOM      7  N   UNL     1       3.409   3.984  19.283  0.00  0.00    +0.000 NA
BRANCH   7   8
ATOM      8  S   UNL     1       4.431   3.828  17.866  0.00  0.00    +0.000 S 
ATOM      9  O   UNL     1       5.073   2.533  17.939  0.00  0.00    +0.000 OA
ATOM     10  O   UNL     1       3.695   4.234  16.688  0.00  0.00    +0.000 OA
BRANCH   8  11
ATOM     11  C   UNL     1       5.673   5.085  18.084  0.00  0.00    +0.000 A 
ATOM     12  C   UNL     1       6.663   4.941  19.064  0.00  0.00    +0.000 A 
ATOM     13  C   UNL     1       7.677   5.896  19.159  0.00  0.00    +0.000 A 
ATOM     14  C   UNL     1       7.698   6.970  18.271  0.00  0.00    +0.000 A 
ATOM     15  F   UNL     1       8.673   7.883  18.366  0.00  0.00    +0.000 F 
ATOM     16  C   UNL     1       6.731   7.104  17.279  0.00  0.00    +0.000 A 
ATOM     17  C   UNL     1       5.712   6.155  17.180  0.00  0.00    +0.000 A 
ENDBRANCH   8  11
ENDBRANCH   7   8
ENDBRANCH   1   2
BRANCH   1  18
ATOM     18  C   UNL     1       2.647   6.878  19.032  0.00  0.00    +0.000 C 
BRANCH  18  21
ATOM     19  O   UNL     1       2.068   9.318  17.573  0.00  0.00    +0.000 OA
ATOM     20  C   UNL     1       1.575   9.076  18.664  0.00  0.00    +0.000 C 
ATOM     21  N   UNL     1       1.797   7.963  19.442  0.00  0.00    +0.000 N 
ATOM     22  H   UNL     1       1.332   7.934  20.348  0.00  0.00    +0.000 HD
BRANCH  20  23
ATOM     23  C   UNL     1       0.577  10.047  19.306  0.00  0.00    +0.000 C 
ATOM     24  O   UNL     1      -0.383  10.398  18.630  0.00  0.00    +0.000 OA
ATOM     25  N   UNL     1       0.916  10.444  20.582  0.00  0.00    +0.000 N 
ATOM     26  H   UNL     1       1.832  10.146  20.924  0.00  0.00    +0.000 HD
BRANCH  25  27
ATOM     27  C   UNL     1       0.152  11.297  21.400  0.00  0.00    +0.000 A 
ATOM     28  C   UNL     1      -0.790  10.826  22.315  0.00  0.00    +0.000 A 
ATOM     29  C   UNL     1      -1.539  11.704  23.094  0.00  0.00    +0.000 A 
ATOM     30  C   UNL     1      -1.352  13.078  22.971  0.00  0.00    +0.000 A 
ATOM     31  C   UNL     1      -0.400  13.569  22.077  0.00  0.00    +0.000 A 
ATOM     32  C   UNL     1       0.349  12.681  21.306  0.00  0.00    +0.000 A 
ATOM     33  F   UNL     1       1.254  13.171  20.447  0.00  0.00    +0.000 F 
ENDBRANCH  25  27
ENDBRANCH  20  23
ENDBRANCH  18  21
ENDBRANCH   1  18
TORSDOF 7
ENDMDL
MODEL 8
REMARK VINA RESULT:      -8.3      1.555      1.786
REMARK  Name = 
REMARK  7 active torsions:
REMARK  status: ('A' for Active; 'I' for Inactive)
REMARK    1  A    between atoms: C_2  and  C_22
REMARK    2  A    between atoms: N_3  and  C_4
REMARK    3  A    between atoms: C_4  and  C_5
REMARK    4  A    between atoms: C_5  and  C_6
REMARK    5  A    between atoms: N_11  and  S_12
REMARK    6  A    between atoms: S_12  and  C_15
REMARK    7  A    between atoms: N_24  and  C_25
REMARK                            x       y       z     vdW  Elec       q    Type
REMARK                         _______ _______ _______ _____ _____    ______ ____
ROOT
ATOM      1  C   UNL     1       3.044   6.433  19.486  0.00  0.00    +0.000 C 
ENDROOT
BRANCH   1   2
ATOM      2  C   UNL     1       2.484   4.997  19.511  0.00  0.00    +0.000 C 
ATOM      3  C   UNL     1       1.833   4.781  20.895  0.00  0.00    +0.000 C 
ATOM      4  C   UNL     1       1.253   3.395  21.069  0.00  0.00    +0.000 C 
ATOM      5  C   UNL     1       2.349   2.373  20.829  0.00  0.00    +0.000 C 
ATOM      6  C   UNL     1       2.955   2.542  19.441  0.00  0.00    +0.000 C 
ATOM      7  N   UNL     1       3.533   3.924  19.235  0.00  0.00    +0.000 NA
BRANCH   7   8
ATOM      8  S   UNL     1       4.271   4.043  17.648  0.00  0.00    +0.000 S 
ATOM      9  O   UNL     1       4.769   2.728  17.305  0.00  0.00    +0.000 OA
ATOM     10  O   UNL     1       3.392   4.767  16.755  0.00  0.00    +0.000 OA
BRANCH   8  11
ATOM     11  C   UNL     1       5.664   5.125  17.895  0.00  0.00    +0.000 A 
ATOM     12  C   UNL     1       5.880   6.209  17.035  0.00  0.00    +0.000 A 
ATOM     13  C   UNL     1       6.928   7.094  17.299  0.00  0.00    +0.000 A 
ATOM     14  C   UNL     1       7.733   6.895  18.418  0.00  0.00    +0.000 A 
ATOM     15  F   UNL     1       8.736   7.747  18.667  0.00  0.00    +0.000 F 
ATOM     16  C   UNL     1       7.506   5.834  19.289  0.00  0.00    +0.000 A 
ATOM     17  C   UNL     1       6.463   4.943  19.031  0.00  0.00    +0.000 A 
ENDBRANCH   8  11
ENDBRANCH   7   8
ENDBRANCH   1   2
BRANCH   1  18
ATOM     18  C   UNL     1       2.339   7.343  18.483  0.00  0.00    +0.000 C 
BRANCH  18  21
ATOM     19  O   UNL     1       2.086   9.992  17.328  0.00  0.00    +0.000 OA
ATOM     20  C   UNL     1       1.717   9.737  18.464  0.00  0.00    +0.000 C 
ATOM     21  N   UNL     1       1.808   8.523  19.109  0.00  0.00    +0.000 N 
ATOM     22  H   UNL     1       1.484   8.490  20.074  0.00  0.00    +0.000 HD
BRANCH  20  23
ATOM     23  C   UNL     1       1.052  10.810  19.334  0.00  0.00    +0.000 C 
ATOM     24  O   UNL     1       1.579  11.917  19.363  0.00  0.00    +0.000 OA
ATOM     25  N   UNL     1      -0.060  10.372  20.021  0.00  0.00    +0.000 N 
ATOM     26  H   UNL     1      -0.262   9.372  19.970  0.00  0.00    +0.000 HD
BRANCH  25  27
ATOM     27  C   UNL     1      -0.868  11.168  20.855  0.00  0.00    +0.000 A 
ATOM     28  C   UNL     1      -0.727  11.195  22.243  0.00  0.00    +0.000 A 
ATOM     29  C   UNL     1      -1.560  11.982  23.035  0.00  0.00    +0.000 A 
ATOM     30  C   UNL     1      -2.550  12.762  22.444  0.00  0.00    +0.000 A 
ATOM     31  C   UNL     1      -2.693  12.765  21.057  0.00  0.00    +0.000 A 
ATOM     32  C   UNL     1      -1.851  11.979  20.273  0.00  0.00    +0.000 A 
ATOM     33  F   UNL     1      -2.008  11.988  18.941  0.00  0.00    +0.000 F 
ENDBRANCH  25  27
ENDBRANCH  20  23
ENDBRANCH  18  21
ENDBRANCH   1  18
TORSDOF 7
ENDMDL
MODEL 9
REMARK VINA RESULT:      -8.2      1.555      1.909
REMARK  Name = 
REMARK  7 active torsions:
REMARK  status: ('A' for Active; 'I' for Inactive)
REMARK    1  A    between atoms: C_2  and  C_22
REMARK    2  A    between atoms: N_3  and  C_4
REMARK    3  A    between atoms: C_4  and  C_5
REMARK    4  A    between atoms: C_5  and  C_6
REMARK    5  A    between atoms: N_11  and  S_12
REMARK    6  A    between atoms: S_12  and  C_15
REMARK    7  A    between atoms: N_24  and  C_25
REMARK                            x       y       z     vdW  Elec       q    Type
REMARK                         _______ _______ _______ _____ _____    ______ ____
ROOT
ATOM      1  C   UNL     1       3.103   6.564  19.184  0.00  0.00    +0.000 C 
ENDROOT
BRANCH   1   2
ATOM      2  C   UNL     1       2.468   5.160  19.224  0.00  0.00    +0.000 C 
ATOM      3  C   UNL     1       1.687   5.047  20.553  0.00  0.00    +0.000 C 
ATOM      4  C   UNL     1       1.022   3.701  20.738  0.00  0.00    +0.000 C 
ATOM      5  C   UNL     1       2.080   2.617  20.647  0.00  0.00    +0.000 C 
ATOM      6  C   UNL     1       2.814   2.684  19.314  0.00  0.00    +0.000 C 
ATOM      7  N   UNL     1       3.480   4.024  19.097  0.00  0.00    +0.000 NA
BRANCH   7   8
ATOM      8  S   UNL     1       4.361   4.026  17.580  0.00  0.00    +0.000 S 
ATOM      9  O   UNL     1       4.846   2.680  17.363  0.00  0.00    +0.000 OA
ATOM     10  O   UNL     1       3.589   4.716  16.568  0.00  0.00    +0.000 OA
BRANCH   8  11
ATOM     11  C   UNL     1       5.759   5.085  17.888  0.00  0.00    +0.000 A 
ATOM     12  C   UNL     1       6.057   6.137  17.014  0.00  0.00    +0.000 A 
ATOM     13  C   UNL     1       7.106   7.007  17.322  0.00  0.00    +0.000 A 
ATOM     14  C   UNL     1       7.830   6.825  18.498  0.00  0.00    +0.000 A 
ATOM     15  F   UNL     1       8.833   7.663  18.790  0.00  0.00    +0.000 F 
ATOM     16  C   UNL     1       7.520   5.796  19.383  0.00  0.00    +0.000 A 
ATOM     17  C   UNL     1       6.477   4.920  19.081  0.00  0.00    +0.000 A 
ENDBRANCH   8  11
ENDBRANCH   7   8
ENDBRANCH   1   2
BRANCH   1  18
ATOM     18  C   UNL     1       2.440   7.500  18.176  0.00  0.00    +0.000 C 
BRANCH  18  21
ATOM     19  O   UNL     1       2.102  10.306  17.522  0.00  0.00    +0.000 OA
ATOM     20  C   UNL     1       1.471   9.763  18.415  0.00  0.00    +0.000 C 
ATOM     21  N   UNL     1       1.570   8.449  18.816  0.00  0.00    +0.000 N 
ATOM     22  H   UNL     1       0.995   8.165  19.606  0.00  0.00    +0.000 HD
BRANCH  20  23
ATOM     23  C   UNL     1       0.423  10.540  19.220  0.00  0.00    +0.000 C 
ATOM     24  O   UNL     1      -0.679  10.697  18.707  0.00  0.00    +0.000 OA
ATOM     25  N   UNL     1       0.877  11.010  20.434  0.00  0.00    +0.000 N 
ATOM     26  H   UNL     1       1.873  10.892  20.625  0.00  0.00    +0.000 HD
BRANCH  25  27
ATOM     27  C   UNL     1       0.104  11.718  21.375  0.00  0.00    +0.000 A 
ATOM     28  C   UNL     1      -0.795  11.093  22.240  0.00  0.00    +0.000 A 
ATOM     29  C   UNL     1      -1.555  11.831  23.144  0.00  0.00    +0.000 A 
ATOM     30  C   UNL     1      -1.421  13.216  23.199  0.00  0.00    +0.000 A 
ATOM     31  C   UNL     1      -0.512  13.857  22.358  0.00  0.00    +0.000 A 
ATOM     32  C   UNL     1       0.248  13.109  21.460  0.00  0.00    +0.000 A 
ATOM     33  F   UNL     1       1.111  13.743  20.653  0.00  0.00    +0.000 F 
ENDBRANCH  25  27
ENDBRANCH  20  23
ENDBRANCH  18  21
ENDBRANCH   1  18
TORSDOF 7
ENDMDL
