MODEL 1
REMARK VINA RESULT:      -7.2      0.000      0.000
REMARK  Name = 
REMARK  7 active torsions:
REMARK  status: ('A' for Active; 'I' for Inactive)
REMARK    1  A    between atoms: C_1  and  O_2
REMARK    2  A    between atoms: O_2  and  C_3
REMARK    3  A    between atoms: C_8  and  N_9
REMARK    4  A    between atoms: C_15  and  C_16
REMARK    5  A    between atoms: N_18  and  C_19
REMARK    6  A    between atoms: C_19  and  C_20
REMARK    7  A    between atoms: C_20  and  N_21
REMARK                            x       y       z     vdW  Elec       q    Type
REMARK                         _______ _______ _______ _____ _____    ______ ____
ROOT
ATOM      1  N   UNL     1       0.274  12.394  19.613  0.00  0.00    +0.000 N 
ATOM      2  C   UNL     1       1.439  12.084  18.909  0.00  0.00    +0.000 A 
ATOM      3  O   UNL     1       2.576  12.387  19.270  0.00  0.00    +0.000 OA
ATOM      4  N   UNL     1       1.216  11.100  17.939  0.00  0.00    +0.000 N 
ATOM      5  C   UNL     1       0.971   9.880  18.605  0.00  0.00    +0.000 A 
ATOM      6  C   UNL     1       1.773   8.807  18.255  0.00  0.00    +0.000 A 
ATOM      7  C   UNL     1       2.141   7.881  19.235  0.00  0.00    +0.000 A 
ATOM      8  C   UNL     1       1.608   8.013  20.533  0.00  0.00    +0.000 A 
ATOM      9  C   UNL     1       0.670   9.037  20.833  0.00  0.00    +0.000 A 
ATOM     10  C   UNL     1       0.345   9.974  19.853  0.00  0.00    +0.000 A 
ATOM     11  C   UNL     1      -0.403  11.266  20.098  0.00  0.00    +0.000 A 
ATOM     12  O   UNL     1      -1.517  11.161  20.593  0.00  0.00    +0.000 OA
ATOM     13  H   UNL     1       0.413  11.367  17.379  0.00  0.00    +0.000 HD
ENDROOT
BRANCH   1  19
ATOM     14  C   UNL     1       0.023  14.446  21.142  0.00  0.00    +0.000 A 
ATOM     15  C   UNL     1      -0.114  15.855  21.212  0.00  0.00    +0.000 A 
ATOM     16  C   UNL     1      -0.297  16.638  20.074  0.00  0.00    +0.000 A 
ATOM     17  C   UNL     1      -0.363  16.023  18.845  0.00  0.00    +0.000 A 
ATOM     18  C   UNL     1      -0.218  14.639  18.757  0.00  0.00    +0.000 A 
ATOM     19  C   UNL     1       0.038  13.806  19.878  0.00  0.00    +0.000 A 
BRANCH  14  21
ATOM     20  C   UNL     1      -0.975  13.618  23.125  0.00  0.00    +0.000 C 
ATOM     21  O   UNL     1       0.180  13.724  22.292  0.00  0.00    +0.000 OA
ENDBRANCH  14  21
ENDBRANCH   1  19
BRANCH   7  22
ATOM     22  C   UNL     1       3.210   6.927  18.808  0.00  0.00    +0.000 C 
ATOM     23  O   UNL     1       3.599   6.948  17.639  0.00  0.00    +0.000 OA
ATOM     24  N   UNL     1       3.664   5.982  19.697  0.00  0.00    +0.000 N 
ATOM     25  H   UNL     1       3.333   5.963  20.650  0.00  0.00    +0.000 HD
BRANCH  24  26
ATOM     26  C   UNL     1       4.375   4.815  19.185  0.00  0.00    +0.000 C 
BRANCH  26  27
ATOM     27  C   UNL     1       3.894   3.440  19.710  0.00  0.00    +0.000 C 
BRANCH  27  28
ATOM     28  N   UNL     1       3.170   2.594  18.736  0.00  0.00    +0.000 NA
ATOM     29  C   UNL     1       2.695   3.397  17.591  0.00  0.00    +0.000 C 
ATOM     30  C   UNL     1       1.273   3.801  17.930  0.00  0.00    +0.000 C 
ATOM     31  C   UNL     1       0.744   2.612  18.698  0.00  0.00    +0.000 C 
ATOM     32  C   UNL     1       1.977   1.941  19.294  0.00  0.00    +0.000 C 
ENDBRANCH  27  28
ENDBRANCH  26  27
ENDBRANCH  24  26
ENDBRANCH   7  22
TORSDOF 6
ENDMDL
MODEL 2
REMARK VINA RESULT:      -7.1      2.144      3.273
REMARK  Name = 
REMARK  7 active torsions:
REMARK  status: ('A' for Active; 'I' for Inactive)
REMARK    1  A    between atoms: C_1  and  O_2
REMARK    2  A    between atoms: O_2  and  C_3
REMARK    3  A    between atoms: C_8  and  N_9
REMARK    4  A    between atoms: C_15  and  C_16
REMARK    5  A    between atoms: N_18  and  C_19
REMARK    6  A    between atoms: C_19  and  C_20
REMARK    7  A    between atoms: C_20  and  N_21
REMARK                            x       y       z     vdW  Elec       q    Type
REMARK                         _______ _______ _______ _____ _____    ______ ____
ROOT
ATOM      1  N   UNL     1      -1.164  12.476  21.600  0.00  0.00    +0.000 N 
ATOM      2  C   UNL     1      -0.009  11.740  21.872  0.00  0.00    +0.000 A 
ATOM      3  O   UNL     1       0.030  10.744  22.594  0.00  0.00    +0.000 OA
ATOM      4  N   UNL     1       1.022  12.035  20.973  0.00  0.00    +0.000 N 
ATOM      5  C   UNL     1       0.661  11.514  19.712  0.00  0.00    +0.000 A 
ATOM      6  C   UNL     1       1.565  10.653  19.112  0.00  0.00    +0.000 A 
ATOM      7  C   UNL     1       1.087   9.586  18.348  0.00  0.00    +0.000 A 
ATOM      8  C   UNL     1      -0.301   9.470  18.130  0.00  0.00    +0.000 A 
ATOM      9  C   UNL     1      -1.200  10.449  18.633  0.00  0.00    +0.000 A 
ATOM     10  C   UNL     1      -0.707  11.485  19.426  0.00  0.00    +0.000 A 
ATOM     11  C   UNL     1      -1.555  12.424  20.254  0.00  0.00    +0.000 A 
ATOM     12  O   UNL     1      -2.395  13.075  19.646  0.00  0.00    +0.000 OA
ATOM     13  H   UNL     1       1.136  13.042  20.923  0.00  0.00    +0.000 HD
ENDROOT
BRANCH   1  19
ATOM     14  C   UNL     1      -1.466  14.136  23.540  0.00  0.00    +0.000 A 
ATOM     15  C   UNL     1      -2.325  14.612  24.562  0.00  0.00    +0.000 A 
ATOM     16  C   UNL     1      -3.534  13.987  24.862  0.00  0.00    +0.000 A 
ATOM     17  C   UNL     1      -3.898  12.864  24.157  0.00  0.00    +0.000 A 
ATOM     18  C   UNL     1      -3.069  12.389  23.141  0.00  0.00    +0.000 A 
ATOM     19  C   UNL     1      -1.864  13.028  22.751  0.00  0.00    +0.000 A 
BRANCH  14  21
ATOM     20  C   UNL     1      -0.302  16.196  23.439  0.00  0.00    +0.000 C 
ATOM     21  O   UNL     1      -0.282  14.775  23.300  0.00  0.00    +0.000 OA
ENDBRANCH  14  21
ENDBRANCH   1  19
BRANCH   7  22
ATOM     22  C   UNL     1       2.130   8.582  17.975  0.00  0.00    +0.000 C 
ATOM     23  O   UNL     1       2.726   8.708  16.905  0.00  0.00    +0.000 OA
ATOM     24  N   UNL     1       2.331   7.487  18.783  0.00  0.00    +0.000 N 
ATOM     25  H   UNL     1       1.832   7.384  19.653  0.00  0.00    +0.000 HD
BRANCH  24  26
ATOM     26  C   UNL     1       3.022   6.324  18.235  0.00  0.00    +0.000 C 
BRANCH  26  27
ATOM     27  C   UNL     1       2.150   5.069  17.989  0.00  0.00    +0.000 C 
BRANCH  27  28
ATOM     28  N   UNL     1       2.531   3.858  18.747  0.00  0.00    +0.000 NA
ATOM     29  C   UNL     1       1.346   3.025  19.040  0.00  0.00    +0.000 C 
ATOM     30  C   UNL     1       0.874   3.446  20.419  0.00  0.00    +0.000 C 
ATOM     31  C   UNL     1       2.159   3.775  21.144  0.00  0.00    +0.000 C 
ATOM     32  C   UNL     1       3.152   4.148  20.049  0.00  0.00    +0.000 C 
ENDBRANCH  27  28
ENDBRANCH  26  27
ENDBRANCH  24  26
ENDBRANCH   7  22
TORSDOF 6
ENDMDL
MODEL 3
REMARK VINA RESULT:      -7.0      6.266     10.367
REMARK  Name = 
REMARK  7 active torsions:
REMARK  status: ('A' for Active; 'I' for Inactive)
REMARK    1  A    between atoms: C_1  and  O_2
REMARK    2  A    between atoms: O_2  and  C_3
REMARK    3  A    between atoms: C_8  and  N_9
REMARK    4  A    between atoms: C_15  and  C_16
REMARK    5  A    between atoms: N_18  and  C_19
REMARK    6  A    between atoms: C_19  and  C_20
REMARK    7  A    between atoms: C_20  and  N_21
REMARK                            x       y       z     vdW  Elec       q    Type
REMARK                         _______ _______ _______ _____ _____    ______ ____
ROOT
ATOM      1  N   UNL     1       4.033   4.706  17.832  0.00  0.00    +0.000 N 
ATOM      2  C   UNL     1       3.897   6.023  18.273  0.00  0.00    +0.000 A 
ATOM      3  O   UNL     1       3.760   6.355  19.450  0.00  0.00    +0.000 OA
ATOM      4  N   UNL     1       4.279   6.944  17.291  0.00  0.00    +0.000 N 
ATOM      5  C   UNL     1       5.678   6.856  17.134  0.00  0.00    +0.000 A 
ATOM      6  C   UNL     1       6.397   8.031  17.277  0.00  0.00    +0.000 A 
ATOM      7  C   UNL     1       7.668   7.989  17.855  0.00  0.00    +0.000 A 
ATOM      8  C   UNL     1       8.224   6.738  18.190  0.00  0.00    +0.000 A 
ATOM      9  C   UNL     1       7.529   5.533  17.900  0.00  0.00    +0.000 A 
ATOM     10  C   UNL     1       6.246   5.598  17.358  0.00  0.00    +0.000 A 
ATOM     11  C   UNL     1       5.284   4.434  17.259  0.00  0.00    +0.000 A 
ATOM     12  O   UNL     1       5.674   3.461  16.627  0.00  0.00    +0.000 OA
ATOM     13  H   UNL     1       3.807   6.713  16.423  0.00  0.00    +0.000 HD
ENDROOT
BRANCH   1  19
ATOM     14  C   UNL     1       3.063   2.568  18.880  0.00  0.00    +0.000 A 
ATOM     15  C   UNL     1       1.890   1.854  19.233  0.00  0.00    +0.000 A 
ATOM     16  C   UNL     1       0.619   2.289  18.859  0.00  0.00    +0.000 A 
ATOM     17  C   UNL     1       0.500   3.438  18.112  0.00  0.00    +0.000 A 
ATOM     18  C   UNL     1       1.644   4.157  17.766  0.00  0.00    +0.000 A 
ATOM     19  C   UNL     1       2.952   3.794  18.179  0.00  0.00    +0.000 A 
BRANCH  14  21
ATOM     20  C   UNL     1       4.552   2.086  20.658  0.00  0.00    +0.000 C 
ATOM     21  O   UNL     1       4.285   2.086  19.255  0.00  0.00    +0.000 OA
ENDBRANCH  14  21
ENDBRANCH   1  19
BRANCH   7  22
ATOM     22  C   UNL     1       8.232   9.331  18.198  0.00  0.00    +0.000 C 
ATOM     23  O   UNL     1       8.030  10.277  17.436  0.00  0.00    +0.000 OA
ATOM     24  N   UNL     1       9.045   9.458  19.300  0.00  0.00    +0.000 N 
ATOM     25  H   UNL     1       9.215   8.676  19.914  0.00  0.00    +0.000 HD
BRANCH  24  26
ATOM     26  C   UNL     1       9.914  10.626  19.404  0.00  0.00    +0.000 C 
BRANCH  26  27
ATOM     27  C   UNL     1       9.573  11.629  20.533  0.00  0.00    +0.000 C 
BRANCH  27  28
ATOM     28  N   UNL     1      10.676  12.513  20.966  0.00  0.00    +0.000 NA
ATOM     29  C   UNL     1      10.173  13.864  21.289  0.00  0.00    +0.000 C 
ATOM     30  C   UNL     1      10.340  14.681  20.021  0.00  0.00    +0.000 C 
ATOM     31  C   UNL     1      11.606  14.127  19.410  0.00  0.00    +0.000 C 
ATOM     32  C   UNL     1      11.717  12.703  19.945  0.00  0.00    +0.000 C 
ENDBRANCH  27  28
ENDBRANCH  26  27
ENDBRANCH  24  26
ENDBRANCH   7  22
TORSDOF 6
ENDMDL
MODEL 4
REMARK VINA RESULT:      -7.0      1.498      2.225
REMARK  Name = 
REMARK  7 active torsions:
REMARK  status: ('A' for Active; 'I' for Inactive)
REMARK    1  A    between atoms: C_1  and  O_2
REMARK    2  A    between atoms: O_2  and  C_3
REMARK    3  A    between atoms: C_8  and  N_9
REMARK    4  A    between atoms: C_15  and  C_16
REMARK    5  A    between atoms: N_18  and  C_19
REMARK    6  A    between atoms: C_19  and  C_20
REMARK    7  A    between atoms: C_20  and  N_21
REMARK                            x       y       z     vdW  Elec       q    Type
REMARK                         _______ _______ _______ _____ _____    ______ ____
ROOT
ATOM      1  N   UNL     1       0.087  12.931  19.920  0.00  0.00    +0.000 N 
ATOM      2  C   UNL     1       1.195  12.555  19.159  0.00  0.00    +0.000 A 
ATOM      3  O   UNL     1       2.364  12.794  19.461  0.00  0.00    +0.000 OA
ATOM      4  N   UNL     1       0.868  11.583  18.206  0.00  0.00    +0.000 N 
ATOM      5  C   UNL     1       0.590  10.380  18.889  0.00  0.00    +0.000 A 
ATOM      6  C   UNL     1       1.312   9.263  18.503  0.00  0.00    +0.000 A 
ATOM      7  C   UNL     1       1.678   8.320  19.467  0.00  0.00    +0.000 A 
ATOM      8  C   UNL     1       1.220   8.483  20.790  0.00  0.00    +0.000 A 
ATOM      9  C   UNL     1       0.357   9.558  21.133  0.00  0.00    +0.000 A 
ATOM     10  C   UNL     1       0.035  10.511  20.166  0.00  0.00    +0.000 A 
ATOM     11  C   UNL     1      -0.626  11.842  20.444  0.00  0.00    +0.000 A 
ATOM     12  O   UNL     1      -1.718  11.800  20.995  0.00  0.00    +0.000 OA
ATOM     13  H   UNL     1       0.054  11.894  17.686  0.00  0.00    +0.000 HD
ENDROOT
BRANCH   1  19
ATOM     14  C   UNL     1      -0.027  14.988  21.457  0.00  0.00    +0.000 A 
ATOM     15  C   UNL     1      -0.072  16.403  21.533  0.00  0.00    +0.000 A 
ATOM     16  C   UNL     1      -0.207  17.200  20.398  0.00  0.00    +0.000 A 
ATOM     17  C   UNL     1      -0.317  16.596  19.168  0.00  0.00    +0.000 A 
ATOM     18  C   UNL     1      -0.262  15.206  19.074  0.00  0.00    +0.000 A 
ATOM     19  C   UNL     1      -0.058  14.354  20.191  0.00  0.00    +0.000 A 
BRANCH  14  21
ATOM     20  C   UNL     1      -1.057  14.248  23.458  0.00  0.00    +0.000 C 
ATOM     21  O   UNL     1       0.087  14.254  22.604  0.00  0.00    +0.000 OA
ENDBRANCH  14  21
ENDBRANCH   1  19
BRANCH   7  22
ATOM     22  C   UNL     1       2.669   7.307  18.989  0.00  0.00    +0.000 C 
ATOM     23  O   UNL     1       3.096   7.384  17.837  0.00  0.00    +0.000 OA
ATOM     24  N   UNL     1       3.005   6.256  19.810  0.00  0.00    +0.000 N 
ATOM     25  H   UNL     1       2.644   6.193  20.749  0.00  0.00    +0.000 HD
BRANCH  24  26
ATOM     26  C   UNL     1       3.624   5.072  19.221  0.00  0.00    +0.000 C 
BRANCH  26  27
ATOM     27  C   UNL     1       5.167   4.993  19.315  0.00  0.00    +0.000 C 
BRANCH  27  28
ATOM     28  N   UNL     1       5.864   4.495  18.110  0.00  0.00    +0.000 NA
ATOM     29  C   UNL     1       7.081   5.287  17.839  0.00  0.00    +0.000 C 
ATOM     30  C   UNL     1       6.664   6.365  16.857  0.00  0.00    +0.000 C 
ATOM     31  C   UNL     1       5.620   5.679  16.005  0.00  0.00    +0.000 C 
ATOM     32  C   UNL     1       5.052   4.571  16.885  0.00  0.00    +0.000 C 
ENDBRANCH  27  28
ENDBRANCH  26  27
ENDBRANCH  24  26
ENDBRANCH   7  22
TORSDOF 6
ENDMDL
MODEL 5
REMARK VINA RESULT:      -7.0      2.632      4.089
REMARK  Name = 
REMARK  7 active torsions:
REMARK  status: ('A' for Active; 'I' for Inactive)
REMARK    1  A    between atoms: C_1  and  O_2
REMARK    2  A    between atoms: O_2  and  C_3
REMARK    3  A    between atoms: C_8  and  N_9
REMARK    4  A    between atoms: C_15  and  C_16
REMARK    5  A    between atoms: N_18  and  C_19
REMARK    6  A    between atoms: C_19  and  C_20
REMARK    7  A    between atoms: C_20  and  N_21
REMARK                            x       y       z     vdW  Elec       q    Type
REMARK                         _______ _______ _______ _____ _____    ______ ____
ROOT
ATOM      1  N   UNL     1      -0.294  10.729  20.849  0.00  0.00    +0.000 N 
ATOM      2  C   UNL     1      -0.292   9.384  21.220  0.00  0.00    +0.000 A 
ATOM      3  O   UNL     1      -1.228   8.607  21.035  0.00  0.00    +0.000 OA
ATOM      4  N   UNL     1       0.999   8.922  21.503  0.00  0.00    +0.000 N 
ATOM      5  C   UNL     1       1.717   8.868  20.289  0.00  0.00    +0.000 A 
ATOM      6  C   UNL     1       2.298   7.654  19.962  0.00  0.00    +0.000 A 
ATOM      7  C   UNL     1       2.358   7.265  18.622  0.00  0.00    +0.000 A 
ATOM      8  C   UNL     1       1.913   8.162  17.630  0.00  0.00    +0.000 A 
ATOM      9  C   UNL     1       1.457   9.462  17.977  0.00  0.00    +0.000 A 
ATOM     10  C   UNL     1       1.368   9.817  19.323  0.00  0.00    +0.000 A 
ATOM     11  C   UNL     1       0.647  11.036  19.854  0.00  0.00    +0.000 A 
ATOM     12  O   UNL     1       1.028  12.119  19.430  0.00  0.00    +0.000 OA
ATOM     13  H   UNL     1       1.443   9.565  22.151  0.00  0.00    +0.000 HD
ENDROOT
BRANCH   1  19
ATOM     14  C   UNL     1      -2.282  12.352  20.694  0.00  0.00    +0.000 A 
ATOM     15  C   UNL     1      -3.329  13.005  21.391  0.00  0.00    +0.000 A 
ATOM     16  C   UNL     1      -3.448  12.937  22.778  0.00  0.00    +0.000 A 
ATOM     17  C   UNL     1      -2.513  12.227  23.494  0.00  0.00    +0.000 A 
ATOM     18  C   UNL     1      -1.483  11.569  22.822  0.00  0.00    +0.000 A 
ATOM     19  C   UNL     1      -1.357  11.552  21.409  0.00  0.00    +0.000 A 
BRANCH  14  21
ATOM     20  C   UNL     1      -3.043  11.594  18.582  0.00  0.00    +0.000 C 
ATOM     21  O   UNL     1      -2.201  12.468  19.335  0.00  0.00    +0.000 OA
ENDBRANCH  14  21
ENDBRANCH   1  19
BRANCH   7  22
ATOM     22  C   UNL     1       2.758   5.840  18.413  0.00  0.00    +0.000 C 
ATOM     23  O   UNL     1       2.191   4.958  19.059  0.00  0.00    +0.000 OA
ATOM     24  N   UNL     1       3.816   5.552  17.582  0.00  0.00    +0.000 N 
ATOM     25  H   UNL     1       4.282   6.280  17.064  0.00  0.00    +0.000 HD
BRANCH  24  26
ATOM     26  C   UNL     1       4.466   4.249  17.693  0.00  0.00    +0.000 C 
BRANCH  26  27
ATOM     27  C   UNL     1       5.593   4.140  18.748  0.00  0.00    +0.000 C 
BRANCH  27  28
ATOM     28  N   UNL     1       6.965   4.390  18.256  0.00  0.00    +0.000 NA
ATOM     29  C   UNL     1       7.520   5.626  18.845  0.00  0.00    +0.000 C 
ATOM     30  C   UNL     1       7.221   6.730  17.849  0.00  0.00    +0.000 C 
ATOM     31  C   UNL     1       7.335   6.036  16.511  0.00  0.00    +0.000 C 
ATOM     32  C   UNL     1       7.046   4.566  16.798  0.00  0.00    +0.000 C 
ENDBRANCH  27  28
ENDBRANCH  26  27
ENDBRANCH  24  26
ENDBRANCH   7  22
TORSDOF 6
ENDMDL
MODEL 6
REMARK VINA RESULT:      -6.8      1.174      1.398
REMARK  Name = 
REMARK  7 active torsions:
REMARK  status: ('A' for Active; 'I' for Inactive)
REMARK    1  A    between atoms: C_1  and  O_2
REMARK    2  A    between atoms: O_2  and  C_3
REMARK    3  A    between atoms: C_8  and  N_9
REMARK    4  A    between atoms: C_15  and  C_16
REMARK    5  A    between atoms: N_18  and  C_19
REMARK    6  A    between atoms: C_19  and  C_20
REMARK    7  A    between atoms: C_20  and  N_21
REMARK                            x       y       z     vdW  Elec       q    Type
REMARK                         _______ _______ _______ _____ _____    ______ ____
ROOT
ATOM      1  N   UNL     1       0.059  13.474  20.032  0.00  0.00    +0.000 N 
ATOM      2  C   UNL     1       1.191  13.135  19.288  0.00  0.00    +0.000 A 
ATOM      3  O   UNL     1       2.350  13.286  19.671  0.00  0.00    +0.000 OA
ATOM      4  N   UNL     1       0.876  12.291  18.216  0.00  0.00    +0.000 N 
ATOM      5  C   UNL     1       0.515  11.033  18.745  0.00  0.00    +0.000 A 
ATOM      6  C   UNL     1       1.212   9.934  18.271  0.00  0.00    +0.000 A 
ATOM      7  C   UNL     1       1.488   8.875  19.139  0.00  0.00    +0.000 A 
ATOM      8  C   UNL     1       0.967   8.911  20.448  0.00  0.00    +0.000 A 
ATOM      9  C   UNL     1       0.130   9.980  20.868  0.00  0.00    +0.000 A 
ATOM     10  C   UNL     1      -0.102  11.047  20.000  0.00  0.00    +0.000 A 
ATOM     11  C   UNL     1      -0.724  12.368  20.394  0.00  0.00    +0.000 A 
ATOM     12  O   UNL     1      -1.844  12.315  20.883  0.00  0.00    +0.000 OA
ATOM     13  H   UNL     1       0.104  12.694  17.696  0.00  0.00    +0.000 HD
ENDROOT
BRANCH   1  19
ATOM     14  C   UNL     1      -0.080  15.350  21.784  0.00  0.00    +0.000 A 
ATOM     15  C   UNL     1      -0.068  16.748  22.019  0.00  0.00    +0.000 A 
ATOM     16  C   UNL     1      -0.083  17.673  20.977  0.00  0.00    +0.000 A 
ATOM     17  C   UNL     1      -0.125  17.217  19.680  0.00  0.00    +0.000 A 
ATOM     18  C   UNL     1      -0.125  15.845  19.431  0.00  0.00    +0.000 A 
ATOM     19  C   UNL     1      -0.042  14.864  20.454  0.00  0.00    +0.000 A 
BRANCH  14  21
ATOM     20  C   UNL     1      -1.121  14.686  23.806  0.00  0.00    +0.000 C 
ATOM     21  O   UNL     1      -0.085  14.487  22.843  0.00  0.00    +0.000 OA
ENDBRANCH  14  21
ENDBRANCH   1  19
BRANCH   7  22
ATOM     22  C   UNL     1       2.461   7.876  18.599  0.00  0.00    +0.000 C 
ATOM     23  O   UNL     1       2.990   8.086  17.507  0.00  0.00    +0.000 OA
ATOM     24  N   UNL     1       2.670   6.701  19.282  0.00  0.00    +0.000 N 
ATOM     25  H   UNL     1       2.225   6.531  20.171  0.00  0.00    +0.000 HD
BRANCH  24  26
ATOM     26  C   UNL     1       3.274   5.574  18.579  0.00  0.00    +0.000 C 
BRANCH  26  27
ATOM     27  C   UNL     1       3.852   4.447  19.470  0.00  0.00    +0.000 C 
BRANCH  27  28
ATOM     28  N   UNL     1       3.053   3.205  19.540  0.00  0.00    +0.000 NA
ATOM     29  C   UNL     1       1.685   3.429  19.030  0.00  0.00    +0.000 C 
ATOM     30  C   UNL     1       0.838   3.755  20.245  0.00  0.00    +0.000 C 
ATOM     31  C   UNL     1       1.450   2.906  21.337  0.00  0.00    +0.000 C 
ATOM     32  C   UNL     1       2.895   2.681  20.905  0.00  0.00    +0.000 C 
ENDBRANCH  27  28
ENDBRANCH  26  27
ENDBRANCH  24  26
ENDBRANCH   7  22
TORSDOF 6
ENDMDL
MODEL 7
REMARK VINA RESULT:      -6.8      2.294      3.102
REMARK  Name = 
REMARK  7 active torsions:
REMARK  status: ('A' for Active; 'I' for Inactive)
REMARK    1  A    between atoms: C_1  and  O_2
REMARK    2  A    between atoms: O_2  and  C_3
REMARK    3  A    between atoms: C_8  and  N_9
REMARK    4  A    between atoms: C_15  and  C_16
REMARK    5  A    between atoms: N_18  and  C_19
REMARK    6  A    between atoms: C_19  and  C_20
REMARK    7  A    between atoms: C_20  and  N_21
REMARK                            x       y       z     vdW  Elec       q    Type
REMARK                         _______ _______ _______ _____ _____    ______ ____
ROOT
ATOM      1  N   UNL     1       0.397  13.001  19.935  0.00  0.00    +0.000 N 
ATOM      2  C   UNL     1       1.330  12.497  19.026  0.00  0.00    +0.000 A 
ATOM      3  O   UNL     1       2.544  12.679  19.098  0.00  0.00    +0.000 OA
ATOM      4  N   UNL     1       0.786  11.481  18.231  0.00  0.00    +0.000 N 
ATOM      5  C   UNL     1       0.573  10.353  19.052  0.00  0.00    +0.000 A 
ATOM      6  C   UNL     1       1.154   9.165  18.643  0.00  0.00    +0.000 A 
ATOM      7  C   UNL     1       1.636   8.274  19.604  0.00  0.00    +0.000 A 
ATOM      8  C   UNL     1       1.432   8.565  20.968  0.00  0.00    +0.000 A 
ATOM      9  C   UNL     1       0.703   9.718  21.364  0.00  0.00    +0.000 A 
ATOM     10  C   UNL     1       0.263  10.616  20.391  0.00  0.00    +0.000 A 
ATOM     11  C   UNL     1      -0.267  12.005  20.666  0.00  0.00    +0.000 A 
ATOM     12  O   UNL     1      -1.243  12.077  21.400  0.00  0.00    +0.000 OA
ATOM     13  H   UNL     1      -0.090  11.806  17.837  0.00  0.00    +0.000 HD
ENDROOT
BRANCH   1  19
ATOM     14  C   UNL     1       1.094  15.202  21.066  0.00  0.00    +0.000 A 
ATOM     15  C   UNL     1       1.048  16.618  21.021  0.00  0.00    +0.000 A 
ATOM     16  C   UNL     1       0.268  17.303  20.091  0.00  0.00    +0.000 A 
ATOM     17  C   UNL     1      -0.493  16.584  19.200  0.00  0.00    +0.000 A 
ATOM     18  C   UNL     1      -0.450  15.190  19.223  0.00  0.00    +0.000 A 
ATOM     19  C   UNL     1       0.379  14.447  20.104  0.00  0.00    +0.000 A 
BRANCH  14  21
ATOM     20  C   UNL     1       3.177  15.105  22.191  0.00  0.00    +0.000 C 
ATOM     21  O   UNL     1       1.861  14.581  22.012  0.00  0.00    +0.000 OA
ENDBRANCH  14  21
ENDBRANCH   1  19
BRANCH   7  22
ATOM     22  C   UNL     1       2.471   7.164  19.049  0.00  0.00    +0.000 C 
ATOM     23  O   UNL     1       2.531   6.098  19.662  0.00  0.00    +0.000 OA
ATOM     24  N   UNL     1       3.230   7.390  17.925  0.00  0.00    +0.000 N 
ATOM     25  H   UNL     1       3.183   8.269  17.434  0.00  0.00    +0.000 HD
BRANCH  24  26
ATOM     26  C   UNL     1       4.334   6.483  17.626  0.00  0.00    +0.000 C 
BRANCH  26  27
ATOM     27  C   UNL     1       5.039   6.696  16.265  0.00  0.00    +0.000 C 
BRANCH  27  28
ATOM     28  N   UNL     1       6.517   6.651  16.288  0.00  0.00    +0.000 NA
ATOM     29  C   UNL     1       7.005   5.263  16.154  0.00  0.00    +0.000 C 
ATOM     30  C   UNL     1       7.208   4.758  17.570  0.00  0.00    +0.000 C 
ATOM     31  C   UNL     1       7.668   5.988  18.319  0.00  0.00    +0.000 C 
ATOM     32  C   UNL     1       7.104   7.168  17.534  0.00  0.00    +0.000 C 
ENDBRANCH  27  28
ENDBRANCH  26  27
ENDBRANCH  24  26
ENDBRANCH   7  22
TORSDOF 6
ENDMDL
MODEL 8
REMARK VINA RESULT:      -6.8      2.356      3.636
REMARK  Name = 
REMARK  7 active torsions:
REMARK  status: ('A' for Active; 'I' for Inactive)
REMARK    1  A    between atoms: C_1  and  O_2
REMARK    2  A    between atoms: O_2  and  C_3
REMARK    3  A    between atoms: C_8  and  N_9
REMARK    4  A    between atoms: C_15  and  C_16
REMARK    5  A    between atoms: N_18  and  C_19
REMARK    6  A    between atoms: C_19  and  C_20
REMARK    7  A    between atoms: C_20  and  N_21
REMARK                            x       y       z     vdW  Elec       q    Type
REMARK                         _______ _______ _______ _____ _____    ______ ____
ROOT
ATOM      1  N   UNL     1      -1.387  12.730  21.858  0.00  0.00    +0.000 N 
ATOM      2  C   UNL     1      -0.219  12.005  22.101  0.00  0.00    +0.000 A 
ATOM      3  O   UNL     1      -0.151  11.008  22.818  0.00  0.00    +0.000 OA
ATOM      4  N   UNL     1       0.787  12.315  21.179  0.00  0.00    +0.000 N 
ATOM      5  C   UNL     1       0.404  11.795  19.925  0.00  0.00    +0.000 A 
ATOM      6  C   UNL     1       1.302  10.946  19.300  0.00  0.00    +0.000 A 
ATOM      7  C   UNL     1       0.818   9.876  18.544  0.00  0.00    +0.000 A 
ATOM      8  C   UNL     1      -0.573   9.745  18.358  0.00  0.00    +0.000 A 
ATOM      9  C   UNL     1      -1.471  10.712  18.886  0.00  0.00    +0.000 A 
ATOM     10  C   UNL     1      -0.971  11.752  19.670  0.00  0.00    +0.000 A 
ATOM     11  C   UNL     1      -1.810  12.678  20.522  0.00  0.00    +0.000 A 
ATOM     12  O   UNL     1      -2.671  13.322  19.936  0.00  0.00    +0.000 OA
ATOM     13  H   UNL     1       0.889  13.323  21.130  0.00  0.00    +0.000 HD
ENDROOT
BRANCH   1  19
ATOM     14  C   UNL     1      -1.648  14.362  23.827  0.00  0.00    +0.000 A 
ATOM     15  C   UNL     1      -2.488  14.830  24.868  0.00  0.00    +0.000 A 
ATOM     16  C   UNL     1      -3.698  14.210  25.177  0.00  0.00    +0.000 A 
ATOM     17  C   UNL     1      -4.081  13.101  24.461  0.00  0.00    +0.000 A 
ATOM     18  C   UNL     1      -3.271  12.635  23.425  0.00  0.00    +0.000 A 
ATOM     19  C   UNL     1      -2.066  13.270  23.028  0.00  0.00    +0.000 A 
BRANCH  14  21
ATOM     20  C   UNL     1      -0.365  16.342  24.048  0.00  0.00    +0.000 C 
ATOM     21  O   UNL     1      -0.463  14.996  23.580  0.00  0.00    +0.000 OA
ENDBRANCH  14  21
ENDBRANCH   1  19
BRANCH   7  22
ATOM     22  C   UNL     1       1.863   8.885  18.143  0.00  0.00    +0.000 C 
ATOM     23  O   UNL     1       2.435   9.023  17.061  0.00  0.00    +0.000 OA
ATOM     24  N   UNL     1       2.093   7.788  18.940  0.00  0.00    +0.000 N 
ATOM     25  H   UNL     1       1.613   7.675  19.820  0.00  0.00    +0.000 HD
BRANCH  24  26
ATOM     26  C   UNL     1       2.784   6.635  18.371  0.00  0.00    +0.000 C 
BRANCH  26  27
ATOM     27  C   UNL     1       3.532   5.726  19.376  0.00  0.00    +0.000 C 
BRANCH  27  28
ATOM     28  N   UNL     1       3.875   4.372  18.892  0.00  0.00    +0.000 NA
ATOM     29  C   UNL     1       5.339   4.185  18.841  0.00  0.00    +0.000 C 
ATOM     30  C   UNL     1       5.751   4.534  17.423  0.00  0.00    +0.000 C 
ATOM     31  C   UNL     1       4.581   4.061  16.591  0.00  0.00    +0.000 C 
ATOM     32  C   UNL     1       3.384   4.088  17.535  0.00  0.00    +0.000 C 
ENDBRANCH  27  28
ENDBRANCH  26  27
ENDBRANCH  24  26
ENDBRANCH   7  22
TORSDOF 6
ENDMDL
MODEL 9
REMARK VINA RESULT:      -6.8      1.804      2.559
REMARK  Name = 
REMARK  7 active torsions:
REMARK  status: ('A' for Active; 'I' for Inactive)
REMARK    1  A    between atoms: C_1  and  O_2
REMARK    2  A    between atoms: O_2  and  C_3
REMARK    3  A    between atoms: C_8  and  N_9
REMARK    4  A    between atoms: C_15  and  C_16
REMARK    5  A    between atoms: N_18  and  C_19
REMARK    6  A    between atoms: C_19  and  C_20
REMARK    7  A    between atoms: C_20  and  N_21
REMARK                            x       y       z     vdW  Elec       q    Type
REMARK                         _______ _______ _______ _____ _____    ______ ____
ROOT
ATOM      1  N   UNL     1       0.553  12.460  19.610  0.00  0.00    +0.000 N 
ATOM      2  C   UNL     1       1.450  11.913  18.690  0.00  0.00    +0.000 A 
ATOM      3  O   UNL     1       2.665  12.109  18.698  0.00  0.00    +0.000 OA
ATOM      4  N   UNL     1       0.883  10.850  17.978  0.00  0.00    +0.000 N 
ATOM      5  C   UNL     1       0.717   9.769  18.869  0.00  0.00    +0.000 A 
ATOM      6  C   UNL     1       1.292   8.564  18.501  0.00  0.00    +0.000 A 
ATOM      7  C   UNL     1       1.826   7.732  19.488  0.00  0.00    +0.000 A 
ATOM      8  C   UNL     1       1.679   8.097  20.841  0.00  0.00    +0.000 A 
ATOM      9  C   UNL     1       0.955   9.265  21.204  0.00  0.00    +0.000 A 
ATOM     10  C   UNL     1       0.464  10.103  20.203  0.00  0.00    +0.000 A 
ATOM     11  C   UNL     1      -0.068  11.501  20.424  0.00  0.00    +0.000 A 
ATOM     12  O   UNL     1      -1.011  11.607  21.196  0.00  0.00    +0.000 OA
ATOM     13  H   UNL     1      -0.014  11.146  17.606  0.00  0.00    +0.000 HD
ENDROOT
BRANCH   1  19
ATOM     14  C   UNL     1       1.212  14.721  20.640  0.00  0.00    +0.000 A 
ATOM     15  C   UNL     1       1.165  16.133  20.516  0.00  0.00    +0.000 A 
ATOM     16  C   UNL     1       0.412  16.763  19.527  0.00  0.00    +0.000 A 
ATOM     17  C   UNL     1      -0.320  15.994  18.653  0.00  0.00    +0.000 A 
ATOM     18  C   UNL     1      -0.276  14.604  18.755  0.00  0.00    +0.000 A 
ATOM     19  C   UNL     1       0.527  13.913  19.699  0.00  0.00    +0.000 A 
BRANCH  14  21
ATOM     20  C   UNL     1       3.223  14.753  21.891  0.00  0.00    +0.000 C 
ATOM     21  O   UNL     1       1.950  14.156  21.641  0.00  0.00    +0.000 OA
ENDBRANCH  14  21
ENDBRANCH   1  19
BRANCH   7  22
ATOM     22  C   UNL     1       2.646   6.599  18.959  0.00  0.00    +0.000 C 
ATOM     23  O   UNL     1       2.221   5.946  18.006  0.00  0.00    +0.000 OA
ATOM     24  N   UNL     1       3.807   6.248  19.608  0.00  0.00    +0.000 N 
ATOM     25  H   UNL     1       4.144   6.781  20.395  0.00  0.00    +0.000 HD
BRANCH  24  26
ATOM     26  C   UNL     1       4.378   4.927  19.366  0.00  0.00    +0.000 C 
BRANCH  26  27
ATOM     27  C   UNL     1       5.660   4.889  18.498  0.00  0.00    +0.000 C 
BRANCH  27  28
ATOM     28  N   UNL     1       5.535   5.450  17.136  0.00  0.00    +0.000 NA
ATOM     29  C   UNL     1       4.877   4.489  16.227  0.00  0.00    +0.000 C 
ATOM     30  C   UNL     1       5.999   3.727  15.549  0.00  0.00    +0.000 C 
ATOM     31  C   UNL     1       7.090   4.763  15.404  0.00  0.00    +0.000 C 
ATOM     32  C   UNL     1       6.825   5.778  16.512  0.00  0.00    +0.000 C 
ENDBRANCH  27  28
ENDBRANCH  26  27
ENDBRANCH  24  26
ENDBRANCH   7  22
TORSDOF 6
ENDMDL
