MODEL 1
REMARK VINA RESULT:      -7.2      0.000      0.000
REMARK  Name = 
REMARK  12 active torsions:
REMARK  status: ('A' for Active; 'I' for Inactive)
REMARK    1  A    between atoms: C_1  and  N_2
REMARK    2  A    between atoms: N_2  and  C_3
REMARK    3  A    between atoms: C_3  and  C_4
REMARK    4  A    between atoms: C_3  and  C_5
REMARK    5  A    between atoms: N_7  and  C_8
REMARK    6  A    between atoms: C_11  and  C_13
REMARK    7  A    between atoms: C_13  and  C_14
REMARK    8  A    between atoms: C_14  and  C_15
REMARK    9  A    between atoms: C_14  and  C_16
REMARK   10  A    between atoms: N_23  and  C_24
REMARK   11  A    between atoms: C_24  and  C_25
REMARK   12  A    between atoms: C_25  and  C_26
REMARK                            x       y       z     vdW  Elec       q    Type
REMARK                         _______ _______ _______ _____ _____    ______ ____
ROOT
ATOM      1  C   UNL     1       1.399   9.361  19.573  0.00  0.00    +0.000 C 
ATOM      2  C   UNL     1       0.827   9.810  18.235  0.00  0.00    +0.000 C 
ATOM      3  N   UNL     1       0.015  11.028  18.323  0.00  0.00    +0.000 N 
ATOM      4  C   UNL     1      -1.365  11.080  18.122  0.00  0.00    +0.000 C 
ATOM      5  O   UNL     1      -2.002  12.134  18.252  0.00  0.00    +0.000 OA
ATOM      6  C   UNL     1       0.615  12.121  19.006  0.00  0.00    +0.000 A 
ATOM      7  C   UNL     1       0.902  13.277  18.279  0.00  0.00    +0.000 A 
ATOM      8  C   UNL     1       1.445  14.395  18.911  0.00  0.00    +0.000 A 
ATOM      9  C   UNL     1       1.682  14.362  20.279  0.00  0.00    +0.000 A 
ATOM     10  C   UNL     1       1.369  13.222  21.029  0.00  0.00    +0.000 A 
ATOM     11  C   UNL     1       0.826  12.083  20.418  0.00  0.00    +0.000 A 
ATOM     12  N   UNL     1       0.454  10.939  21.226  0.00  0.00    +0.000 N 
ATOM     13  C   UNL     1       0.343   9.672  20.641  0.00  0.00    +0.000 C 
ATOM     14  O   UNL     1      -0.516   8.834  20.944  0.00  0.00    +0.000 OA
ENDROOT
BRANCH   1  17
ATOM     15  C   UNL     1       2.682   7.393  18.752  0.00  0.00    +0.000 C 
ATOM     16  O   UNL     1       3.286   8.070  17.923  0.00  0.00    +0.000 OA
ATOM     17  N   UNL     1       1.727   7.936  19.581  0.00  0.00    +0.000 N 
ATOM     18  H   UNL     1       1.152   7.297  20.129  0.00  0.00    +0.000 HD
BRANCH  15  19
ATOM     19  C   UNL     1       2.902   5.868  18.897  0.00  0.00    +0.000 C 
ATOM     20  C   UNL     1       1.875   5.109  18.059  0.00  0.00    +0.000 C 
BRANCH  19  22
ATOM     21  C   UNL     1       2.213   4.185  20.535  0.00  0.00    +0.000 C 
ATOM     22  N   UNL     1       2.812   5.500  20.332  0.00  0.00    +0.000 NA
ATOM     23  H   UNL     1       3.761   5.488  20.710  0.00  0.00    +0.000 HD
ENDBRANCH  19  22
ENDBRANCH  15  19
ENDBRANCH   1  17
BRANCH   4  24
ATOM     24  C   UNL     1      -2.081   9.765  17.786  0.00  0.00    +0.000 C 
BRANCH  24  25
ATOM     25  C   UNL     1      -3.250   9.903  16.796  0.00  0.00    +0.000 C 
ATOM     26  C   UNL     1      -4.388  10.765  17.349  0.00  0.00    +0.000 C 
ATOM     27  C   UNL     1      -2.755  10.521  15.483  0.00  0.00    +0.000 C 
ENDBRANCH  24  25
ENDBRANCH   4  24
BRANCH  12  28
ATOM     28  C   UNL     1      -0.270  11.187  22.490  0.00  0.00    +0.000 C 
BRANCH  28  29
ATOM     29  C   UNL     1      -1.730  11.641  22.289  0.00  0.00    +0.000 C 
BRANCH  29  30
ATOM     30  C   UNL     1      -2.121  12.749  23.238  0.00  0.00    +0.000 A 
ATOM     31  C   UNL     1      -3.400  12.767  23.813  0.00  0.00    +0.000 A 
ATOM     32  C   UNL     1      -3.801  13.839  24.610  0.00  0.00    +0.000 A 
ATOM     33  C   UNL     1      -2.926  14.898  24.844  0.00  0.00    +0.000 A 
ATOM     34  C   UNL     1      -1.639  14.870  24.310  0.00  0.00    +0.000 A 
ATOM     35  C   UNL     1      -1.234  13.797  23.515  0.00  0.00    +0.000 A 
ENDBRANCH  29  30
ENDBRANCH  28  29
ENDBRANCH  12  28
TORSDOF 8
ENDMDL
MODEL 2
REMARK VINA RESULT:      -7.2      2.193      7.189
REMARK  Name = 
REMARK  12 active torsions:
REMARK  status: ('A' for Active; 'I' for Inactive)
REMARK    1  A    between atoms: C_1  and  N_2
REMARK    2  A    between atoms: N_2  and  C_3
REMARK    3  A    between atoms: C_3  and  C_4
REMARK    4  A    between atoms: C_3  and  C_5
REMARK    5  A    between atoms: N_7  and  C_8
REMARK    6  A    between atoms: C_11  and  C_13
REMARK    7  A    between atoms: C_13  and  C_14
REMARK    8  A    between atoms: C_14  and  C_15
REMARK    9  A    between atoms: C_14  and  C_16
REMARK   10  A    between atoms: N_23  and  C_24
REMARK   11  A    between atoms: C_24  and  C_25
REMARK   12  A    between atoms: C_25  and  C_26
REMARK                            x       y       z     vdW  Elec       q    Type
REMARK                         _______ _______ _______ _____ _____    ______ ____
ROOT
ATOM      1  C   UNL     1      -1.509  12.563  18.728  0.00  0.00    +0.000 C 
ATOM      2  C   UNL     1      -1.443  13.754  19.675  0.00  0.00    +0.000 C 
ATOM      3  N   UNL     1      -0.154  13.888  20.360  0.00  0.00    +0.000 N 
ATOM      4  C   UNL     1       0.044  13.698  21.729  0.00  0.00    +0.000 C 
ATOM      5  O   UNL     1       1.168  13.785  22.242  0.00  0.00    +0.000 OA
ATOM      6  C   UNL     1       0.997  13.846  19.524  0.00  0.00    +0.000 A 
ATOM      7  C   UNL     1       1.788  14.991  19.431  0.00  0.00    +0.000 A 
ATOM      8  C   UNL     1       2.952  14.987  18.664  0.00  0.00    +0.000 A 
ATOM      9  C   UNL     1       3.336  13.826  18.005  0.00  0.00    +0.000 A 
ATOM     10  C   UNL     1       2.571  12.660  18.116  0.00  0.00    +0.000 A 
ATOM     11  C   UNL     1       1.394  12.636  18.877  0.00  0.00    +0.000 A 
ATOM     12  N   UNL     1       0.653  11.400  19.024  0.00  0.00    +0.000 N 
ATOM     13  C   UNL     1      -0.702  11.429  19.374  0.00  0.00    +0.000 C 
ATOM     14  O   UNL     1      -1.248  10.615  20.128  0.00  0.00    +0.000 OA
ENDROOT
BRANCH   1  17
ATOM     15  C   UNL     1      -3.259  11.490  17.322  0.00  0.00    +0.000 C 
ATOM     16  O   UNL     1      -2.466  11.280  16.407  0.00  0.00    +0.000 OA
ATOM     17  N   UNL     1      -2.884  12.132  18.480  0.00  0.00    +0.000 N 
ATOM     18  H   UNL     1      -3.618  12.417  19.127  0.00  0.00    +0.000 HD
BRANCH  15  19
ATOM     19  C   UNL     1      -4.754  11.101  17.230  0.00  0.00    +0.000 C 
ATOM     20  C   UNL     1      -5.605  12.347  16.990  0.00  0.00    +0.000 C 
BRANCH  19  22
ATOM     21  C   UNL     1      -6.574  10.543  18.767  0.00  0.00    +0.000 C 
ATOM     22  N   UNL     1      -5.151  10.401  18.477  0.00  0.00    +0.000 NA
ATOM     23  H   UNL     1      -4.939   9.409  18.358  0.00  0.00    +0.000 HD
ENDBRANCH  19  22
ENDBRANCH  15  19
ENDBRANCH   1  17
BRANCH   4  24
ATOM     24  C   UNL     1      -1.179  13.319  22.574  0.00  0.00    +0.000 C 
BRANCH  24  25
ATOM     25  C   UNL     1      -1.952  14.512  23.159  0.00  0.00    +0.000 C 
ATOM     26  C   UNL     1      -3.444  14.217  23.332  0.00  0.00    +0.000 C 
ATOM     27  C   UNL     1      -1.365  14.900  24.521  0.00  0.00    +0.000 C 
ENDBRANCH  24  25
ENDBRANCH   4  24
BRANCH  12  28
ATOM     28  C   UNL     1       1.414  10.163  19.296  0.00  0.00    +0.000 C 
BRANCH  28  29
ATOM     29  C   UNL     1       1.487   9.202  18.093  0.00  0.00    +0.000 C 
BRANCH  29  30
ATOM     30  C   UNL     1       2.378   8.012  18.363  0.00  0.00    +0.000 A 
ATOM     31  C   UNL     1       3.382   7.662  17.449  0.00  0.00    +0.000 A 
ATOM     32  C   UNL     1       4.142   6.507  17.642  0.00  0.00    +0.000 A 
ATOM     33  C   UNL     1       3.908   5.699  18.753  0.00  0.00    +0.000 A 
ATOM     34  C   UNL     1       2.940   6.061  19.688  0.00  0.00    +0.000 A 
ATOM     35  C   UNL     1       2.181   7.217  19.498  0.00  0.00    +0.000 A 
ENDBRANCH  29  30
ENDBRANCH  28  29
ENDBRANCH  12  28
TORSDOF 8
ENDMDL
MODEL 3
REMARK VINA RESULT:      -7.2      2.782      5.707
REMARK  Name = 
REMARK  12 active torsions:
REMARK  status: ('A' for Active; 'I' for Inactive)
REMARK    1  A    between atoms: C_1  and  N_2
REMARK    2  A    between atoms: N_2  and  C_3
REMARK    3  A    between atoms: C_3  and  C_4
REMARK    4  A    between atoms: C_3  and  C_5
REMARK    5  A    between atoms: N_7  and  C_8
REMARK    6  A    between atoms: C_11  and  C_13
REMARK    7  A    between atoms: C_13  and  C_14
REMARK    8  A    between atoms: C_14  and  C_15
REMARK    9  A    between atoms: C_14  and  C_16
REMARK   10  A    between atoms: N_23  and  C_24
REMARK   11  A    between atoms: C_24  and  C_25
REMARK   12  A    between atoms: C_25  and  C_26
REMARK                            x       y       z     vdW  Elec       q    Type
REMARK                         _______ _______ _______ _____ _____    ______ ____
ROOT
ATOM      1  C   UNL     1      -1.843  11.294  19.288  0.00  0.00    +0.000 C 
ATOM      2  C   UNL     1      -0.388  11.215  18.847  0.00  0.00    +0.000 C 
ATOM      3  N   UNL     1       0.569  11.492  19.924  0.00  0.00    +0.000 N 
ATOM      4  C   UNL     1       1.393  12.616  19.987  0.00  0.00    +0.000 C 
ATOM      5  O   UNL     1       2.151  12.814  20.946  0.00  0.00    +0.000 OA
ATOM      6  C   UNL     1       0.368  10.763  21.129  0.00  0.00    +0.000 A 
ATOM      7  C   UNL     1       1.350   9.853  21.522  0.00  0.00    +0.000 A 
ATOM      8  C   UNL     1       1.226   9.150  22.720  0.00  0.00    +0.000 A 
ATOM      9  C   UNL     1       0.125   9.374  23.536  0.00  0.00    +0.000 A 
ATOM     10  C   UNL     1      -0.853  10.308  23.171  0.00  0.00    +0.000 A 
ATOM     11  C   UNL     1      -0.755  11.026  21.972  0.00  0.00    +0.000 A 
ATOM     12  N   UNL     1      -1.748  12.030  21.648  0.00  0.00    +0.000 N 
ATOM     13  C   UNL     1      -1.939  12.427  20.319  0.00  0.00    +0.000 C 
ATOM     14  O   UNL     1      -2.183  13.586  19.963  0.00  0.00    +0.000 OA
ENDROOT
BRANCH   1  17
ATOM     15  C   UNL     1      -3.457  10.545  17.550  0.00  0.00    +0.000 C 
ATOM     16  O   UNL     1      -3.342   9.367  17.879  0.00  0.00    +0.000 OA
ATOM     17  N   UNL     1      -2.746  11.549  18.167  0.00  0.00    +0.000 N 
ATOM     18  H   UNL     1      -2.764  12.476  17.745  0.00  0.00    +0.000 HD
BRANCH  15  19
ATOM     19  C   UNL     1      -4.368  10.995  16.382  0.00  0.00    +0.000 C 
ATOM     20  C   UNL     1      -3.604  10.917  15.062  0.00  0.00    +0.000 C 
BRANCH  19  22
ATOM     21  C   UNL     1      -6.162  12.385  17.297  0.00  0.00    +0.000 C 
ATOM     22  N   UNL     1      -4.854  12.371  16.649  0.00  0.00    +0.000 NA
ATOM     23  H   UNL     1      -4.179  12.825  17.267  0.00  0.00    +0.000 HD
ENDBRANCH  19  22
ENDBRANCH  15  19
ENDBRANCH   1  17
BRANCH   4  24
ATOM     24  C   UNL     1       1.286  13.635  18.844  0.00  0.00    +0.000 C 
BRANCH  24  25
ATOM     25  C   UNL     1       2.222  14.849  18.975  0.00  0.00    +0.000 C 
ATOM     26  C   UNL     1       3.375  14.812  17.969  0.00  0.00    +0.000 C 
ATOM     27  C   UNL     1       1.429  16.145  18.770  0.00  0.00    +0.000 C 
ENDBRANCH  24  25
ENDBRANCH   4  24
BRANCH  12  28
ATOM     28  C   UNL     1      -2.173  12.957  22.718  0.00  0.00    +0.000 C 
BRANCH  28  29
ATOM     29  C   UNL     1      -3.659  12.818  23.104  0.00  0.00    +0.000 C 
BRANCH  29  30
ATOM     30  C   UNL     1      -4.224  14.098  23.673  0.00  0.00    +0.000 A 
ATOM     31  C   UNL     1      -5.557  14.454  23.420  0.00  0.00    +0.000 A 
ATOM     32  C   UNL     1      -6.056  15.681  23.857  0.00  0.00    +0.000 A 
ATOM     33  C   UNL     1      -5.229  16.558  24.557  0.00  0.00    +0.000 A 
ATOM     34  C   UNL     1      -3.916  16.196  24.848  0.00  0.00    +0.000 A 
ATOM     35  C   UNL     1      -3.415  14.968  24.414  0.00  0.00    +0.000 A 
ENDBRANCH  29  30
ENDBRANCH  28  29
ENDBRANCH  12  28
TORSDOF 8
ENDMDL
MODEL 4
REMARK VINA RESULT:      -7.2      2.901      5.848
REMARK  Name = 
REMARK  12 active torsions:
REMARK  status: ('A' for Active; 'I' for Inactive)
REMARK    1  A    between atoms: C_1  and  N_2
REMARK    2  A    between atoms: N_2  and  C_3
REMARK    3  A    between atoms: C_3  and  C_4
REMARK    4  A    between atoms: C_3  and  C_5
REMARK    5  A    between atoms: N_7  and  C_8
REMARK    6  A    between atoms: C_11  and  C_13
REMARK    7  A    between atoms: C_13  and  C_14
REMARK    8  A    between atoms: C_14  and  C_15
REMARK    9  A    between atoms: C_14  and  C_16
REMARK   10  A    between atoms: N_23  and  C_24
REMARK   11  A    between atoms: C_24  and  C_25
REMARK   12  A    between atoms: C_25  and  C_26
REMARK                            x       y       z     vdW  Elec       q    Type
REMARK                         _______ _______ _______ _____ _____    ______ ____
ROOT
ATOM      1  C   UNL     1      -1.787  11.627  19.375  0.00  0.00    +0.000 C 
ATOM      2  C   UNL     1      -0.327  11.598  18.942  0.00  0.00    +0.000 C 
ATOM      3  N   UNL     1       0.618  11.772  20.050  0.00  0.00    +0.000 N 
ATOM      4  C   UNL     1       1.435  12.888  20.232  0.00  0.00    +0.000 C 
ATOM      5  O   UNL     1       2.184  12.994  21.213  0.00  0.00    +0.000 OA
ATOM      6  C   UNL     1       0.410  10.927  21.175  0.00  0.00    +0.000 A 
ATOM      7  C   UNL     1       1.394   9.987  21.486  0.00  0.00    +0.000 A 
ATOM      8  C   UNL     1       1.262   9.168  22.607  0.00  0.00    +0.000 A 
ATOM      9  C   UNL     1       0.152   9.305  23.431  0.00  0.00    +0.000 A 
ATOM     10  C   UNL     1      -0.827  10.266  23.151  0.00  0.00    +0.000 A 
ATOM     11  C   UNL     1      -0.722  11.100  22.029  0.00  0.00    +0.000 A 
ATOM     12  N   UNL     1      -1.717  12.126  21.796  0.00  0.00    +0.000 N 
ATOM     13  C   UNL     1      -1.899  12.652  20.511  0.00  0.00    +0.000 C 
ATOM     14  O   UNL     1      -2.146  13.840  20.270  0.00  0.00    +0.000 OA
ENDROOT
BRANCH   1  17
ATOM     15  C   UNL     1      -3.477  11.063  17.638  0.00  0.00    +0.000 C 
ATOM     16  O   UNL     1      -3.450   9.869  17.929  0.00  0.00    +0.000 OA
ATOM     17  N   UNL     1      -2.681  11.987  18.275  0.00  0.00    +0.000 N 
ATOM     18  H   UNL     1      -2.631  12.926  17.882  0.00  0.00    +0.000 HD
BRANCH  15  19
ATOM     19  C   UNL     1      -4.363  11.619  16.499  0.00  0.00    +0.000 C 
ATOM     20  C   UNL     1      -5.716  12.060  17.055  0.00  0.00    +0.000 C 
BRANCH  19  22
ATOM     21  C   UNL     1      -3.302  10.392  14.667  0.00  0.00    +0.000 C 
ATOM     22  N   UNL     1      -4.518  10.579  15.453  0.00  0.00    +0.000 NA
ATOM     23  H   UNL     1      -4.743   9.698  15.920  0.00  0.00    +0.000 HD
ENDBRANCH  19  22
ENDBRANCH  15  19
ENDBRANCH   1  17
BRANCH   4  24
ATOM     24  C   UNL     1       1.334  14.015  19.195  0.00  0.00    +0.000 C 
BRANCH  24  25
ATOM     25  C   UNL     1       1.903  15.367  19.655  0.00  0.00    +0.000 C 
ATOM     26  C   UNL     1       2.548  16.152  18.511  0.00  0.00    +0.000 C 
ATOM     27  C   UNL     1       0.789  16.221  20.274  0.00  0.00    +0.000 C 
ENDBRANCH  24  25
ENDBRANCH   4  24
BRANCH  12  28
ATOM     28  C   UNL     1      -2.157  12.941  22.948  0.00  0.00    +0.000 C 
BRANCH  28  29
ATOM     29  C   UNL     1      -3.428  12.405  23.638  0.00  0.00    +0.000 C 
BRANCH  29  30
ATOM     30  C   UNL     1      -4.548  13.419  23.643  0.00  0.00    +0.000 A 
ATOM     31  C   UNL     1      -4.255  14.790  23.633  0.00  0.00    +0.000 A 
ATOM     32  C   UNL     1      -5.280  15.731  23.740  0.00  0.00    +0.000 A 
ATOM     33  C   UNL     1      -6.604  15.309  23.849  0.00  0.00    +0.000 A 
ATOM     34  C   UNL     1      -6.906  13.949  23.820  0.00  0.00    +0.000 A 
ATOM     35  C   UNL     1      -5.883  13.006  23.711  0.00  0.00    +0.000 A 
ENDBRANCH  29  30
ENDBRANCH  28  29
ENDBRANCH  12  28
TORSDOF 8
ENDMDL
MODEL 5
REMARK VINA RESULT:      -7.2      0.578      1.136
REMARK  Name = 
REMARK  12 active torsions:
REMARK  status: ('A' for Active; 'I' for Inactive)
REMARK    1  A    between atoms: C_1  and  N_2
REMARK    2  A    between atoms: N_2  and  C_3
REMARK    3  A    between atoms: C_3  and  C_4
REMARK    4  A    between atoms: C_3  and  C_5
REMARK    5  A    between atoms: N_7  and  C_8
REMARK    6  A    between atoms: C_11  and  C_13
REMARK    7  A    between atoms: C_13  and  C_14
REMARK    8  A    between atoms: C_14  and  C_15
REMARK    9  A    between atoms: C_14  and  C_16
REMARK   10  A    between atoms: N_23  and  C_24
REMARK   11  A    between atoms: C_24  and  C_25
REMARK   12  A    between atoms: C_25  and  C_26
REMARK                            x       y       z     vdW  Elec       q    Type
REMARK                         _______ _______ _______ _____ _____    ______ ____
ROOT
ATOM      1  C   UNL     1       1.285   9.373  19.865  0.00  0.00    +0.000 C 
ATOM      2  C   UNL     1       0.797   9.763  18.476  0.00  0.00    +0.000 C 
ATOM      3  N   UNL     1       0.017  11.004  18.455  0.00  0.00    +0.000 N 
ATOM      4  C   UNL     1      -1.349  11.082  18.178  0.00  0.00    +0.000 C 
ATOM      5  O   UNL     1      -1.961  12.158  18.217  0.00  0.00    +0.000 OA
ATOM      6  C   UNL     1       0.612  12.118  19.111  0.00  0.00    +0.000 A 
ATOM      7  C   UNL     1       0.970  13.224  18.340  0.00  0.00    +0.000 A 
ATOM      8  C   UNL     1       1.511  14.361  18.940  0.00  0.00    +0.000 A 
ATOM      9  C   UNL     1       1.676  14.396  20.318  0.00  0.00    +0.000 A 
ATOM     10  C   UNL     1       1.291  13.307  21.109  0.00  0.00    +0.000 A 
ATOM     11  C   UNL     1       0.747  12.151  20.532  0.00  0.00    +0.000 A 
ATOM     12  N   UNL     1       0.301  11.063  21.378  0.00  0.00    +0.000 N 
ATOM     13  C   UNL     1       0.184   9.769  20.857  0.00  0.00    +0.000 C 
ATOM     14  O   UNL     1      -0.713   8.972  21.157  0.00  0.00    +0.000 OA
ENDROOT
BRANCH   1  17
ATOM     15  C   UNL     1       2.459   7.306  19.130  0.00  0.00    +0.000 C 
ATOM     16  O   UNL     1       3.034   7.896  18.218  0.00  0.00    +0.000 OA
ATOM     17  N   UNL     1       1.570   7.942  19.967  0.00  0.00    +0.000 N 
ATOM     18  H   UNL     1       1.010   7.367  20.594  0.00  0.00    +0.000 HD
BRANCH  15  19
ATOM     19  C   UNL     1       2.642   5.790  19.382  0.00  0.00    +0.000 C 
ATOM     20  C   UNL     1       1.660   5.314  20.451  0.00  0.00    +0.000 C 
BRANCH  19  22
ATOM     21  C   UNL     1       4.713   4.581  18.894  0.00  0.00    +0.000 C 
ATOM     22  N   UNL     1       4.048   5.531  19.780  0.00  0.00    +0.000 NA
ATOM     23  H   UNL     1       4.551   6.420  19.742  0.00  0.00    +0.000 HD
ENDBRANCH  19  22
ENDBRANCH  15  19
ENDBRANCH   1  17
BRANCH   4  24
ATOM     24  C   UNL     1      -2.084   9.769  17.874  0.00  0.00    +0.000 C 
BRANCH  24  25
ATOM     25  C   UNL     1      -3.226   9.893  16.852  0.00  0.00    +0.000 C 
ATOM     26  C   UNL     1      -4.374  10.771  17.358  0.00  0.00    +0.000 C 
ATOM     27  C   UNL     1      -2.694  10.482  15.540  0.00  0.00    +0.000 C 
ENDBRANCH  24  25
ENDBRANCH   4  24
BRANCH  12  28
ATOM     28  C   UNL     1      -0.481  11.398  22.586  0.00  0.00    +0.000 C 
BRANCH  28  29
ATOM     29  C   UNL     1      -1.847  12.044  22.282  0.00  0.00    +0.000 C 
BRANCH  29  30
ATOM     30  C   UNL     1      -2.182  13.157  23.246  0.00  0.00    +0.000 A 
ATOM     31  C   UNL     1      -1.195  14.074  23.635  0.00  0.00    +0.000 A 
ATOM     32  C   UNL     1      -1.471  15.042  24.601  0.00  0.00    +0.000 A 
ATOM     33  C   UNL     1      -2.737  15.106  25.179  0.00  0.00    +0.000 A 
ATOM     34  C   UNL     1      -3.736  14.225  24.771  0.00  0.00    +0.000 A 
ATOM     35  C   UNL     1      -3.463  13.257  23.803  0.00  0.00    +0.000 A 
ENDBRANCH  29  30
ENDBRANCH  28  29
ENDBRANCH  12  28
TORSDOF 8
ENDMDL
MODEL 6
REMARK VINA RESULT:      -7.0      3.278      6.833
REMARK  Name = 
REMARK  12 active torsions:
REMARK  status: ('A' for Active; 'I' for Inactive)
REMARK    1  A    between atoms: C_1  and  N_2
REMARK    2  A    between atoms: N_2  and  C_3
REMARK    3  A    between atoms: C_3  and  C_4
REMARK    4  A    between atoms: C_3  and  C_5
REMARK    5  A    between atoms: N_7  and  C_8
REMARK    6  A    between atoms: C_11  and  C_13
REMARK    7  A    between atoms: C_13  and  C_14
REMARK    8  A    between atoms: C_14  and  C_15
REMARK    9  A    between atoms: C_14  and  C_16
REMARK   10  A    between atoms: N_23  and  C_24
REMARK   11  A    between atoms: C_24  and  C_25
REMARK   12  A    between atoms: C_25  and  C_26
REMARK                            x       y       z     vdW  Elec       q    Type
REMARK                         _______ _______ _______ _____ _____    ______ ____
ROOT
ATOM      1  C   UNL     1      -3.267  12.568  20.106  0.00  0.00    +0.000 C 
ATOM      2  C   UNL     1      -2.173  12.224  19.105  0.00  0.00    +0.000 C 
ATOM      3  N   UNL     1      -0.842  12.103  19.707  0.00  0.00    +0.000 N 
ATOM      4  C   UNL     1       0.217  12.984  19.481  0.00  0.00    +0.000 C 
ATOM      5  O   UNL     1       1.307  12.852  20.054  0.00  0.00    +0.000 OA
ATOM      6  C   UNL     1      -0.757  11.263  20.852  0.00  0.00    +0.000 A 
ATOM      7  C   UNL     1       0.011  10.102  20.764  0.00  0.00    +0.000 A 
ATOM      8  C   UNL     1       0.167   9.271  21.873  0.00  0.00    +0.000 A 
ATOM      9  C   UNL     1      -0.432   9.613  23.078  0.00  0.00    +0.000 A 
ATOM     10  C   UNL     1      -1.179  10.792  23.191  0.00  0.00    +0.000 A 
ATOM     11  C   UNL     1      -1.355  11.645  22.092  0.00  0.00    +0.000 A 
ATOM     12  N   UNL     1      -2.081  12.888  22.252  0.00  0.00    +0.000 N 
ATOM     13  C   UNL     1      -2.649  13.519  21.139  0.00  0.00    +0.000 C 
ATOM     14  O   UNL     1      -2.684  14.744  20.971  0.00  0.00    +0.000 OA
ENDROOT
BRANCH   1  17
ATOM     15  C   UNL     1      -5.708  13.013  19.925  0.00  0.00    +0.000 C 
ATOM     16  O   UNL     1      -5.964  12.279  20.877  0.00  0.00    +0.000 OA
ATOM     17  N   UNL     1      -4.423  13.194  19.466  0.00  0.00    +0.000 N 
ATOM     18  H   UNL     1      -4.297  13.682  18.581  0.00  0.00    +0.000 HD
BRANCH  15  19
ATOM     19  C   UNL     1      -6.810  13.754  19.130  0.00  0.00    +0.000 C 
ATOM     20  C   UNL     1      -7.485  12.793  18.152  0.00  0.00    +0.000 C 
BRANCH  19  22
ATOM     21  C   UNL     1      -7.020  15.373  17.307  0.00  0.00    +0.000 C 
ATOM     22  N   UNL     1      -6.204  14.911  18.426  0.00  0.00    +0.000 NA
ATOM     23  H   UNL     1      -6.114  15.673  19.100  0.00  0.00    +0.000 HD
ENDBRANCH  19  22
ENDBRANCH  15  19
ENDBRANCH   1  17
BRANCH   4  24
ATOM     24  C   UNL     1      -0.035  14.164  18.533  0.00  0.00    +0.000 C 
BRANCH  24  25
ATOM     25  C   UNL     1       0.398  15.534  19.082  0.00  0.00    +0.000 C 
ATOM     26  C   UNL     1       1.810  15.924  18.638  0.00  0.00    +0.000 C 
ATOM     27  C   UNL     1      -0.583  16.618  18.617  0.00  0.00    +0.000 C 
ENDBRANCH  24  25
ENDBRANCH   4  24
BRANCH  12  28
ATOM     28  C   UNL     1      -1.794  13.711  23.446  0.00  0.00    +0.000 C 
BRANCH  28  29
ATOM     29  C   UNL     1      -2.913  13.678  24.505  0.00  0.00    +0.000 C 
BRANCH  29  30
ATOM     30  C   UNL     1      -3.930  14.776  24.299  0.00  0.00    +0.000 A 
ATOM     31  C   UNL     1      -3.713  16.049  24.848  0.00  0.00    +0.000 A 
ATOM     32  C   UNL     1      -4.693  17.037  24.747  0.00  0.00    +0.000 A 
ATOM     33  C   UNL     1      -5.892  16.764  24.091  0.00  0.00    +0.000 A 
ATOM     34  C   UNL     1      -6.099  15.515  23.508  0.00  0.00    +0.000 A 
ATOM     35  C   UNL     1      -5.120  14.526  23.605  0.00  0.00    +0.000 A 
ENDBRANCH  29  30
ENDBRANCH  28  29
ENDBRANCH  12  28
TORSDOF 8
ENDMDL
MODEL 7
REMARK VINA RESULT:      -7.0      3.131      6.598
REMARK  Name = 
REMARK  12 active torsions:
REMARK  status: ('A' for Active; 'I' for Inactive)
REMARK    1  A    between atoms: C_1  and  N_2
REMARK    2  A    between atoms: N_2  and  C_3
REMARK    3  A    between atoms: C_3  and  C_4
REMARK    4  A    between atoms: C_3  and  C_5
REMARK    5  A    between atoms: N_7  and  C_8
REMARK    6  A    between atoms: C_11  and  C_13
REMARK    7  A    between atoms: C_13  and  C_14
REMARK    8  A    between atoms: C_14  and  C_15
REMARK    9  A    between atoms: C_14  and  C_16
REMARK   10  A    between atoms: N_23  and  C_24
REMARK   11  A    between atoms: C_24  and  C_25
REMARK   12  A    between atoms: C_25  and  C_26
REMARK                            x       y       z     vdW  Elec       q    Type
REMARK                         _______ _______ _______ _____ _____    ______ ____
ROOT
ATOM      1  C   UNL     1      -3.057  12.234  20.013  0.00  0.00    +0.000 C 
ATOM      2  C   UNL     1      -1.912  11.948  19.050  0.00  0.00    +0.000 C 
ATOM      3  N   UNL     1      -0.597  11.909  19.696  0.00  0.00    +0.000 N 
ATOM      4  C   UNL     1       0.416  12.849  19.498  0.00  0.00    +0.000 C 
ATOM      5  O   UNL     1       1.492  12.784  20.106  0.00  0.00    +0.000 OA
ATOM      6  C   UNL     1      -0.501  11.083  20.851  0.00  0.00    +0.000 A 
ATOM      7  C   UNL     1       0.336   9.969  20.798  0.00  0.00    +0.000 A 
ATOM      8  C   UNL     1       0.504   9.155  21.917  0.00  0.00    +0.000 A 
ATOM      9  C   UNL     1      -0.153   9.470  23.100  0.00  0.00    +0.000 A 
ATOM     10  C   UNL     1      -0.971  10.604  23.178  0.00  0.00    +0.000 A 
ATOM     11  C   UNL     1      -1.160  11.437  22.068  0.00  0.00    +0.000 A 
ATOM     12  N   UNL     1      -1.962  12.637  22.193  0.00  0.00    +0.000 N 
ATOM     13  C   UNL     1      -2.530  13.226  21.057  0.00  0.00    +0.000 C 
ATOM     14  O   UNL     1      -2.630  14.446  20.878  0.00  0.00    +0.000 OA
ENDROOT
BRANCH   1  17
ATOM     15  C   UNL     1      -5.507  12.615  19.805  0.00  0.00    +0.000 C 
ATOM     16  O   UNL     1      -5.747  11.948  20.809  0.00  0.00    +0.000 OA
ATOM     17  N   UNL     1      -4.226  12.787  19.331  0.00  0.00    +0.000 N 
ATOM     18  H   UNL     1      -4.110  13.211  18.412  0.00  0.00    +0.000 HD
BRANCH  15  19
ATOM     19  C   UNL     1      -6.624  13.272  18.959  0.00  0.00    +0.000 C 
ATOM     20  C   UNL     1      -7.076  12.316  17.856  0.00  0.00    +0.000 C 
BRANCH  19  22
ATOM     21  C   UNL     1      -6.763  15.715  19.000  0.00  0.00    +0.000 C 
ATOM     22  N   UNL     1      -6.120  14.550  18.399  0.00  0.00    +0.000 NA
ATOM     23  H   UNL     1      -5.117  14.598  18.587  0.00  0.00    +0.000 HD
ENDBRANCH  19  22
ENDBRANCH  15  19
ENDBRANCH   1  17
BRANCH   4  24
ATOM     24  C   UNL     1       0.127  14.006  18.532  0.00  0.00    +0.000 C 
BRANCH  24  25
ATOM     25  C   UNL     1       0.535  15.395  19.050  0.00  0.00    +0.000 C 
ATOM     26  C   UNL     1       1.911  15.830  18.540  0.00  0.00    +0.000 C 
ATOM     27  C   UNL     1      -0.504  16.439  18.624  0.00  0.00    +0.000 C 
ENDBRANCH  24  25
ENDBRANCH   4  24
BRANCH  12  28
ATOM     28  C   UNL     1      -1.763  13.483  23.388  0.00  0.00    +0.000 C 
BRANCH  28  29
ATOM     29  C   UNL     1      -3.048  13.710  24.209  0.00  0.00    +0.000 C 
BRANCH  29  30
ATOM     30  C   UNL     1      -3.181  15.138  24.683  0.00  0.00    +0.000 A 
ATOM     31  C   UNL     1      -4.385  15.832  24.500  0.00  0.00    +0.000 A 
ATOM     32  C   UNL     1      -4.482  17.181  24.843  0.00  0.00    +0.000 A 
ATOM     33  C   UNL     1      -3.380  17.843  25.380  0.00  0.00    +0.000 A 
ATOM     34  C   UNL     1      -2.191  17.151  25.602  0.00  0.00    +0.000 A 
ATOM     35  C   UNL     1      -2.092  15.802  25.262  0.00  0.00    +0.000 A 
ENDBRANCH  29  30
ENDBRANCH  28  29
ENDBRANCH  12  28
TORSDOF 8
ENDMDL
MODEL 8
REMARK VINA RESULT:      -7.0      0.879      1.075
REMARK  Name = 
REMARK  12 active torsions:
REMARK  status: ('A' for Active; 'I' for Inactive)
REMARK    1  A    between atoms: C_1  and  N_2
REMARK    2  A    between atoms: N_2  and  C_3
REMARK    3  A    between atoms: C_3  and  C_4
REMARK    4  A    between atoms: C_3  and  C_5
REMARK    5  A    between atoms: N_7  and  C_8
REMARK    6  A    between atoms: C_11  and  C_13
REMARK    7  A    between atoms: C_13  and  C_14
REMARK    8  A    between atoms: C_14  and  C_15
REMARK    9  A    between atoms: C_14  and  C_16
REMARK   10  A    between atoms: N_23  and  C_24
REMARK   11  A    between atoms: C_24  and  C_25
REMARK   12  A    between atoms: C_25  and  C_26
REMARK                            x       y       z     vdW  Elec       q    Type
REMARK                         _______ _______ _______ _____ _____    ______ ____
ROOT
ATOM      1  C   UNL     1       1.171   9.403  19.856  0.00  0.00    +0.000 C 
ATOM      2  C   UNL     1       0.621   9.823  18.500  0.00  0.00    +0.000 C 
ATOM      3  N   UNL     1      -0.170  11.057  18.543  0.00  0.00    +0.000 N 
ATOM      4  C   UNL     1      -1.546  11.128  18.324  0.00  0.00    +0.000 C 
ATOM      5  O   UNL     1      -2.166  12.196  18.416  0.00  0.00    +0.000 OA
ATOM      6  C   UNL     1       0.443  12.159  19.201  0.00  0.00    +0.000 A 
ATOM      7  C   UNL     1       0.758  13.288  18.444  0.00  0.00    +0.000 A 
ATOM      8  C   UNL     1       1.314  14.414  19.049  0.00  0.00    +0.000 A 
ATOM      9  C   UNL     1       1.536  14.417  20.421  0.00  0.00    +0.000 A 
ATOM     10  C   UNL     1       1.194  13.305  21.199  0.00  0.00    +0.000 A 
ATOM     11  C   UNL     1       0.637  12.158  20.616  0.00  0.00    +0.000 A 
ATOM     12  N   UNL     1       0.236  11.045  21.452  0.00  0.00    +0.000 N 
ATOM     13  C   UNL     1       0.108   9.763  20.903  0.00  0.00    +0.000 C 
ATOM     14  O   UNL     1      -0.768   8.951  21.221  0.00  0.00    +0.000 OA
ENDROOT
BRANCH   1  17
ATOM     15  C   UNL     1       2.385   7.379  19.068  0.00  0.00    +0.000 C 
ATOM     16  O   UNL     1       2.970   8.011  18.191  0.00  0.00    +0.000 OA
ATOM     17  N   UNL     1       1.472   7.973  19.910  0.00  0.00    +0.000 N 
ATOM     18  H   UNL     1       0.907   7.368  20.504  0.00  0.00    +0.000 HD
BRANCH  15  19
ATOM     19  C   UNL     1       2.583   5.858  19.267  0.00  0.00    +0.000 C 
ATOM     20  C   UNL     1       2.194   5.109  17.993  0.00  0.00    +0.000 C 
BRANCH  19  22
ATOM     21  C   UNL     1       1.349   4.021  20.311  0.00  0.00    +0.000 C 
ATOM     22  N   UNL     1       1.776   5.411  20.429  0.00  0.00    +0.000 NA
ATOM     23  H   UNL     1       2.356   5.505  21.265  0.00  0.00    +0.000 HD
ENDBRANCH  19  22
ENDBRANCH  15  19
ENDBRANCH   1  17
BRANCH   4  24
ATOM     24  C   UNL     1      -2.282   9.816  18.018  0.00  0.00    +0.000 C 
BRANCH  24  25
ATOM     25  C   UNL     1      -3.317   9.908  16.885  0.00  0.00    +0.000 C 
ATOM     26  C   UNL     1      -4.526  10.767  17.263  0.00  0.00    +0.000 C 
ATOM     27  C   UNL     1      -2.667  10.497  15.627  0.00  0.00    +0.000 C 
ENDBRANCH  24  25
ENDBRANCH   4  24
BRANCH  12  28
ATOM     28  C   UNL     1      -0.498  11.343  22.700  0.00  0.00    +0.000 C 
BRANCH  28  29
ATOM     29  C   UNL     1      -1.924  11.881  22.468  0.00  0.00    +0.000 C 
BRANCH  29  30
ATOM     30  C   UNL     1      -1.981  13.390  22.515  0.00  0.00    +0.000 A 
ATOM     31  C   UNL     1      -2.430  14.112  21.400  0.00  0.00    +0.000 A 
ATOM     32  C   UNL     1      -2.391  15.507  21.400  0.00  0.00    +0.000 A 
ATOM     33  C   UNL     1      -1.911  16.189  22.517  0.00  0.00    +0.000 A 
ATOM     34  C   UNL     1      -1.500  15.480  23.644  0.00  0.00    +0.000 A 
ATOM     35  C   UNL     1      -1.540  14.085  23.647  0.00  0.00    +0.000 A 
ENDBRANCH  29  30
ENDBRANCH  28  29
ENDBRANCH  12  28
TORSDOF 8
ENDMDL
MODEL 9
REMARK VINA RESULT:      -7.0      2.790      5.698
REMARK  Name = 
REMARK  12 active torsions:
REMARK  status: ('A' for Active; 'I' for Inactive)
REMARK    1  A    between atoms: C_1  and  N_2
REMARK    2  A    between atoms: N_2  and  C_3
REMARK    3  A    between atoms: C_3  and  C_4
REMARK    4  A    between atoms: C_3  and  C_5
REMARK    5  A    between atoms: N_7  and  C_8
REMARK    6  A    between atoms: C_11  and  C_13
REMARK    7  A    between atoms: C_13  and  C_14
REMARK    8  A    between atoms: C_14  and  C_15
REMARK    9  A    between atoms: C_14  and  C_16
REMARK   10  A    between atoms: N_23  and  C_24
REMARK   11  A    between atoms: C_24  and  C_25
REMARK   12  A    between atoms: C_25  and  C_26
REMARK                            x       y       z     vdW  Elec       q    Type
REMARK                         _______ _______ _______ _____ _____    ______ ____
ROOT
ATOM      1  C   UNL     1      -1.563  11.119  18.991  0.00  0.00    +0.000 C 
ATOM      2  C   UNL     1      -0.086  10.925  18.678  0.00  0.00    +0.000 C 
ATOM      3  N   UNL     1       0.801  11.257  19.796  0.00  0.00    +0.000 N 
ATOM      4  C   UNL     1       1.681  12.340  19.820  0.00  0.00    +0.000 C 
ATOM      5  O   UNL     1       2.376  12.594  20.814  0.00  0.00    +0.000 OA
ATOM      6  C   UNL     1       0.470  10.660  21.044  0.00  0.00    +0.000 A 
ATOM      7  C   UNL     1       1.367   9.746  21.598  0.00  0.00    +0.000 A 
ATOM      8  C   UNL     1       1.113   9.170  22.842  0.00  0.00    +0.000 A 
ATOM      9  C   UNL     1      -0.032   9.526  23.543  0.00  0.00    +0.000 A 
ATOM     10  C   UNL     1      -0.925  10.467  23.016  0.00  0.00    +0.000 A 
ATOM     11  C   UNL     1      -0.696  11.060  21.766  0.00  0.00    +0.000 A 
ATOM     12  N   UNL     1      -1.603  12.075  21.272  0.00  0.00    +0.000 N 
ATOM     13  C   UNL     1      -1.672  12.350  19.901  0.00  0.00    +0.000 C 
ATOM     14  O   UNL     1      -1.823  13.480  19.420  0.00  0.00    +0.000 OA
ENDROOT
BRANCH   1  17
ATOM     15  C   UNL     1      -3.276  10.372  17.348  0.00  0.00    +0.000 C 
ATOM     16  O   UNL     1      -3.440   9.302  17.930  0.00  0.00    +0.000 OA
ATOM     17  N   UNL     1      -2.364  11.307  17.782  0.00  0.00    +0.000 N 
ATOM     18  H   UNL     1      -2.161  12.096  17.171  0.00  0.00    +0.000 HD
BRANCH  15  19
ATOM     19  C   UNL     1      -4.038  10.738  16.052  0.00  0.00    +0.000 C 
ATOM     20  C   UNL     1      -3.118  10.582  14.842  0.00  0.00    +0.000 C 
BRANCH  19  22
ATOM     21  C   UNL     1      -5.664  12.229  17.111  0.00  0.00    +0.000 C 
ATOM     22  N   UNL     1      -4.555  12.124  16.168  0.00  0.00    +0.000 NA
ATOM     23  H   UNL     1      -3.790  12.715  16.497  0.00  0.00    +0.000 HD
ENDBRANCH  19  22
ENDBRANCH  15  19
ENDBRANCH   1  17
BRANCH   4  24
ATOM     24  C   UNL     1       1.719  13.248  18.583  0.00  0.00    +0.000 C 
BRANCH  24  25
ATOM     25  C   UNL     1       2.243  14.670  18.842  0.00  0.00    +0.000 C 
ATOM     26  C   UNL     1       3.235  15.133  17.773  0.00  0.00    +0.000 C 
ATOM     27  C   UNL     1       1.073  15.659  18.893  0.00  0.00    +0.000 C 
ENDBRANCH  24  25
ENDBRANCH   4  24
BRANCH  12  28
ATOM     28  C   UNL     1      -2.054  13.121  22.213  0.00  0.00    +0.000 C 
BRANCH  28  29
ATOM     29  C   UNL     1      -3.382  13.791  21.807  0.00  0.00    +0.000 C 
BRANCH  29  30
ATOM     30  C   UNL     1      -4.526  13.387  22.708  0.00  0.00    +0.000 A 
ATOM     31  C   UNL     1      -4.268  12.767  23.939  0.00  0.00    +0.000 A 
ATOM     32  C   UNL     1      -5.319  12.301  24.729  0.00  0.00    +0.000 A 
ATOM     33  C   UNL     1      -6.635  12.458  24.298  0.00  0.00    +0.000 A 
ATOM     34  C   UNL     1      -6.902  13.108  23.094  0.00  0.00    +0.000 A 
ATOM     35  C   UNL     1      -5.853  13.577  22.304  0.00  0.00    +0.000 A 
ENDBRANCH  29  30
ENDBRANCH  28  29
ENDBRANCH  12  28
TORSDOF 8
ENDMDL
