MODEL 1
REMARK VINA RESULT:      -6.3      0.000      0.000
REMARK  Name = 
REMARK  14 active torsions:
REMARK  status: ('A' for Active; 'I' for Inactive)
REMARK    1  A    between atoms: N_1  and  C_2
REMARK    2  A    between atoms: C_2  and  C_3
REMARK    3  A    between atoms: C_2  and  C_5
REMARK    4  A    between atoms: C_2  and  C_7
REMARK    5  A    between atoms: C_3  and  O_4
REMARK    6  A    between atoms: C_5  and  O_6
REMARK    7  A    between atoms: C_7  and  C_8
REMARK    8  A    between atoms: C_8  and  C_9
REMARK    9  A    between atoms: C_12  and  C_13
REMARK   10  A    between atoms: C_13  and  C_14
REMARK   11  A    between atoms: C_14  and  C_15
REMARK   12  A    between atoms: C_15  and  C_16
REMARK   13  A    between atoms: C_16  and  C_17
REMARK   14  A    between atoms: C_17  and  C_18
REMARK                            x       y       z     vdW  Elec       q    Type
REMARK                         _______ _______ _______ _____ _____    ______ ____
ROOT
ATOM      1  C   UNL     1       4.583   6.559  17.601  0.00  0.00    +0.000 A 
ATOM      2  C   UNL     1       4.911   5.601  18.568  0.00  0.00    +0.000 A 
ATOM      3  C   UNL     1       4.022   5.311  19.597  0.00  0.00    +0.000 A 
ATOM      4  C   UNL     1       2.810   6.002  19.706  0.00  0.00    +0.000 A 
ATOM      5  C   UNL     1       2.502   6.994  18.769  0.00  0.00    +0.000 A 
ATOM      6  C   UNL     1       3.381   7.272  17.721  0.00  0.00    +0.000 A 
ENDROOT
BRANCH   1   7
ATOM      7  C   UNL     1       5.481   6.773  16.415  0.00  0.00    +0.000 C 
BRANCH   7   8
ATOM      8  C   UNL     1       5.259   5.655  15.379  0.00  0.00    +0.000 C 
BRANCH   8   9
ATOM      9  C   UNL     1       6.379   4.600  15.314  0.00  0.00    +0.000 C 
BRANCH   9  10
ATOM     10  N   UNL     1       5.859   3.319  15.858  0.00  0.00    +0.000 NA
ATOM     11  H   UNL     1       6.610   2.619  15.818  0.00  0.00    +0.000 HD
ATOM     12  H   UNL     1       5.171   2.944  15.209  0.00  0.00    +0.000 HD
ENDBRANCH   9  10
BRANCH   9  13
ATOM     13  C   UNL     1       7.609   5.064  16.134  0.00  0.00    +0.000 C 
BRANCH  13  14
ATOM     14  O   UNL     1       7.951   4.124  17.154  0.00  0.00    +0.000 OA
ATOM     15  H   UNL     1       8.928   4.100  17.173  0.00  0.00    +0.000 HD
ENDBRANCH  13  14
ENDBRANCH   9  13
BRANCH   9  16
ATOM     16  C   UNL     1       6.770   4.389  13.822  0.00  0.00    +0.000 C 
BRANCH  16  17
ATOM     17  O   UNL     1       6.246   3.167  13.302  0.00  0.00    +0.000 OA
ATOM     18  H   UNL     1       5.934   2.657  14.081  0.00  0.00    +0.000 HD
ENDBRANCH  16  17
ENDBRANCH   9  16
ENDBRANCH   8   9
ENDBRANCH   7   8
ENDBRANCH   1   7
BRANCH   4  19
ATOM     19  C   UNL     1       1.843   5.659  20.810  0.00  0.00    +0.000 C 
BRANCH  19  20
ATOM     20  C   UNL     1       2.126   4.275  21.390  0.00  0.00    +0.000 C 
BRANCH  20  21
ATOM     21  C   UNL     1       1.145   3.226  20.875  0.00  0.00    +0.000 C 
BRANCH  21  22
ATOM     22  C   UNL     1       1.847   2.329  19.858  0.00  0.00    +0.000 C 
BRANCH  22  23
ATOM     23  C   UNL     1       1.126   2.318  18.517  0.00  0.00    +0.000 C 
BRANCH  23  24
ATOM     24  C   UNL     1       1.404   3.594  17.743  0.00  0.00    +0.000 C 
ATOM     25  F   UNL     1       2.618   3.484  17.142  0.00  0.00    +0.000 F 
ENDBRANCH  23  24
ENDBRANCH  22  23
ENDBRANCH  21  22
ENDBRANCH  20  21
ENDBRANCH  19  20
ENDBRANCH   4  19
TORSDOF 14
ENDMDL
MODEL 2
REMARK VINA RESULT:      -6.2      1.162      1.203
REMARK  Name = 
REMARK  14 active torsions:
REMARK  status: ('A' for Active; 'I' for Inactive)
REMARK    1  A    between atoms: N_1  and  C_2
REMARK    2  A    between atoms: C_2  and  C_3
REMARK    3  A    between atoms: C_2  and  C_5
REMARK    4  A    between atoms: C_2  and  C_7
REMARK    5  A    between atoms: C_3  and  O_4
REMARK    6  A    between atoms: C_5  and  O_6
REMARK    7  A    between atoms: C_7  and  C_8
REMARK    8  A    between atoms: C_8  and  C_9
REMARK    9  A    between atoms: C_12  and  C_13
REMARK   10  A    between atoms: C_13  and  C_14
REMARK   11  A    between atoms: C_14  and  C_15
REMARK   12  A    between atoms: C_15  and  C_16
REMARK   13  A    between atoms: C_16  and  C_17
REMARK   14  A    between atoms: C_17  and  C_18
REMARK                            x       y       z     vdW  Elec       q    Type
REMARK                         _______ _______ _______ _____ _____    ______ ____
ROOT
ATOM      1  C   UNL     1       4.736   6.190  17.655  0.00  0.00    +0.000 A 
ATOM      2  C   UNL     1       5.069   5.377  18.746  0.00  0.00    +0.000 A 
ATOM      3  C   UNL     1       4.134   5.127  19.744  0.00  0.00    +0.000 A 
ATOM      4  C   UNL     1       2.866   5.716  19.695  0.00  0.00    +0.000 A 
ATOM      5  C   UNL     1       2.548   6.568  18.633  0.00  0.00    +0.000 A 
ATOM      6  C   UNL     1       3.476   6.804  17.616  0.00  0.00    +0.000 A 
ENDROOT
BRANCH   1   7
ATOM      7  C   UNL     1       5.697   6.349  16.511  0.00  0.00    +0.000 C 
BRANCH   7   8
ATOM      8  C   UNL     1       5.171   5.599  15.274  0.00  0.00    +0.000 C 
BRANCH   8   9
ATOM      9  C   UNL     1       6.044   4.417  14.813  0.00  0.00    +0.000 C 
BRANCH   9  10
ATOM     10  N   UNL     1       5.927   3.320  15.808  0.00  0.00    +0.000 NA
ATOM     11  H   UNL     1       5.729   2.445  15.308  0.00  0.00    +0.000 HD
ATOM     12  H   UNL     1       5.078   3.462  16.351  0.00  0.00    +0.000 HD
ENDBRANCH   9  10
BRANCH   9  13
ATOM     13  C   UNL     1       7.525   4.856  14.681  0.00  0.00    +0.000 C 
BRANCH  13  14
ATOM     14  O   UNL     1       7.766   5.546  13.454  0.00  0.00    +0.000 OA
ATOM     15  H   UNL     1       8.439   5.017  12.982  0.00  0.00    +0.000 HD
ENDBRANCH  13  14
ENDBRANCH   9  13
BRANCH   9  16
ATOM     16  C   UNL     1       5.505   3.911  13.443  0.00  0.00    +0.000 C 
BRANCH  16  17
ATOM     17  O   UNL     1       6.381   2.956  12.846  0.00  0.00    +0.000 OA
ATOM     18  H   UNL     1       6.442   3.205  11.898  0.00  0.00    +0.000 HD
ENDBRANCH  16  17
ENDBRANCH   9  16
ENDBRANCH   8   9
ENDBRANCH   7   8
ENDBRANCH   1   7
BRANCH   4  19
ATOM     19  C   UNL     1       1.853   5.414  20.769  0.00  0.00    +0.000 C 
BRANCH  19  20
ATOM     20  C   UNL     1       0.913   4.286  20.349  0.00  0.00    +0.000 C 
BRANCH  20  21
ATOM     21  C   UNL     1       1.358   2.934  20.900  0.00  0.00    +0.000 C 
BRANCH  21  22
ATOM     22  C   UNL     1       1.894   2.071  19.761  0.00  0.00    +0.000 C 
BRANCH  22  23
ATOM     23  C   UNL     1       1.416   2.562  18.401  0.00  0.00    +0.000 C 
BRANCH  23  24
ATOM     24  C   UNL     1       2.580   2.699  17.436  0.00  0.00    +0.000 C 
ATOM     25  F   UNL     1       3.718   2.311  18.069  0.00  0.00    +0.000 F 
ENDBRANCH  23  24
ENDBRANCH  22  23
ENDBRANCH  21  22
ENDBRANCH  20  21
ENDBRANCH  19  20
ENDBRANCH   4  19
TORSDOF 14
ENDMDL
MODEL 3
REMARK VINA RESULT:      -6.2      1.234      1.999
REMARK  Name = 
REMARK  14 active torsions:
REMARK  status: ('A' for Active; 'I' for Inactive)
REMARK    1  A    between atoms: N_1  and  C_2
REMARK    2  A    between atoms: C_2  and  C_3
REMARK    3  A    between atoms: C_2  and  C_5
REMARK    4  A    between atoms: C_2  and  C_7
REMARK    5  A    between atoms: C_3  and  O_4
REMARK    6  A    between atoms: C_5  and  O_6
REMARK    7  A    between atoms: C_7  and  C_8
REMARK    8  A    between atoms: C_8  and  C_9
REMARK    9  A    between atoms: C_12  and  C_13
REMARK   10  A    between atoms: C_13  and  C_14
REMARK   11  A    between atoms: C_14  and  C_15
REMARK   12  A    between atoms: C_15  and  C_16
REMARK   13  A    between atoms: C_16  and  C_17
REMARK   14  A    between atoms: C_17  and  C_18
REMARK                            x       y       z     vdW  Elec       q    Type
REMARK                         _______ _______ _______ _____ _____    ______ ____
ROOT
ATOM      1  C   UNL     1       4.432   6.531  17.776  0.00  0.00    +0.000 A 
ATOM      2  C   UNL     1       3.126   7.038  17.753  0.00  0.00    +0.000 A 
ATOM      3  C   UNL     1       2.220   6.684  18.746  0.00  0.00    +0.000 A 
ATOM      4  C   UNL     1       2.584   5.785  19.754  0.00  0.00    +0.000 A 
ATOM      5  C   UNL     1       3.871   5.239  19.751  0.00  0.00    +0.000 A 
ATOM      6  C   UNL     1       4.793   5.610  18.770  0.00  0.00    +0.000 A 
ENDROOT
BRANCH   1   7
ATOM      7  C   UNL     1       5.449   7.019  16.784  0.00  0.00    +0.000 C 
BRANCH   7   8
ATOM      8  C   UNL     1       5.479   6.086  15.560  0.00  0.00    +0.000 C 
BRANCH   8   9
ATOM      9  C   UNL     1       6.670   5.110  15.518  0.00  0.00    +0.000 C 
BRANCH   9  10
ATOM     10  N   UNL     1       7.557   5.489  14.387  0.00  0.00    +0.000 NA
ATOM     11  H   UNL     1       6.981   5.904  13.645  0.00  0.00    +0.000 HD
ATOM     12  H   UNL     1       7.906   4.640  13.949  0.00  0.00    +0.000 HD
ENDBRANCH   9  10
BRANCH   9  13
ATOM     13  C   UNL     1       6.171   3.654  15.336  0.00  0.00    +0.000 C 
BRANCH  13  14
ATOM     14  O   UNL     1       5.574   3.146  16.530  0.00  0.00    +0.000 OA
ATOM     15  H   UNL     1       6.054   2.319  16.733  0.00  0.00    +0.000 HD
ENDBRANCH  13  14
ENDBRANCH   9  13
BRANCH   9  16
ATOM     16  C   UNL     1       7.467   5.249  16.848  0.00  0.00    +0.000 C 
BRANCH  16  17
ATOM     17  O   UNL     1       8.163   4.048  17.179  0.00  0.00    +0.000 OA
ATOM     18  H   UNL     1       7.535   3.512  17.710  0.00  0.00    +0.000 HD
ENDBRANCH  16  17
ENDBRANCH   9  16
ENDBRANCH   8   9
ENDBRANCH   7   8
ENDBRANCH   1   7
BRANCH   4  19
ATOM     19  C   UNL     1       1.601   5.432  20.840  0.00  0.00    +0.000 C 
BRANCH  19  20
ATOM     20  C   UNL     1       1.514   3.921  21.046  0.00  0.00    +0.000 C 
BRANCH  20  21
ATOM     21  C   UNL     1       0.760   3.230  19.914  0.00  0.00    +0.000 C 
BRANCH  21  22
ATOM     22  C   UNL     1       1.451   1.913  19.571  0.00  0.00    +0.000 C 
BRANCH  22  23
ATOM     23  C   UNL     1       2.768   2.135  18.839  0.00  0.00    +0.000 C 
BRANCH  23  24
ATOM     24  C   UNL     1       2.532   2.373  17.359  0.00  0.00    +0.000 C 
ATOM     25  F   UNL     1       2.499   3.713  17.133  0.00  0.00    +0.000 F 
ENDBRANCH  23  24
ENDBRANCH  22  23
ENDBRANCH  21  22
ENDBRANCH  20  21
ENDBRANCH  19  20
ENDBRANCH   4  19
TORSDOF 14
ENDMDL
MODEL 4
REMARK VINA RESULT:      -6.1      1.285      2.246
REMARK  Name = 
REMARK  14 active torsions:
REMARK  status: ('A' for Active; 'I' for Inactive)
REMARK    1  A    between atoms: N_1  and  C_2
REMARK    2  A    between atoms: C_2  and  C_3
REMARK    3  A    between atoms: C_2  and  C_5
REMARK    4  A    between atoms: C_2  and  C_7
REMARK    5  A    between atoms: C_3  and  O_4
REMARK    6  A    between atoms: C_5  and  O_6
REMARK    7  A    between atoms: C_7  and  C_8
REMARK    8  A    between atoms: C_8  and  C_9
REMARK    9  A    between atoms: C_12  and  C_13
REMARK   10  A    between atoms: C_13  and  C_14
REMARK   11  A    between atoms: C_14  and  C_15
REMARK   12  A    between atoms: C_15  and  C_16
REMARK   13  A    between atoms: C_16  and  C_17
REMARK   14  A    between atoms: C_17  and  C_18
REMARK                            x       y       z     vdW  Elec       q    Type
REMARK                         _______ _______ _______ _____ _____    ______ ____
ROOT
ATOM      1  C   UNL     1       4.359   6.525  17.740  0.00  0.00    +0.000 A 
ATOM      2  C   UNL     1       3.096   7.126  17.818  0.00  0.00    +0.000 A 
ATOM      3  C   UNL     1       2.209   6.762  18.825  0.00  0.00    +0.000 A 
ATOM      4  C   UNL     1       2.547   5.764  19.745  0.00  0.00    +0.000 A 
ATOM      5  C   UNL     1       3.787   5.128  19.639  0.00  0.00    +0.000 A 
ATOM      6  C   UNL     1       4.691   5.505  18.644  0.00  0.00    +0.000 A 
ENDROOT
BRANCH   1   7
ATOM      7  C   UNL     1       5.367   7.014  16.738  0.00  0.00    +0.000 C 
BRANCH   7   8
ATOM      8  C   UNL     1       5.428   6.048  15.541  0.00  0.00    +0.000 C 
BRANCH   8   9
ATOM      9  C   UNL     1       6.647   5.107  15.528  0.00  0.00    +0.000 C 
BRANCH   9  10
ATOM     10  N   UNL     1       7.536   5.493  14.402  0.00  0.00    +0.000 NA
ATOM     11  H   UNL     1       7.680   4.671  13.803  0.00  0.00    +0.000 HD
ATOM     12  H   UNL     1       8.468   5.668  14.768  0.00  0.00    +0.000 HD
ENDBRANCH   9  10
BRANCH   9  13
ATOM     13  C   UNL     1       6.194   3.634  15.365  0.00  0.00    +0.000 C 
BRANCH  13  14
ATOM     14  O   UNL     1       6.203   3.226  13.996  0.00  0.00    +0.000 OA
ATOM     15  H   UNL     1       6.968   2.624  13.906  0.00  0.00    +0.000 HD
ENDBRANCH  13  14
ENDBRANCH   9  13
BRANCH   9  16
ATOM     16  C   UNL     1       7.424   5.290  16.865  0.00  0.00    +0.000 C 
BRANCH  16  17
ATOM     17  O   UNL     1       8.117   4.102  17.245  0.00  0.00    +0.000 OA
ATOM     18  H   UNL     1       7.421   3.437  17.440  0.00  0.00    +0.000 HD
ENDBRANCH  16  17
ENDBRANCH   9  16
ENDBRANCH   8   9
ENDBRANCH   7   8
ENDBRANCH   1   7
BRANCH   4  19
ATOM     19  C   UNL     1       1.587   5.400  20.848  0.00  0.00    +0.000 C 
BRANCH  19  20
ATOM     20  C   UNL     1       1.434   3.886  20.980  0.00  0.00    +0.000 C 
BRANCH  20  21
ATOM     21  C   UNL     1       0.765   3.269  19.756  0.00  0.00    +0.000 C 
BRANCH  21  22
ATOM     22  C   UNL     1       1.574   2.062  19.286  0.00  0.00    +0.000 C 
BRANCH  22  23
ATOM     23  C   UNL     1       2.152   2.272  17.893  0.00  0.00    +0.000 C 
BRANCH  23  24
ATOM     24  C   UNL     1       3.634   1.949  17.868  0.00  0.00    +0.000 C 
ATOM     25  F   UNL     1       3.825   0.732  18.442  0.00  0.00    +0.000 F 
ENDBRANCH  23  24
ENDBRANCH  22  23
ENDBRANCH  21  22
ENDBRANCH  20  21
ENDBRANCH  19  20
ENDBRANCH   4  19
TORSDOF 14
ENDMDL
MODEL 5
REMARK VINA RESULT:      -6.1      1.168      2.015
REMARK  Name = 
REMARK  14 active torsions:
REMARK  status: ('A' for Active; 'I' for Inactive)
REMARK    1  A    between atoms: N_1  and  C_2
REMARK    2  A    between atoms: C_2  and  C_3
REMARK    3  A    between atoms: C_2  and  C_5
REMARK    4  A    between atoms: C_2  and  C_7
REMARK    5  A    between atoms: C_3  and  O_4
REMARK    6  A    between atoms: C_5  and  O_6
REMARK    7  A    between atoms: C_7  and  C_8
REMARK    8  A    between atoms: C_8  and  C_9
REMARK    9  A    between atoms: C_12  and  C_13
REMARK   10  A    between atoms: C_13  and  C_14
REMARK   11  A    between atoms: C_14  and  C_15
REMARK   12  A    between atoms: C_15  and  C_16
REMARK   13  A    between atoms: C_16  and  C_17
REMARK   14  A    between atoms: C_17  and  C_18
REMARK                            x       y       z     vdW  Elec       q    Type
REMARK                         _______ _______ _______ _____ _____    ______ ____
ROOT
ATOM      1  C   UNL     1       4.591   6.379  17.619  0.00  0.00    +0.000 A 
ATOM      2  C   UNL     1       5.088   5.563  18.643  0.00  0.00    +0.000 A 
ATOM      3  C   UNL     1       4.259   5.170  19.689  0.00  0.00    +0.000 A 
ATOM      4  C   UNL     1       2.935   5.618  19.755  0.00  0.00    +0.000 A 
ATOM      5  C   UNL     1       2.452   6.472  18.759  0.00  0.00    +0.000 A 
ATOM      6  C   UNL     1       3.273   6.851  17.695  0.00  0.00    +0.000 A 
ENDROOT
BRANCH   1   7
ATOM      7  C   UNL     1       5.444   6.690  16.422  0.00  0.00    +0.000 C 
BRANCH   7   8
ATOM      8  C   UNL     1       5.273   5.594  15.355  0.00  0.00    +0.000 C 
BRANCH   8   9
ATOM      9  C   UNL     1       6.548   4.786  15.045  0.00  0.00    +0.000 C 
BRANCH   9  10
ATOM     10  N   UNL     1       7.693   5.726  14.936  0.00  0.00    +0.000 NA
ATOM     11  H   UNL     1       8.564   5.182  14.948  0.00  0.00    +0.000 HD
ATOM     12  H   UNL     1       7.756   6.265  15.797  0.00  0.00    +0.000 HD
ENDBRANCH   9  10
BRANCH   9  13
ATOM     13  C   UNL     1       6.381   3.998  13.721  0.00  0.00    +0.000 C 
BRANCH  13  14
ATOM     14  O   UNL     1       5.014   3.928  13.314  0.00  0.00    +0.000 OA
ATOM     15  H   UNL     1       4.989   4.292  12.408  0.00  0.00    +0.000 HD
ENDBRANCH  13  14
ENDBRANCH   9  13
BRANCH   9  16
ATOM     16  C   UNL     1       6.812   3.809  16.228  0.00  0.00    +0.000 C 
BRANCH  16  17
ATOM     17  O   UNL     1       8.001   4.146  16.941  0.00  0.00    +0.000 OA
ATOM     18  H   UNL     1       7.824   3.919  17.880  0.00  0.00    +0.000 HD
ENDBRANCH  16  17
ENDBRANCH   9  16
ENDBRANCH   8   9
ENDBRANCH   7   8
ENDBRANCH   1   7
BRANCH   4  19
ATOM     19  C   UNL     1       2.041   5.161  20.878  0.00  0.00    +0.000 C 
BRANCH  19  20
ATOM     20  C   UNL     1       0.883   4.311  20.360  0.00  0.00    +0.000 C 
BRANCH  20  21
ATOM     21  C   UNL     1       1.285   2.852  20.166  0.00  0.00    +0.000 C 
BRANCH  21  22
ATOM     22  C   UNL     1       0.905   2.402  18.757  0.00  0.00    +0.000 C 
BRANCH  22  23
ATOM     23  C   UNL     1       2.069   2.533  17.784  0.00  0.00    +0.000 C 
BRANCH  23  24
ATOM     24  C   UNL     1       3.295   1.808  18.307  0.00  0.00    +0.000 C 
ATOM     25  F   UNL     1       4.404   2.492  17.921  0.00  0.00    +0.000 F 
ENDBRANCH  23  24
ENDBRANCH  22  23
ENDBRANCH  21  22
ENDBRANCH  20  21
ENDBRANCH  19  20
ENDBRANCH   4  19
TORSDOF 14
ENDMDL
MODEL 6
REMARK VINA RESULT:      -5.8      2.382      3.502
REMARK  Name = 
REMARK  14 active torsions:
REMARK  status: ('A' for Active; 'I' for Inactive)
REMARK    1  A    between atoms: N_1  and  C_2
REMARK    2  A    between atoms: C_2  and  C_3
REMARK    3  A    between atoms: C_2  and  C_5
REMARK    4  A    between atoms: C_2  and  C_7
REMARK    5  A    between atoms: C_3  and  O_4
REMARK    6  A    between atoms: C_5  and  O_6
REMARK    7  A    between atoms: C_7  and  C_8
REMARK    8  A    between atoms: C_8  and  C_9
REMARK    9  A    between atoms: C_12  and  C_13
REMARK   10  A    between atoms: C_13  and  C_14
REMARK   11  A    between atoms: C_14  and  C_15
REMARK   12  A    between atoms: C_15  and  C_16
REMARK   13  A    between atoms: C_16  and  C_17
REMARK   14  A    between atoms: C_17  and  C_18
REMARK                            x       y       z     vdW  Elec       q    Type
REMARK                         _______ _______ _______ _____ _____    ______ ____
ROOT
ATOM      1  C   UNL     1       4.349   3.566  16.873  0.00  0.00    +0.000 A 
ATOM      2  C   UNL     1       4.399   2.379  17.614  0.00  0.00    +0.000 A 
ATOM      3  C   UNL     1       3.270   1.926  18.288  0.00  0.00    +0.000 A 
ATOM      4  C   UNL     1       2.085   2.669  18.271  0.00  0.00    +0.000 A 
ATOM      5  C   UNL     1       2.047   3.880  17.572  0.00  0.00    +0.000 A 
ATOM      6  C   UNL     1       3.171   4.328  16.875  0.00  0.00    +0.000 A 
ENDROOT
BRANCH   1   7
ATOM      7  C   UNL     1       5.525   3.984  16.035  0.00  0.00    +0.000 C 
BRANCH   7   8
ATOM      8  C   UNL     1       5.956   5.413  16.411  0.00  0.00    +0.000 C 
BRANCH   8   9
ATOM      9  C   UNL     1       6.942   5.504  17.590  0.00  0.00    +0.000 C 
BRANCH   9  10
ATOM     10  N   UNL     1       7.939   4.409  17.464  0.00  0.00    +0.000 NA
ATOM     11  H   UNL     1       7.733   3.696  18.173  0.00  0.00    +0.000 HD
ATOM     12  H   UNL     1       8.847   4.760  17.757  0.00  0.00    +0.000 HD
ENDBRANCH   9  10
BRANCH   9  13
ATOM     13  C   UNL     1       6.189   5.381  18.938  0.00  0.00    +0.000 C 
BRANCH  13  14
ATOM     14  O   UNL     1       7.088   5.194  20.033  0.00  0.00    +0.000 OA
ATOM     15  H   UNL     1       6.756   5.772  20.748  0.00  0.00    +0.000 HD
ENDBRANCH  13  14
ENDBRANCH   9  13
BRANCH   9  16
ATOM     16  C   UNL     1       7.686   6.869  17.506  0.00  0.00    +0.000 C 
BRANCH  16  17
ATOM     17  O   UNL     1       8.344   7.193  18.730  0.00  0.00    +0.000 OA
ATOM     18  H   UNL     1       9.203   7.593  18.474  0.00  0.00    +0.000 HD
ENDBRANCH  16  17
ENDBRANCH   9  16
ENDBRANCH   8   9
ENDBRANCH   7   8
ENDBRANCH   1   7
BRANCH   4  19
ATOM     19  C   UNL     1       0.861   2.153  18.982  0.00  0.00    +0.000 C 
BRANCH  19  20
ATOM     20  C   UNL     1       0.395   3.120  20.068  0.00  0.00    +0.000 C 
BRANCH  20  21
ATOM     21  C   UNL     1       1.331   3.123  21.273  0.00  0.00    +0.000 C 
BRANCH  21  22
ATOM     22  C   UNL     1       2.281   4.315  21.177  0.00  0.00    +0.000 C 
BRANCH  22  23
ATOM     23  C   UNL     1       1.560   5.583  20.738  0.00  0.00    +0.000 C 
BRANCH  23  24
ATOM     24  C   UNL     1       2.515   6.534  20.041  0.00  0.00    +0.000 C 
ATOM     25  F   UNL     1       2.054   6.770  18.784  0.00  0.00    +0.000 F 
ENDBRANCH  23  24
ENDBRANCH  22  23
ENDBRANCH  21  22
ENDBRANCH  20  21
ENDBRANCH  19  20
ENDBRANCH   4  19
TORSDOF 14
ENDMDL
MODEL 7
REMARK VINA RESULT:      -5.8      1.022      2.142
REMARK  Name = 
REMARK  14 active torsions:
REMARK  status: ('A' for Active; 'I' for Inactive)
REMARK    1  A    between atoms: N_1  and  C_2
REMARK    2  A    between atoms: C_2  and  C_3
REMARK    3  A    between atoms: C_2  and  C_5
REMARK    4  A    between atoms: C_2  and  C_7
REMARK    5  A    between atoms: C_3  and  O_4
REMARK    6  A    between atoms: C_5  and  O_6
REMARK    7  A    between atoms: C_7  and  C_8
REMARK    8  A    between atoms: C_8  and  C_9
REMARK    9  A    between atoms: C_12  and  C_13
REMARK   10  A    between atoms: C_13  and  C_14
REMARK   11  A    between atoms: C_14  and  C_15
REMARK   12  A    between atoms: C_15  and  C_16
REMARK   13  A    between atoms: C_16  and  C_17
REMARK   14  A    between atoms: C_17  and  C_18
REMARK                            x       y       z     vdW  Elec       q    Type
REMARK                         _______ _______ _______ _____ _____    ______ ____
ROOT
ATOM      1  C   UNL     1       4.595   6.345  17.393  0.00  0.00    +0.000 A 
ATOM      2  C   UNL     1       3.317   6.916  17.371  0.00  0.00    +0.000 A 
ATOM      3  C   UNL     1       2.444   6.721  18.436  0.00  0.00    +0.000 A 
ATOM      4  C   UNL     1       2.813   5.917  19.520  0.00  0.00    +0.000 A 
ATOM      5  C   UNL     1       4.070   5.305  19.521  0.00  0.00    +0.000 A 
ATOM      6  C   UNL     1       4.959   5.517  18.466  0.00  0.00    +0.000 A 
ENDROOT
BRANCH   1   7
ATOM      7  C   UNL     1       5.585   6.668  16.310  0.00  0.00    +0.000 C 
BRANCH   7   8
ATOM      8  C   UNL     1       5.388   5.715  15.117  0.00  0.00    +0.000 C 
BRANCH   8   9
ATOM      9  C   UNL     1       6.565   4.759  14.848  0.00  0.00    +0.000 C 
BRANCH   9  10
ATOM     10  N   UNL     1       7.805   5.563  14.691  0.00  0.00    +0.000 NA
ATOM     11  H   UNL     1       8.546   4.952  14.327  0.00  0.00    +0.000 HD
ATOM     12  H   UNL     1       8.153   5.809  15.615  0.00  0.00    +0.000 HD
ENDBRANCH   9  10
BRANCH   9  13
ATOM     13  C   UNL     1       6.307   3.928  13.567  0.00  0.00    +0.000 C 
BRANCH  13  14
ATOM     14  O   UNL     1       4.915   3.864  13.248  0.00  0.00    +0.000 OA
ATOM     15  H   UNL     1       4.873   3.747  12.278  0.00  0.00    +0.000 HD
ENDBRANCH  13  14
ENDBRANCH   9  13
BRANCH   9  16
ATOM     16  C   UNL     1       6.729   3.821  16.080  0.00  0.00    +0.000 C 
BRANCH  16  17
ATOM     17  O   UNL     1       7.900   4.132  16.834  0.00  0.00    +0.000 OA
ATOM     18  H   UNL     1       7.614   4.771  17.522  0.00  0.00    +0.000 HD
ENDBRANCH  16  17
ENDBRANCH   9  16
ENDBRANCH   8   9
ENDBRANCH   7   8
ENDBRANCH   1   7
BRANCH   4  19
ATOM     19  C   UNL     1       1.868   5.737  20.680  0.00  0.00    +0.000 C 
BRANCH  19  20
ATOM     20  C   UNL     1       2.204   4.483  21.485  0.00  0.00    +0.000 C 
BRANCH  20  21
ATOM     21  C   UNL     1       1.350   3.289  21.072  0.00  0.00    +0.000 C 
BRANCH  21  22
ATOM     22  C   UNL     1       2.241   2.214  20.454  0.00  0.00    +0.000 C 
BRANCH  22  23
ATOM     23  C   UNL     1       2.104   2.162  18.939  0.00  0.00    +0.000 C 
BRANCH  23  24
ATOM     24  C   UNL     1       0.790   2.777  18.493  0.00  0.00    +0.000 C 
ATOM     25  F   UNL     1       1.057   3.879  17.744  0.00  0.00    +0.000 F 
ENDBRANCH  23  24
ENDBRANCH  22  23
ENDBRANCH  21  22
ENDBRANCH  20  21
ENDBRANCH  19  20
ENDBRANCH   4  19
TORSDOF 14
ENDMDL
MODEL 8
REMARK VINA RESULT:      -5.7      1.323      1.788
REMARK  Name = 
REMARK  14 active torsions:
REMARK  status: ('A' for Active; 'I' for Inactive)
REMARK    1  A    between atoms: N_1  and  C_2
REMARK    2  A    between atoms: C_2  and  C_3
REMARK    3  A    between atoms: C_2  and  C_5
REMARK    4  A    between atoms: C_2  and  C_7
REMARK    5  A    between atoms: C_3  and  O_4
REMARK    6  A    between atoms: C_5  and  O_6
REMARK    7  A    between atoms: C_7  and  C_8
REMARK    8  A    between atoms: C_8  and  C_9
REMARK    9  A    between atoms: C_12  and  C_13
REMARK   10  A    between atoms: C_13  and  C_14
REMARK   11  A    between atoms: C_14  and  C_15
REMARK   12  A    between atoms: C_15  and  C_16
REMARK   13  A    between atoms: C_16  and  C_17
REMARK   14  A    between atoms: C_17  and  C_18
REMARK                            x       y       z     vdW  Elec       q    Type
REMARK                         _______ _______ _______ _____ _____    ______ ____
ROOT
ATOM      1  C   UNL     1       4.315   6.217  17.754  0.00  0.00    +0.000 A 
ATOM      2  C   UNL     1       2.920   6.345  17.712  0.00  0.00    +0.000 A 
ATOM      3  C   UNL     1       2.144   5.895  18.774  0.00  0.00    +0.000 A 
ATOM      4  C   UNL     1       2.738   5.269  19.875  0.00  0.00    +0.000 A 
ATOM      5  C   UNL     1       4.126   5.096  19.896  0.00  0.00    +0.000 A 
ATOM      6  C   UNL     1       4.912   5.567  18.844  0.00  0.00    +0.000 A 
ENDROOT
BRANCH   1   7
ATOM      7  C   UNL     1       5.161   6.826  16.672  0.00  0.00    +0.000 C 
BRANCH   7   8
ATOM      8  C   UNL     1       5.226   5.879  15.460  0.00  0.00    +0.000 C 
BRANCH   8   9
ATOM      9  C   UNL     1       6.359   4.837  15.512  0.00  0.00    +0.000 C 
BRANCH   9  10
ATOM     10  N   UNL     1       5.794   3.538  15.961  0.00  0.00    +0.000 NA
ATOM     11  H   UNL     1       5.889   2.859  15.197  0.00  0.00    +0.000 HD
ATOM     12  H   UNL     1       4.785   3.635  16.048  0.00  0.00    +0.000 HD
ENDBRANCH   9  10
BRANCH   9  13
ATOM     13  C   UNL     1       7.473   5.295  16.487  0.00  0.00    +0.000 C 
BRANCH  13  14
ATOM     14  O   UNL     1       7.829   6.663  16.279  0.00  0.00    +0.000 OA
ATOM     15  H   UNL     1       7.519   7.140  17.075  0.00  0.00    +0.000 HD
ENDBRANCH  13  14
ENDBRANCH   9  13
BRANCH   9  16
ATOM     16  C   UNL     1       6.934   4.663  14.075  0.00  0.00    +0.000 C 
BRANCH  16  17
ATOM     17  O   UNL     1       7.996   5.579  13.812  0.00  0.00    +0.000 OA
ATOM     18  H   UNL     1       8.359   5.828  14.690  0.00  0.00    +0.000 HD
ENDBRANCH  16  17
ENDBRANCH   9  16
ENDBRANCH   8   9
ENDBRANCH   7   8
ENDBRANCH   1   7
BRANCH   4  19
ATOM     19  C   UNL     1       1.888   4.811  21.031  0.00  0.00    +0.000 C 
BRANCH  19  20
ATOM     20  C   UNL     1       0.829   3.806  20.583  0.00  0.00    +0.000 C 
BRANCH  20  21
ATOM     21  C   UNL     1       1.447   2.499  20.096  0.00  0.00    +0.000 C 
BRANCH  21  22
ATOM     22  C   UNL     1       1.122   2.302  18.617  0.00  0.00    +0.000 C 
BRANCH  22  23
ATOM     23  C   UNL     1       2.377   2.286  17.756  0.00  0.00    +0.000 C 
BRANCH  23  24
ATOM     24  C   UNL     1       3.483   1.490  18.424  0.00  0.00    +0.000 C 
ATOM     25  F   UNL     1       4.496   2.337  18.746  0.00  0.00    +0.000 F 
ENDBRANCH  23  24
ENDBRANCH  22  23
ENDBRANCH  21  22
ENDBRANCH  20  21
ENDBRANCH  19  20
ENDBRANCH   4  19
TORSDOF 14
ENDMDL
MODEL 9
REMARK VINA RESULT:      -5.7      3.270      6.783
REMARK  Name = 
REMARK  14 active torsions:
REMARK  status: ('A' for Active; 'I' for Inactive)
REMARK    1  A    between atoms: N_1  and  C_2
REMARK    2  A    between atoms: C_2  and  C_3
REMARK    3  A    between atoms: C_2  and  C_5
REMARK    4  A    between atoms: C_2  and  C_7
REMARK    5  A    between atoms: C_3  and  O_4
REMARK    6  A    between atoms: C_5  and  O_6
REMARK    7  A    between atoms: C_7  and  C_8
REMARK    8  A    between atoms: C_8  and  C_9
REMARK    9  A    between atoms: C_12  and  C_13
REMARK   10  A    between atoms: C_13  and  C_14
REMARK   11  A    between atoms: C_14  and  C_15
REMARK   12  A    between atoms: C_15  and  C_16
REMARK   13  A    between atoms: C_16  and  C_17
REMARK   14  A    between atoms: C_17  and  C_18
REMARK                            x       y       z     vdW  Elec       q    Type
REMARK                         _______ _______ _______ _____ _____    ______ ____
ROOT
ATOM      1  C   UNL     1       4.353   5.272  18.825  0.00  0.00    +0.000 A 
ATOM      2  C   UNL     1       3.922   5.153  17.497  0.00  0.00    +0.000 A 
ATOM      3  C   UNL     1       4.847   4.968  16.475  0.00  0.00    +0.000 A 
ATOM      4  C   UNL     1       6.218   4.942  16.752  0.00  0.00    +0.000 A 
ATOM      5  C   UNL     1       6.653   5.110  18.070  0.00  0.00    +0.000 A 
ATOM      6  C   UNL     1       5.727   5.273  19.103  0.00  0.00    +0.000 A 
ENDROOT
BRANCH   1   7
ATOM      7  C   UNL     1       3.349   5.334  19.941  0.00  0.00    +0.000 C 
BRANCH   7   8
ATOM      8  C   UNL     1       2.059   4.602  19.529  0.00  0.00    +0.000 C 
BRANCH   8   9
ATOM      9  C   UNL     1       2.028   3.101  19.871  0.00  0.00    +0.000 C 
BRANCH   9  10
ATOM     10  N   UNL     1       3.418   2.641  20.126  0.00  0.00    +0.000 NA
ATOM     11  H   UNL     1       3.392   1.645  20.374  0.00  0.00    +0.000 HD
ATOM     12  H   UNL     1       3.752   3.075  20.983  0.00  0.00    +0.000 HD
ENDBRANCH   9  10
BRANCH   9  13
ATOM     13  C   UNL     1       1.409   2.292  18.703  0.00  0.00    +0.000 C 
BRANCH  13  14
ATOM     14  O   UNL     1       2.411   1.643  17.918  0.00  0.00    +0.000 OA
ATOM     15  H   UNL     1       2.187   1.843  16.988  0.00  0.00    +0.000 HD
ENDBRANCH  13  14
ENDBRANCH   9  13
BRANCH   9  16
ATOM     16  C   UNL     1       1.190   2.908  21.168  0.00  0.00    +0.000 C 
BRANCH  16  17
ATOM     17  O   UNL     1       2.003   2.962  22.340  0.00  0.00    +0.000 OA
ATOM     18  H   UNL     1       1.509   3.516  22.983  0.00  0.00    +0.000 HD
ENDBRANCH  16  17
ENDBRANCH   9  16
ENDBRANCH   8   9
ENDBRANCH   7   8
ENDBRANCH   1   7
BRANCH   4  19
ATOM     19  C   UNL     1       7.207   4.713  15.639  0.00  0.00    +0.000 C 
BRANCH  19  20
ATOM     20  C   UNL     1       6.507   4.563  14.290  0.00  0.00    +0.000 C 
BRANCH  20  21
ATOM     21  C   UNL     1       7.443   4.854  13.122  0.00  0.00    +0.000 C 
BRANCH  21  22
ATOM     22  C   UNL     1       7.035   4.008  11.918  0.00  0.00    +0.000 C 
BRANCH  22  23
ATOM     23  C   UNL     1       5.744   3.242  12.173  0.00  0.00    +0.000 C 
BRANCH  23  24
ATOM     24  C   UNL     1       5.775   1.888  11.487  0.00  0.00    +0.000 C 
ATOM     25  F   UNL     1       7.049   1.629  11.091  0.00  0.00    +0.000 F 
ENDBRANCH  23  24
ENDBRANCH  22  23
ENDBRANCH  21  22
ENDBRANCH  20  21
ENDBRANCH  19  20
ENDBRANCH   4  19
TORSDOF 14
ENDMDL
