MODEL 1
REMARK VINA RESULT:      -7.1      0.000      0.000
REMARK  Name = 
REMARK  10 active torsions:
REMARK  status: ('A' for Active; 'I' for Inactive)
REMARK    1  A    between atoms: C_1  and  C_2
REMARK    2  A    between atoms: C_2  and  C_3
REMARK    3  A    between atoms: C_3  and  C_4
REMARK    4  A    between atoms: N_6  and  C_7
REMARK    5  A    between atoms: C_10  and  C_11
REMARK    6  A    between atoms: N_13  and  C_14
REMARK    7  A    between atoms: C_14  and  C_15
REMARK    8  A    between atoms: C_15  and  O_17
REMARK    9  A    between atoms: O_17  and  C_18
REMARK   10  A    between atoms: C_18  and  C_19
REMARK                            x       y       z     vdW  Elec       q    Type
REMARK                         _______ _______ _______ _____ _____    ______ ____
ROOT
ATOM      1  C   UNL     1       4.537   4.297  18.370  0.00  0.00    +0.000 A 
ATOM      2  C   UNL     1       5.819   4.850  18.345  0.00  0.00    +0.000 A 
ATOM      3  C   UNL     1       6.542   4.930  17.154  0.00  0.00    +0.000 A 
ATOM      4  C   UNL     1       5.987   4.466  15.960  0.00  0.00    +0.000 A 
ATOM      5  C   UNL     1       4.715   3.882  15.978  0.00  0.00    +0.000 A 
ATOM      6  C   UNL     1       3.996   3.795  17.179  0.00  0.00    +0.000 A 
ENDROOT
BRANCH   1   9
ATOM      7  C   UNL     1       3.629   3.050  20.324  0.00  0.00    +0.000 C 
ATOM      8  O   UNL     1       4.244   1.997  20.185  0.00  0.00    +0.000 OA
ATOM      9  N   UNL     1       3.776   4.193  19.555  0.00  0.00    +0.000 N 
ATOM     10  H   UNL     1       3.365   5.046  19.908  0.00  0.00    +0.000 HD
BRANCH   7  11
ATOM     11  C   UNL     1       2.609   3.186  21.439  0.00  0.00    +0.000 C 
BRANCH  11  13
ATOM     12  C   UNL     1       0.820   2.782  19.676  0.00  0.00    +0.000 C 
ATOM     13  C   UNL     1       1.211   3.539  20.939  0.00  0.00    +0.000 C 
ENDBRANCH  11  13
ENDBRANCH   7  11
ENDBRANCH   1   9
BRANCH   4  14
ATOM     14  C   UNL     1       6.743   4.550  14.679  0.00  0.00    +0.000 C 
ATOM     15  O   UNL     1       7.701   5.303  14.564  0.00  0.00    +0.000 OA
ATOM     16  N   UNL     1       6.306   3.726  13.669  0.00  0.00    +0.000 N 
ATOM     17  H   UNL     1       5.639   2.985  13.857  0.00  0.00    +0.000 HD
BRANCH  16  18
ATOM     18  C   UNL     1       6.939   3.708  12.363  0.00  0.00    +0.000 C 
BRANCH  18  19
ATOM     19  C   UNL     1       6.558   2.428  11.642  0.00  0.00    +0.000 C 
ATOM     20  O   UNL     1       7.360   1.693  11.075  0.00  0.00    +0.000 OA
BRANCH  19  21
ATOM     21  O   UNL     1       5.205   2.276  11.642  0.00  0.00    +0.000 OA
BRANCH  21  22
ATOM     22  C   UNL     1       4.456   3.477  11.412  0.00  0.00    +0.000 C 
ATOM     23  C   UNL     1       3.288   3.129  10.505  0.00  0.00    +0.000 C 
ENDBRANCH  21  22
ENDBRANCH  19  21
ENDBRANCH  18  19
ENDBRANCH  16  18
ENDBRANCH   4  14
TORSDOF 8
ENDMDL
MODEL 2
REMARK VINA RESULT:      -7.1      2.818      3.157
REMARK  Name = 
REMARK  10 active torsions:
REMARK  status: ('A' for Active; 'I' for Inactive)
REMARK    1  A    between atoms: C_1  and  C_2
REMARK    2  A    between atoms: C_2  and  C_3
REMARK    3  A    between atoms: C_3  and  C_4
REMARK    4  A    between atoms: N_6  and  C_7
REMARK    5  A    between atoms: C_10  and  C_11
REMARK    6  A    between atoms: N_13  and  C_14
REMARK    7  A    between atoms: C_14  and  C_15
REMARK    8  A    between atoms: C_15  and  O_17
REMARK    9  A    between atoms: O_17  and  C_18
REMARK   10  A    between atoms: C_18  and  C_19
REMARK                            x       y       z     vdW  Elec       q    Type
REMARK                         _______ _______ _______ _____ _____    ______ ____
ROOT
ATOM      1  C   UNL     1       3.897   5.931  18.171  0.00  0.00    +0.000 A 
ATOM      2  C   UNL     1       3.712   4.713  17.513  0.00  0.00    +0.000 A 
ATOM      3  C   UNL     1       4.492   4.371  16.407  0.00  0.00    +0.000 A 
ATOM      4  C   UNL     1       5.480   5.242  15.945  0.00  0.00    +0.000 A 
ATOM      5  C   UNL     1       5.653   6.478  16.577  0.00  0.00    +0.000 A 
ATOM      6  C   UNL     1       4.861   6.822  17.683  0.00  0.00    +0.000 A 
ENDROOT
BRANCH   1   9
ATOM      7  C   UNL     1       2.291   7.420  19.357  0.00  0.00    +0.000 C 
ATOM      8  O   UNL     1       1.977   8.150  18.421  0.00  0.00    +0.000 OA
ATOM      9  N   UNL     1       3.126   6.316  19.290  0.00  0.00    +0.000 N 
ATOM     10  H   UNL     1       3.129   5.688  20.082  0.00  0.00    +0.000 HD
BRANCH   7  11
ATOM     11  C   UNL     1       1.731   7.685  20.741  0.00  0.00    +0.000 C 
BRANCH  11  13
ATOM     12  C   UNL     1      -0.268   8.898  21.743  0.00  0.00    +0.000 C 
ATOM     13  C   UNL     1       0.953   8.995  20.838  0.00  0.00    +0.000 C 
ENDBRANCH  11  13
ENDBRANCH   7  11
ENDBRANCH   1   9
BRANCH   4  14
ATOM     14  C   UNL     1       6.324   4.889  14.769  0.00  0.00    +0.000 C 
ATOM     15  O   UNL     1       7.461   5.326  14.659  0.00  0.00    +0.000 OA
ATOM     16  N   UNL     1       5.749   4.043  13.850  0.00  0.00    +0.000 N 
ATOM     17  H   UNL     1       4.888   3.552  14.066  0.00  0.00    +0.000 HD
BRANCH  16  18
ATOM     18  C   UNL     1       6.448   3.621  12.651  0.00  0.00    +0.000 C 
BRANCH  18  19
ATOM     19  C   UNL     1       5.527   2.750  11.816  0.00  0.00    +0.000 C 
ATOM     20  O   UNL     1       5.881   1.726  11.242  0.00  0.00    +0.000 OA
BRANCH  19  21
ATOM     21  O   UNL     1       4.295   3.322  11.729  0.00  0.00    +0.000 OA
BRANCH  21  22
ATOM     22  C   UNL     1       3.505   2.903  10.608  0.00  0.00    +0.000 C 
ATOM     23  C   UNL     1       3.083   4.148   9.846  0.00  0.00    +0.000 C 
ENDBRANCH  21  22
ENDBRANCH  19  21
ENDBRANCH  18  19
ENDBRANCH  16  18
ENDBRANCH   4  14
TORSDOF 8
ENDMDL
MODEL 3
REMARK VINA RESULT:      -6.9      1.176      1.217
REMARK  Name = 
REMARK  10 active torsions:
REMARK  status: ('A' for Active; 'I' for Inactive)
REMARK    1  A    between atoms: C_1  and  C_2
REMARK    2  A    between atoms: C_2  and  C_3
REMARK    3  A    between atoms: C_3  and  C_4
REMARK    4  A    between atoms: N_6  and  C_7
REMARK    5  A    between atoms: C_10  and  C_11
REMARK    6  A    between atoms: N_13  and  C_14
REMARK    7  A    between atoms: C_14  and  C_15
REMARK    8  A    between atoms: C_15  and  O_17
REMARK    9  A    between atoms: O_17  and  C_18
REMARK   10  A    between atoms: C_18  and  C_19
REMARK                            x       y       z     vdW  Elec       q    Type
REMARK                         _______ _______ _______ _____ _____    ______ ____
ROOT
ATOM      1  C   UNL     1       4.569   4.267  18.281  0.00  0.00    +0.000 A 
ATOM      2  C   UNL     1       5.885   4.733  18.258  0.00  0.00    +0.000 A 
ATOM      3  C   UNL     1       6.594   4.821  17.059  0.00  0.00    +0.000 A 
ATOM      4  C   UNL     1       5.991   4.453  15.855  0.00  0.00    +0.000 A 
ATOM      5  C   UNL     1       4.683   3.956  15.869  0.00  0.00    +0.000 A 
ATOM      6  C   UNL     1       3.977   3.859  17.078  0.00  0.00    +0.000 A 
ENDROOT
BRANCH   1   9
ATOM      7  C   UNL     1       2.923   5.098  19.955  0.00  0.00    +0.000 C 
ATOM      8  O   UNL     1       2.527   6.096  19.360  0.00  0.00    +0.000 OA
ATOM      9  N   UNL     1       3.821   4.158  19.473  0.00  0.00    +0.000 N 
ATOM     10  H   UNL     1       3.894   3.285  19.978  0.00  0.00    +0.000 HD
BRANCH   7  11
ATOM     11  C   UNL     1       2.404   4.795  21.348  0.00  0.00    +0.000 C 
BRANCH  11  13
ATOM     12  C   UNL     1       1.048   2.699  20.858  0.00  0.00    +0.000 C 
ATOM     13  C   UNL     1       2.225   3.302  21.614  0.00  0.00    +0.000 C 
ENDBRANCH  11  13
ENDBRANCH   7  11
ENDBRANCH   1   9
BRANCH   4  14
ATOM     14  C   UNL     1       6.731   4.548  14.566  0.00  0.00    +0.000 C 
ATOM     15  O   UNL     1       7.680   5.309  14.442  0.00  0.00    +0.000 OA
ATOM     16  N   UNL     1       6.291   3.721  13.559  0.00  0.00    +0.000 N 
ATOM     17  H   UNL     1       5.633   2.973  13.753  0.00  0.00    +0.000 HD
BRANCH  16  18
ATOM     18  C   UNL     1       6.909   3.712  12.247  0.00  0.00    +0.000 C 
BRANCH  18  19
ATOM     19  C   UNL     1       6.601   2.395  11.559  0.00  0.00    +0.000 C 
ATOM     20  O   UNL     1       7.449   1.664  11.059  0.00  0.00    +0.000 OA
BRANCH  19  21
ATOM     21  O   UNL     1       5.254   2.201  11.502  0.00  0.00    +0.000 OA
BRANCH  21  22
ATOM     22  C   UNL     1       4.466   3.399  11.471  0.00  0.00    +0.000 C 
ATOM     23  C   UNL     1       3.332   3.182  10.484  0.00  0.00    +0.000 C 
ENDBRANCH  21  22
ENDBRANCH  19  21
ENDBRANCH  18  19
ENDBRANCH  16  18
ENDBRANCH   4  14
TORSDOF 8
ENDMDL
MODEL 4
REMARK VINA RESULT:      -6.9      2.117      7.716
REMARK  Name = 
REMARK  10 active torsions:
REMARK  status: ('A' for Active; 'I' for Inactive)
REMARK    1  A    between atoms: C_1  and  C_2
REMARK    2  A    between atoms: C_2  and  C_3
REMARK    3  A    between atoms: C_3  and  C_4
REMARK    4  A    between atoms: N_6  and  C_7
REMARK    5  A    between atoms: C_10  and  C_11
REMARK    6  A    between atoms: N_13  and  C_14
REMARK    7  A    between atoms: C_14  and  C_15
REMARK    8  A    between atoms: C_15  and  O_17
REMARK    9  A    between atoms: O_17  and  C_18
REMARK   10  A    between atoms: C_18  and  C_19
REMARK                            x       y       z     vdW  Elec       q    Type
REMARK                         _______ _______ _______ _____ _____    ______ ____
ROOT
ATOM      1  C   UNL     1       5.927   4.200  14.692  0.00  0.00    +0.000 A 
ATOM      2  C   UNL     1       5.804   5.587  14.805  0.00  0.00    +0.000 A 
ATOM      3  C   UNL     1       5.120   6.161  15.878  0.00  0.00    +0.000 A 
ATOM      4  C   UNL     1       4.555   5.353  16.867  0.00  0.00    +0.000 A 
ATOM      5  C   UNL     1       4.645   3.962  16.748  0.00  0.00    +0.000 A 
ATOM      6  C   UNL     1       5.325   3.389  15.662  0.00  0.00    +0.000 A 
ENDROOT
BRANCH   1   9
ATOM      7  C   UNL     1       6.030   3.170  12.427  0.00  0.00    +0.000 C 
ATOM      8  O   UNL     1       4.884   3.405  12.055  0.00  0.00    +0.000 OA
ATOM      9  N   UNL     1       6.605   3.582  13.619  0.00  0.00    +0.000 N 
ATOM     10  H   UNL     1       7.609   3.501  13.701  0.00  0.00    +0.000 HD
BRANCH   7  11
ATOM     11  C   UNL     1       6.964   2.375  11.536  0.00  0.00    +0.000 C 
BRANCH  11  13
ATOM     12  C   UNL     1       6.359  -0.094  11.451  0.00  0.00    +0.000 C 
ATOM     13  C   UNL     1       6.261   1.262  10.764  0.00  0.00    +0.000 C 
ENDBRANCH  11  13
ENDBRANCH   7  11
ENDBRANCH   1   9
BRANCH   4  14
ATOM     14  C   UNL     1       3.828   5.950  18.022  0.00  0.00    +0.000 C 
ATOM     15  O   UNL     1       3.429   7.105  17.982  0.00  0.00    +0.000 OA
ATOM     16  N   UNL     1       3.629   5.120  19.100  0.00  0.00    +0.000 N 
ATOM     17  H   UNL     1       3.801   4.123  19.024  0.00  0.00    +0.000 HD
BRANCH  16  18
ATOM     18  C   UNL     1       2.946   5.567  20.299  0.00  0.00    +0.000 C 
BRANCH  18  19
ATOM     19  C   UNL     1       2.037   4.459  20.799  0.00  0.00    +0.000 C 
ATOM     20  O   UNL     1       2.232   3.820  21.828  0.00  0.00    +0.000 OA
BRANCH  19  21
ATOM     21  O   UNL     1       1.045   4.226  19.897  0.00  0.00    +0.000 OA
BRANCH  21  22
ATOM     22  C   UNL     1       0.744   2.843  19.664  0.00  0.00    +0.000 C 
ATOM     23  C   UNL     1       1.579   2.380  18.481  0.00  0.00    +0.000 C 
ENDBRANCH  21  22
ENDBRANCH  19  21
ENDBRANCH  18  19
ENDBRANCH  16  18
ENDBRANCH   4  14
TORSDOF 8
ENDMDL
MODEL 5
REMARK VINA RESULT:      -6.8      5.641      7.905
REMARK  Name = 
REMARK  10 active torsions:
REMARK  status: ('A' for Active; 'I' for Inactive)
REMARK    1  A    between atoms: C_1  and  C_2
REMARK    2  A    between atoms: C_2  and  C_3
REMARK    3  A    between atoms: C_3  and  C_4
REMARK    4  A    between atoms: N_6  and  C_7
REMARK    5  A    between atoms: C_10  and  C_11
REMARK    6  A    between atoms: N_13  and  C_14
REMARK    7  A    between atoms: C_14  and  C_15
REMARK    8  A    between atoms: C_15  and  O_17
REMARK    9  A    between atoms: O_17  and  C_18
REMARK   10  A    between atoms: C_18  and  C_19
REMARK                            x       y       z     vdW  Elec       q    Type
REMARK                         _______ _______ _______ _____ _____    ______ ____
ROOT
ATOM      1  C   UNL     1       0.793   9.353  20.191  0.00  0.00    +0.000 A 
ATOM      2  C   UNL     1       1.267   9.409  18.878  0.00  0.00    +0.000 A 
ATOM      3  C   UNL     1       2.098   8.408  18.373  0.00  0.00    +0.000 A 
ATOM      4  C   UNL     1       2.462   7.324  19.173  0.00  0.00    +0.000 A 
ATOM      5  C   UNL     1       2.019   7.273  20.499  0.00  0.00    +0.000 A 
ATOM      6  C   UNL     1       1.192   8.286  21.006  0.00  0.00    +0.000 A 
ENDROOT
BRANCH   1   9
ATOM      7  C   UNL     1       0.373  11.571  21.242  0.00  0.00    +0.000 C 
ATOM      8  O   UNL     1       1.503  12.043  21.158  0.00  0.00    +0.000 OA
ATOM      9  N   UNL     1      -0.044  10.348  20.740  0.00  0.00    +0.000 N 
ATOM     10  H   UNL     1      -1.040  10.181  20.695  0.00  0.00    +0.000 HD
BRANCH   7  11
ATOM     11  C   UNL     1      -0.724  12.359  21.932  0.00  0.00    +0.000 C 
BRANCH  11  13
ATOM     12  C   UNL     1      -2.859  12.135  23.297  0.00  0.00    +0.000 C 
ATOM     13  C   UNL     1      -1.494  11.544  22.967  0.00  0.00    +0.000 C 
ENDBRANCH  11  13
ENDBRANCH   7  11
ENDBRANCH   1   9
BRANCH   4  14
ATOM     14  C   UNL     1       3.343   6.244  18.646  0.00  0.00    +0.000 C 
ATOM     15  O   UNL     1       3.466   6.066  17.443  0.00  0.00    +0.000 OA
ATOM     16  N   UNL     1       4.005   5.495  19.591  0.00  0.00    +0.000 N 
ATOM     17  H   UNL     1       4.029   5.791  20.561  0.00  0.00    +0.000 HD
BRANCH  16  18
ATOM     18  C   UNL     1       4.888   4.404  19.226  0.00  0.00    +0.000 C 
BRANCH  18  19
ATOM     19  C   UNL     1       4.235   3.086  19.602  0.00  0.00    +0.000 C 
ATOM     20  O   UNL     1       4.768   2.226  20.295  0.00  0.00    +0.000 OA
BRANCH  19  21
ATOM     21  O   UNL     1       3.027   2.970  18.983  0.00  0.00    +0.000 OA
BRANCH  21  22
ATOM     22  C   UNL     1       1.980   2.413  19.789  0.00  0.00    +0.000 C 
ATOM     23  C   UNL     1       1.048   3.546  20.185  0.00  0.00    +0.000 C 
ENDBRANCH  21  22
ENDBRANCH  19  21
ENDBRANCH  18  19
ENDBRANCH  16  18
ENDBRANCH   4  14
TORSDOF 8
ENDMDL
MODEL 6
REMARK VINA RESULT:      -6.8      5.836      7.695
REMARK  Name = 
REMARK  10 active torsions:
REMARK  status: ('A' for Active; 'I' for Inactive)
REMARK    1  A    between atoms: C_1  and  C_2
REMARK    2  A    between atoms: C_2  and  C_3
REMARK    3  A    between atoms: C_3  and  C_4
REMARK    4  A    between atoms: N_6  and  C_7
REMARK    5  A    between atoms: C_10  and  C_11
REMARK    6  A    between atoms: N_13  and  C_14
REMARK    7  A    between atoms: C_14  and  C_15
REMARK    8  A    between atoms: C_15  and  O_17
REMARK    9  A    between atoms: O_17  and  C_18
REMARK   10  A    between atoms: C_18  and  C_19
REMARK                            x       y       z     vdW  Elec       q    Type
REMARK                         _______ _______ _______ _____ _____    ______ ____
ROOT
ATOM      1  C   UNL     1       1.249   9.402  19.313  0.00  0.00    +0.000 A 
ATOM      2  C   UNL     1       1.325   8.469  20.349  0.00  0.00    +0.000 A 
ATOM      3  C   UNL     1       2.030   7.275  20.187  0.00  0.00    +0.000 A 
ATOM      4  C   UNL     1       2.682   6.998  18.984  0.00  0.00    +0.000 A 
ATOM      5  C   UNL     1       2.586   7.912  17.928  0.00  0.00    +0.000 A 
ATOM      6  C   UNL     1       1.869   9.107  18.092  0.00  0.00    +0.000 A 
ENDROOT
BRANCH   1   9
ATOM      7  C   UNL     1      -0.687  10.902  18.861  0.00  0.00    +0.000 C 
ATOM      8  O   UNL     1      -1.419  10.105  18.282  0.00  0.00    +0.000 OA
ATOM      9  N   UNL     1       0.542  10.618  19.435  0.00  0.00    +0.000 N 
ATOM     10  H   UNL     1       0.935  11.313  20.057  0.00  0.00    +0.000 HD
BRANCH   7  11
ATOM     11  C   UNL     1      -1.118  12.348  19.014  0.00  0.00    +0.000 C 
BRANCH  11  13
ATOM     12  C   UNL     1      -0.249  14.739  19.012  0.00  0.00    +0.000 C 
ATOM     13  C   UNL     1      -0.123  13.341  18.419  0.00  0.00    +0.000 C 
ENDBRANCH  11  13
ENDBRANCH   7  11
ENDBRANCH   1   9
BRANCH   4  14
ATOM     14  C   UNL     1       3.443   5.732  18.797  0.00  0.00    +0.000 C 
ATOM     15  O   UNL     1       4.265   5.366  19.626  0.00  0.00    +0.000 OA
ATOM     16  N   UNL     1       3.145   5.014  17.662  0.00  0.00    +0.000 N 
ATOM     17  H   UNL     1       2.331   5.245  17.102  0.00  0.00    +0.000 HD
BRANCH  16  18
ATOM     18  C   UNL     1       3.814   3.767  17.344  0.00  0.00    +0.000 C 
BRANCH  18  19
ATOM     19  C   UNL     1       2.953   2.606  17.809  0.00  0.00    +0.000 C 
ATOM     20  O   UNL     1       3.391   1.498  18.103  0.00  0.00    +0.000 OA
BRANCH  19  21
ATOM     21  O   UNL     1       1.637   2.951  17.759  0.00  0.00    +0.000 OA
BRANCH  21  22
ATOM     22  C   UNL     1       0.826   2.418  18.815  0.00  0.00    +0.000 C 
ATOM     23  C   UNL     1       0.958   3.343  20.012  0.00  0.00    +0.000 C 
ENDBRANCH  21  22
ENDBRANCH  19  21
ENDBRANCH  18  19
ENDBRANCH  16  18
ENDBRANCH   4  14
TORSDOF 8
ENDMDL
MODEL 7
REMARK VINA RESULT:      -6.8      4.388      9.164
REMARK  Name = 
REMARK  10 active torsions:
REMARK  status: ('A' for Active; 'I' for Inactive)
REMARK    1  A    between atoms: C_1  and  C_2
REMARK    2  A    between atoms: C_2  and  C_3
REMARK    3  A    between atoms: C_3  and  C_4
REMARK    4  A    between atoms: N_6  and  C_7
REMARK    5  A    between atoms: C_10  and  C_11
REMARK    6  A    between atoms: N_13  and  C_14
REMARK    7  A    between atoms: C_14  and  C_15
REMARK    8  A    between atoms: C_15  and  O_17
REMARK    9  A    between atoms: O_17  and  C_18
REMARK   10  A    between atoms: C_18  and  C_19
REMARK                            x       y       z     vdW  Elec       q    Type
REMARK                         _______ _______ _______ _____ _____    ______ ____
ROOT
ATOM      1  C   UNL     1       4.572   5.050  16.783  0.00  0.00    +0.000 A 
ATOM      2  C   UNL     1       4.165   4.077  17.700  0.00  0.00    +0.000 A 
ATOM      3  C   UNL     1       3.373   4.415  18.798  0.00  0.00    +0.000 A 
ATOM      4  C   UNL     1       2.965   5.736  18.993  0.00  0.00    +0.000 A 
ATOM      5  C   UNL     1       3.392   6.723  18.099  0.00  0.00    +0.000 A 
ATOM      6  C   UNL     1       4.196   6.381  17.002  0.00  0.00    +0.000 A 
ENDROOT
BRANCH   1   9
ATOM      7  C   UNL     1       6.725   5.047  15.532  0.00  0.00    +0.000 C 
ATOM      8  O   UNL     1       7.462   5.481  16.412  0.00  0.00    +0.000 OA
ATOM      9  N   UNL     1       5.378   4.749  15.663  0.00  0.00    +0.000 N 
ATOM     10  H   UNL     1       4.949   4.205  14.927  0.00  0.00    +0.000 HD
BRANCH   7  11
ATOM     11  C   UNL     1       7.285   4.768  14.150  0.00  0.00    +0.000 C 
BRANCH  11  13
ATOM     12  C   UNL     1       6.827   3.733  11.872  0.00  0.00    +0.000 C 
ATOM     13  C   UNL     1       6.440   3.784  13.344  0.00  0.00    +0.000 C 
ENDBRANCH  11  13
ENDBRANCH   7  11
ENDBRANCH   1   9
BRANCH   4  14
ATOM     14  C   UNL     1       2.114   6.111  20.157  0.00  0.00    +0.000 C 
ATOM     15  O   UNL     1       1.629   5.254  20.882  0.00  0.00    +0.000 OA
ATOM     16  N   UNL     1       1.936   7.460  20.360  0.00  0.00    +0.000 N 
ATOM     17  H   UNL     1       2.503   8.137  19.861  0.00  0.00    +0.000 HD
BRANCH  16  18
ATOM     18  C   UNL     1       1.124   7.973  21.448  0.00  0.00    +0.000 C 
BRANCH  18  19
ATOM     19  C   UNL     1       0.956   9.472  21.281  0.00  0.00    +0.000 C 
ATOM     20  O   UNL     1       0.961  10.050  20.199  0.00  0.00    +0.000 OA
BRANCH  19  21
ATOM     21  O   UNL     1       0.895  10.074  22.501  0.00  0.00    +0.000 OA
BRANCH  21  22
ATOM     22  C   UNL     1      -0.348   9.913  23.198  0.00  0.00    +0.000 C 
ATOM     23  C   UNL     1      -1.186  11.154  22.944  0.00  0.00    +0.000 C 
ENDBRANCH  21  22
ENDBRANCH  19  21
ENDBRANCH  18  19
ENDBRANCH  16  18
ENDBRANCH   4  14
TORSDOF 8
ENDMDL
MODEL 8
REMARK VINA RESULT:      -6.7      5.478      7.484
REMARK  Name = 
REMARK  10 active torsions:
REMARK  status: ('A' for Active; 'I' for Inactive)
REMARK    1  A    between atoms: C_1  and  C_2
REMARK    2  A    between atoms: C_2  and  C_3
REMARK    3  A    between atoms: C_3  and  C_4
REMARK    4  A    between atoms: N_6  and  C_7
REMARK    5  A    between atoms: C_10  and  C_11
REMARK    6  A    between atoms: N_13  and  C_14
REMARK    7  A    between atoms: C_14  and  C_15
REMARK    8  A    between atoms: C_15  and  O_17
REMARK    9  A    between atoms: O_17  and  C_18
REMARK   10  A    between atoms: C_18  and  C_19
REMARK                            x       y       z     vdW  Elec       q    Type
REMARK                         _______ _______ _______ _____ _____    ______ ____
ROOT
ATOM      1  C   UNL     1       0.922   9.414  19.467  0.00  0.00    +0.000 A 
ATOM      2  C   UNL     1       1.426   9.447  18.164  0.00  0.00    +0.000 A 
ATOM      3  C   UNL     1       2.274   8.442  17.698  0.00  0.00    +0.000 A 
ATOM      4  C   UNL     1       2.626   7.375  18.528  0.00  0.00    +0.000 A 
ATOM      5  C   UNL     1       2.152   7.347  19.844  0.00  0.00    +0.000 A 
ATOM      6  C   UNL     1       1.307   8.366  20.312  0.00  0.00    +0.000 A 
ENDROOT
BRANCH   1   9
ATOM      7  C   UNL     1       0.437  11.436  20.837  0.00  0.00    +0.000 C 
ATOM      8  O   UNL     1       1.582  11.720  21.175  0.00  0.00    +0.000 OA
ATOM      9  N   UNL     1       0.066  10.414  19.977  0.00  0.00    +0.000 N 
ATOM     10  H   UNL     1      -0.881  10.427  19.624  0.00  0.00    +0.000 HD
BRANCH   7  11
ATOM     11  C   UNL     1      -0.729  12.253  21.360  0.00  0.00    +0.000 C 
BRANCH  11  13
ATOM     12  C   UNL     1      -1.013  10.498  23.179  0.00  0.00    +0.000 C 
ATOM     13  C   UNL     1      -1.047  11.979  22.828  0.00  0.00    +0.000 C 
ENDBRANCH  11  13
ENDBRANCH   7  11
ENDBRANCH   1   9
BRANCH   4  14
ATOM     14  C   UNL     1       3.525   6.291  18.043  0.00  0.00    +0.000 C 
ATOM     15  O   UNL     1       4.726   6.484  17.912  0.00  0.00    +0.000 OA
ATOM     16  N   UNL     1       2.922   5.084  17.780  0.00  0.00    +0.000 N 
ATOM     17  H   UNL     1       1.969   4.905  18.080  0.00  0.00    +0.000 HD
BRANCH  16  18
ATOM     18  C   UNL     1       3.670   3.941  17.292  0.00  0.00    +0.000 C 
BRANCH  18  19
ATOM     19  C   UNL     1       3.512   2.788  18.267  0.00  0.00    +0.000 C 
ATOM     20  O   UNL     1       3.562   1.604  17.948  0.00  0.00    +0.000 OA
BRANCH  19  21
ATOM     21  O   UNL     1       3.220   3.263  19.509  0.00  0.00    +0.000 OA
BRANCH  21  22
ATOM     22  C   UNL     1       2.111   2.628  20.160  0.00  0.00    +0.000 C 
ATOM     23  C   UNL     1       1.128   3.713  20.564  0.00  0.00    +0.000 C 
ENDBRANCH  21  22
ENDBRANCH  19  21
ENDBRANCH  18  19
ENDBRANCH  16  18
ENDBRANCH   4  14
TORSDOF 8
ENDMDL
MODEL 9
REMARK VINA RESULT:      -6.7      5.771      7.669
REMARK  Name = 
REMARK  10 active torsions:
REMARK  status: ('A' for Active; 'I' for Inactive)
REMARK    1  A    between atoms: C_1  and  C_2
REMARK    2  A    between atoms: C_2  and  C_3
REMARK    3  A    between atoms: C_3  and  C_4
REMARK    4  A    between atoms: N_6  and  C_7
REMARK    5  A    between atoms: C_10  and  C_11
REMARK    6  A    between atoms: N_13  and  C_14
REMARK    7  A    between atoms: C_14  and  C_15
REMARK    8  A    between atoms: C_15  and  O_17
REMARK    9  A    between atoms: O_17  and  C_18
REMARK   10  A    between atoms: C_18  and  C_19
REMARK                            x       y       z     vdW  Elec       q    Type
REMARK                         _______ _______ _______ _____ _____    ______ ____
ROOT
ATOM      1  C   UNL     1       0.775   9.638  19.718  0.00  0.00    +0.000 A 
ATOM      2  C   UNL     1       1.169   9.752  18.382  0.00  0.00    +0.000 A 
ATOM      3  C   UNL     1       2.013   8.805  17.801  0.00  0.00    +0.000 A 
ATOM      4  C   UNL     1       2.472   7.717  18.545  0.00  0.00    +0.000 A 
ATOM      5  C   UNL     1       2.109   7.609  19.893  0.00  0.00    +0.000 A 
ATOM      6  C   UNL     1       1.268   8.569  20.476  0.00  0.00    +0.000 A 
ENDROOT
BRANCH   1   9
ATOM      7  C   UNL     1       0.339  11.642  21.130  0.00  0.00    +0.000 C 
ATOM      8  O   UNL     1       1.495  12.024  21.287  0.00  0.00    +0.000 OA
ATOM      9  N   UNL     1      -0.073  10.577  20.344  0.00  0.00    +0.000 N 
ATOM     10  H   UNL     1      -1.060  10.507  20.138  0.00  0.00    +0.000 HD
BRANCH   7  11
ATOM     11  C   UNL     1      -0.797  12.375  21.817  0.00  0.00    +0.000 C 
BRANCH  11  13
ATOM     12  C   UNL     1      -2.825  12.065  23.321  0.00  0.00    +0.000 C 
ATOM     13  C   UNL     1      -1.431  11.576  22.953  0.00  0.00    +0.000 C 
ENDBRANCH  11  13
ENDBRANCH   7  11
ENDBRANCH   1   9
BRANCH   4  14
ATOM     14  C   UNL     1       3.368   6.695  17.938  0.00  0.00    +0.000 C 
ATOM     15  O   UNL     1       4.175   7.003  17.071  0.00  0.00    +0.000 OA
ATOM     16  N   UNL     1       3.236   5.416  18.424  0.00  0.00    +0.000 N 
ATOM     17  H   UNL     1       2.701   5.235  19.267  0.00  0.00    +0.000 HD
BRANCH  16  18
ATOM     18  C   UNL     1       4.036   4.315  17.920  0.00  0.00    +0.000 C 
BRANCH  18  19
ATOM     19  C   UNL     1       4.790   3.676  19.072  0.00  0.00    +0.000 C 
ATOM     20  O   UNL     1       4.321   2.816  19.810  0.00  0.00    +0.000 OA
BRANCH  19  21
ATOM     21  O   UNL     1       6.011   4.263  19.213  0.00  0.00    +0.000 OA
BRANCH  21  22
ATOM     22  C   UNL     1       6.646   4.653  17.987  0.00  0.00    +0.000 C 
ATOM     23  C   UNL     1       7.556   5.831  18.292  0.00  0.00    +0.000 C 
ENDBRANCH  21  22
ENDBRANCH  19  21
ENDBRANCH  18  19
ENDBRANCH  16  18
ENDBRANCH   4  14
TORSDOF 8
ENDMDL
