MODEL 1
REMARK VINA RESULT:      -8.8      0.000      0.000
REMARK  Name = 
REMARK  7 active torsions:
REMARK  status: ('A' for Active; 'I' for Inactive)
REMARK    1  A    between atoms: C_1  and  C_2
REMARK    2  A    between atoms: C_2  and  C_3
REMARK    3  A    between atoms: N_10  and  C_11
REMARK    4  A    between atoms: C_15  and  O_16
REMARK    5  A    between atoms: O_16  and  C_17
REMARK    6  A    between atoms: C_17  and  C_18
REMARK    7  A    between atoms: C_22  and  N_23
REMARK                            x       y       z     vdW  Elec       q    Type
REMARK                         _______ _______ _______ _____ _____    ______ ____
ROOT
ATOM      1  C   UNL     1       5.186   4.674  18.382  0.00  0.00    +0.000 A 
ATOM      2  C   UNL     1       5.311   4.178  17.073  0.00  0.00    +0.000 A 
ATOM      3  C   UNL     1       6.365   4.543  16.234  0.00  0.00    +0.000 A 
ATOM      4  C   UNL     1       7.267   5.512  16.642  0.00  0.00    +0.000 A 
ATOM      5  C   UNL     1       7.096   6.134  17.876  0.00  0.00    +0.000 A 
ATOM      6  C   UNL     1       6.109   5.669  18.759  0.00  0.00    +0.000 A 
ENDROOT
BRANCH   1  16
ATOM      7  C   UNL     1       2.219   4.580  17.701  0.00  0.00    +0.000 C 
ATOM      8  C   UNL     1       2.801   4.859  19.102  0.00  0.00    +0.000 C 
ATOM      9  C   UNL     1       2.802   6.382  19.346  0.00  0.00    +0.000 C 
ATOM     10  N   UNL     1       1.789   4.387  20.054  0.00  0.00    +0.000 NA
ATOM     11  C   UNL     1       2.001   3.283  20.661  0.00  0.00    +0.000 C 
ATOM     12  N   UNL     1       1.072   2.847  21.549  0.00  0.00    +0.000 N 
ATOM     13  N   UNL     1       3.076   2.487  20.475  0.00  0.00    +0.000 NA
ATOM     14  C   UNL     1       4.083   2.971  19.817  0.00  0.00    +0.000 C 
ATOM     15  N   UNL     1       5.176   2.163  19.747  0.00  0.00    +0.000 N 
ATOM     16  N   UNL     1       4.140   4.221  19.236  0.00  0.00    +0.000 N 
ATOM     17  H   UNL     1       0.167   3.267  21.391  0.00  0.00    +0.000 HD
ATOM     18  H   UNL     1       1.066   1.841  21.641  0.00  0.00    +0.000 HD
ATOM     19  H   UNL     1       5.083   1.373  20.374  0.00  0.00    +0.000 HD
ATOM     20  H   UNL     1       6.055   2.649  19.865  0.00  0.00    +0.000 HD
ENDBRANCH   1  16
BRANCH   5  21
ATOM     21  O   UNL     1       7.833   7.212  18.294  0.00  0.00    +0.000 OA
BRANCH  21  22
ATOM     22  C   UNL     1       7.692   8.376  17.469  0.00  0.00    +0.000 C 
BRANCH  22  23
ATOM     23  C   UNL     1       8.366   9.554  18.123  0.00  0.00    +0.000 A 
ATOM     24  C   UNL     1       9.056   9.406  19.330  0.00  0.00    +0.000 A 
ATOM     25  C   UNL     1       9.726  10.493  19.889  0.00  0.00    +0.000 A 
ATOM     26  C   UNL     1       9.697  11.736  19.251  0.00  0.00    +0.000 A 
ATOM     27  C   UNL     1       8.973  11.916  18.072  0.00  0.00    +0.000 A 
ATOM     28  C   UNL     1       8.360  10.806  17.487  0.00  0.00    +0.000 A 
BRANCH  27  29
ATOM     29  N   UNL     1       9.054  13.125  17.368  0.00  0.00    +0.000 N 
ATOM     30  H   UNL     1       8.550  13.883  17.816  0.00  0.00    +0.000 HD
ATOM     31  H   UNL     1       8.810  13.033  16.387  0.00  0.00    +0.000 HD
ENDBRANCH  27  29
ENDBRANCH  22  23
ENDBRANCH  21  22
ENDBRANCH   5  21
TORSDOF 5
ENDMDL
MODEL 2
REMARK VINA RESULT:      -8.5      3.499      6.398
REMARK  Name = 
REMARK  7 active torsions:
REMARK  status: ('A' for Active; 'I' for Inactive)
REMARK    1  A    between atoms: C_1  and  C_2
REMARK    2  A    between atoms: C_2  and  C_3
REMARK    3  A    between atoms: N_10  and  C_11
REMARK    4  A    between atoms: C_15  and  O_16
REMARK    5  A    between atoms: O_16  and  C_17
REMARK    6  A    between atoms: C_17  and  C_18
REMARK    7  A    between atoms: C_22  and  N_23
REMARK                            x       y       z     vdW  Elec       q    Type
REMARK                         _______ _______ _______ _____ _____    ______ ____
ROOT
ATOM      1  C   UNL     1       5.126   4.559  18.607  0.00  0.00    +0.000 A 
ATOM      2  C   UNL     1       6.075   5.502  19.036  0.00  0.00    +0.000 A 
ATOM      3  C   UNL     1       7.054   6.017  18.184  0.00  0.00    +0.000 A 
ATOM      4  C   UNL     1       7.185   5.512  16.901  0.00  0.00    +0.000 A 
ATOM      5  C   UNL     1       6.356   4.474  16.483  0.00  0.00    +0.000 A 
ATOM      6  C   UNL     1       5.297   4.055  17.303  0.00  0.00    +0.000 A 
ENDROOT
BRANCH   1  16
ATOM      7  C   UNL     1       2.148   4.463  17.977  0.00  0.00    +0.000 C 
ATOM      8  C   UNL     1       2.753   4.753  19.366  0.00  0.00    +0.000 C 
ATOM      9  C   UNL     1       2.760   6.277  19.596  0.00  0.00    +0.000 C 
ATOM     10  N   UNL     1       1.757   4.290  20.338  0.00  0.00    +0.000 NA
ATOM     11  C   UNL     1       1.978   3.190  20.950  0.00  0.00    +0.000 C 
ATOM     12  N   UNL     1       1.064   2.763  21.857  0.00  0.00    +0.000 N 
ATOM     13  N   UNL     1       3.049   2.391  20.752  0.00  0.00    +0.000 NA
ATOM     14  C   UNL     1       4.045   2.869  20.074  0.00  0.00    +0.000 C 
ATOM     15  N   UNL     1       5.136   2.059  19.991  0.00  0.00    +0.000 N 
ATOM     16  N   UNL     1       4.094   4.114  19.482  0.00  0.00    +0.000 N 
ATOM     17  H   UNL     1       0.156   3.183  21.711  0.00  0.00    +0.000 HD
ATOM     18  H   UNL     1       1.059   1.758  21.957  0.00  0.00    +0.000 HD
ATOM     19  H   UNL     1       5.052   1.274  20.627  0.00  0.00    +0.000 HD
ATOM     20  H   UNL     1       6.017   2.545  20.091  0.00  0.00    +0.000 HD
ENDBRANCH   1  16
BRANCH   5  21
ATOM     21  O   UNL     1       6.517   3.801  15.299  0.00  0.00    +0.000 OA
BRANCH  21  22
ATOM     22  C   UNL     1       6.306   4.606  14.131  0.00  0.00    +0.000 C 
BRANCH  22  23
ATOM     23  C   UNL     1       5.730   3.764  13.024  0.00  0.00    +0.000 A 
ATOM     24  C   UNL     1       4.521   4.111  12.412  0.00  0.00    +0.000 A 
ATOM     25  C   UNL     1       4.034   3.355  11.348  0.00  0.00    +0.000 A 
ATOM     26  C   UNL     1       4.746   2.240  10.898  0.00  0.00    +0.000 A 
ATOM     27  C   UNL     1       5.930   1.849  11.525  0.00  0.00    +0.000 A 
ATOM     28  C   UNL     1       6.441   2.650  12.548  0.00  0.00    +0.000 A 
BRANCH  27  29
ATOM     29  N   UNL     1       6.707   0.812  10.989  0.00  0.00    +0.000 N 
ATOM     30  H   UNL     1       6.440   0.562  10.043  0.00  0.00    +0.000 HD
ATOM     31  H   UNL     1       6.763   0.001  11.597  0.00  0.00    +0.000 HD
ENDBRANCH  27  29
ENDBRANCH  22  23
ENDBRANCH  21  22
ENDBRANCH   5  21
TORSDOF 5
ENDMDL
MODEL 3
REMARK VINA RESULT:      -8.5      4.662      7.089
REMARK  Name = 
REMARK  7 active torsions:
REMARK  status: ('A' for Active; 'I' for Inactive)
REMARK    1  A    between atoms: C_1  and  C_2
REMARK    2  A    between atoms: C_2  and  C_3
REMARK    3  A    between atoms: N_10  and  C_11
REMARK    4  A    between atoms: C_15  and  O_16
REMARK    5  A    between atoms: O_16  and  C_17
REMARK    6  A    between atoms: C_17  and  C_18
REMARK    7  A    between atoms: C_22  and  N_23
REMARK                            x       y       z     vdW  Elec       q    Type
REMARK                         _______ _______ _______ _____ _____    ______ ____
ROOT
ATOM      1  C   UNL     1       2.708   6.379  19.381  0.00  0.00    +0.000 A 
ATOM      2  C   UNL     1       2.754   7.037  18.140  0.00  0.00    +0.000 A 
ATOM      3  C   UNL     1       2.248   8.325  17.958  0.00  0.00    +0.000 A 
ATOM      4  C   UNL     1       1.570   8.951  18.991  0.00  0.00    +0.000 A 
ATOM      5  C   UNL     1       1.376   8.276  20.193  0.00  0.00    +0.000 A 
ATOM      6  C   UNL     1       1.998   7.036  20.405  0.00  0.00    +0.000 A 
ENDROOT
BRANCH   1  16
ATOM      7  C   UNL     1       1.829   3.796  18.028  0.00  0.00    +0.000 C 
ATOM      8  C   UNL     1       2.423   3.898  19.447  0.00  0.00    +0.000 C 
ATOM      9  C   UNL     1       1.271   3.874  20.472  0.00  0.00    +0.000 C 
ATOM     10  N   UNL     1       3.090   2.614  19.691  0.00  0.00    +0.000 NA
ATOM     11  C   UNL     1       4.366   2.577  19.627  0.00  0.00    +0.000 C 
ATOM     12  N   UNL     1       4.988   1.393  19.862  0.00  0.00    +0.000 N 
ATOM     13  N   UNL     1       5.161   3.624  19.320  0.00  0.00    +0.000 NA
ATOM     14  C   UNL     1       4.631   4.807  19.316  0.00  0.00    +0.000 C 
ATOM     15  N   UNL     1       5.498   5.834  19.099  0.00  0.00    +0.000 N 
ATOM     16  N   UNL     1       3.303   5.096  19.549  0.00  0.00    +0.000 N 
ATOM     17  H   UNL     1       4.369   0.605  19.733  0.00  0.00    +0.000 HD
ATOM     18  H   UNL     1       5.876   1.322  19.385  0.00  0.00    +0.000 HD
ATOM     19  H   UNL     1       6.458   5.512  19.145  0.00  0.00    +0.000 HD
ATOM     20  H   UNL     1       5.333   6.643  19.683  0.00  0.00    +0.000 HD
ENDBRANCH   1  16
BRANCH   5  21
ATOM     21  O   UNL     1       0.582   8.744  21.209  0.00  0.00    +0.000 OA
BRANCH  21  22
ATOM     22  C   UNL     1       0.887  10.082  21.626  0.00  0.00    +0.000 C 
BRANCH  22  23
ATOM     23  C   UNL     1      -0.376  10.901  21.690  0.00  0.00    +0.000 A 
ATOM     24  C   UNL     1      -1.001  11.162  22.914  0.00  0.00    +0.000 A 
ATOM     25  C   UNL     1      -2.133  11.972  22.961  0.00  0.00    +0.000 A 
ATOM     26  C   UNL     1      -2.654  12.515  21.784  0.00  0.00    +0.000 A 
ATOM     27  C   UNL     1      -2.074  12.227  20.547  0.00  0.00    +0.000 A 
ATOM     28  C   UNL     1      -0.903  11.467  20.518  0.00  0.00    +0.000 A 
BRANCH  27  29
ATOM     29  N   UNL     1      -2.519  12.877  19.388  0.00  0.00    +0.000 N 
ATOM     30  H   UNL     1      -3.450  13.269  19.482  0.00  0.00    +0.000 HD
ATOM     31  H   UNL     1      -2.428  12.308  18.552  0.00  0.00    +0.000 HD
ENDBRANCH  27  29
ENDBRANCH  22  23
ENDBRANCH  21  22
ENDBRANCH   5  21
TORSDOF 5
ENDMDL
MODEL 4
REMARK VINA RESULT:      -8.4      4.583      6.554
REMARK  Name = 
REMARK  7 active torsions:
REMARK  status: ('A' for Active; 'I' for Inactive)
REMARK    1  A    between atoms: C_1  and  C_2
REMARK    2  A    between atoms: C_2  and  C_3
REMARK    3  A    between atoms: N_10  and  C_11
REMARK    4  A    between atoms: C_15  and  O_16
REMARK    5  A    between atoms: O_16  and  C_17
REMARK    6  A    between atoms: C_17  and  C_18
REMARK    7  A    between atoms: C_22  and  N_23
REMARK                            x       y       z     vdW  Elec       q    Type
REMARK                         _______ _______ _______ _____ _____    ______ ____
ROOT
ATOM      1  C   UNL     1       2.808   6.390  19.245  0.00  0.00    +0.000 A 
ATOM      2  C   UNL     1       2.717   6.893  17.936  0.00  0.00    +0.000 A 
ATOM      3  C   UNL     1       2.239   8.175  17.661  0.00  0.00    +0.000 A 
ATOM      4  C   UNL     1       1.725   8.953  18.685  0.00  0.00    +0.000 A 
ATOM      5  C   UNL     1       1.664   8.436  19.976  0.00  0.00    +0.000 A 
ATOM      6  C   UNL     1       2.262   7.199  20.261  0.00  0.00    +0.000 A 
ENDROOT
BRANCH   1  16
ATOM      7  C   UNL     1       1.882   3.751  18.039  0.00  0.00    +0.000 C 
ATOM      8  C   UNL     1       2.467   3.924  19.456  0.00  0.00    +0.000 C 
ATOM      9  C   UNL     1       1.306   3.986  20.469  0.00  0.00    +0.000 C 
ATOM     10  N   UNL     1       3.103   2.642  19.782  0.00  0.00    +0.000 NA
ATOM     11  C   UNL     1       4.378   2.573  19.733  0.00  0.00    +0.000 C 
ATOM     12  N   UNL     1       4.970   1.392  20.044  0.00  0.00    +0.000 N 
ATOM     13  N   UNL     1       5.199   3.582  19.372  0.00  0.00    +0.000 NA
ATOM     14  C   UNL     1       4.696   4.774  19.293  0.00  0.00    +0.000 C 
ATOM     15  N   UNL     1       5.588   5.766  19.024  0.00  0.00    +0.000 N 
ATOM     16  N   UNL     1       3.372   5.106  19.495  0.00  0.00    +0.000 N 
ATOM     17  H   UNL     1       4.335   0.611  19.956  0.00  0.00    +0.000 HD
ATOM     18  H   UNL     1       5.860   1.273  19.581  0.00  0.00    +0.000 HD
ATOM     19  H   UNL     1       6.540   5.427  19.099  0.00  0.00    +0.000 HD
ATOM     20  H   UNL     1       5.436   6.612  19.557  0.00  0.00    +0.000 HD
ENDBRANCH   1  16
BRANCH   5  21
ATOM     21  O   UNL     1       1.026   9.061  21.017  0.00  0.00    +0.000 OA
BRANCH  21  22
ATOM     22  C   UNL     1      -0.363   9.328  20.782  0.00  0.00    +0.000 C 
BRANCH  22  23
ATOM     23  C   UNL     1      -0.522  10.661  20.101  0.00  0.00    +0.000 A 
ATOM     24  C   UNL     1       0.067  11.813  20.632  0.00  0.00    +0.000 A 
ATOM     25  C   UNL     1      -0.039  13.027  19.957  0.00  0.00    +0.000 A 
ATOM     26  C   UNL     1      -0.746  13.098  18.754  0.00  0.00    +0.000 A 
ATOM     27  C   UNL     1      -1.383  11.971  18.232  0.00  0.00    +0.000 A 
ATOM     28  C   UNL     1      -1.216  10.748  18.883  0.00  0.00    +0.000 A 
BRANCH  27  29
ATOM     29  N   UNL     1      -1.977  12.017  16.963  0.00  0.00    +0.000 N 
ATOM     30  H   UNL     1      -2.825  12.574  16.939  0.00  0.00    +0.000 HD
ATOM     31  H   UNL     1      -2.114  11.099  16.554  0.00  0.00    +0.000 HD
ENDBRANCH  27  29
ENDBRANCH  22  23
ENDBRANCH  21  22
ENDBRANCH   5  21
TORSDOF 5
ENDMDL
MODEL 5
REMARK VINA RESULT:      -8.3      1.040      1.399
REMARK  Name = 
REMARK  7 active torsions:
REMARK  status: ('A' for Active; 'I' for Inactive)
REMARK    1  A    between atoms: C_1  and  C_2
REMARK    2  A    between atoms: C_2  and  C_3
REMARK    3  A    between atoms: N_10  and  C_11
REMARK    4  A    between atoms: C_15  and  O_16
REMARK    5  A    between atoms: O_16  and  C_17
REMARK    6  A    between atoms: C_17  and  C_18
REMARK    7  A    between atoms: C_22  and  N_23
REMARK                            x       y       z     vdW  Elec       q    Type
REMARK                         _______ _______ _______ _____ _____    ______ ____
ROOT
ATOM      1  C   UNL     1       4.877   4.867  17.962  0.00  0.00    +0.000 A 
ATOM      2  C   UNL     1       5.116   4.149  16.777  0.00  0.00    +0.000 A 
ATOM      3  C   UNL     1       6.088   4.536  15.853  0.00  0.00    +0.000 A 
ATOM      4  C   UNL     1       6.772   5.727  16.031  0.00  0.00    +0.000 A 
ATOM      5  C   UNL     1       6.463   6.541  17.117  0.00  0.00    +0.000 A 
ATOM      6  C   UNL     1       5.577   6.080  18.103  0.00  0.00    +0.000 A 
ENDROOT
BRANCH   1  16
ATOM      7  C   UNL     1       1.909   4.387  17.474  0.00  0.00    +0.000 C 
ATOM      8  C   UNL     1       2.524   4.874  18.802  0.00  0.00    +0.000 C 
ATOM      9  C   UNL     1       2.367   6.406  18.890  0.00  0.00    +0.000 C 
ATOM     10  N   UNL     1       1.619   4.402  19.856  0.00  0.00    +0.000 NA
ATOM     11  C   UNL     1       1.983   3.397  20.557  0.00  0.00    +0.000 C 
ATOM     12  N   UNL     1       1.153   2.964  21.539  0.00  0.00    +0.000 N 
ATOM     13  N   UNL     1       3.129   2.705  20.388  0.00  0.00    +0.000 NA
ATOM     14  C   UNL     1       4.042   3.220  19.625  0.00  0.00    +0.000 C 
ATOM     15  N   UNL     1       5.214   2.529  19.570  0.00  0.00    +0.000 N 
ATOM     16  N   UNL     1       3.932   4.399  18.919  0.00  0.00    +0.000 N 
ATOM     17  H   UNL     1       0.200   3.266  21.394  0.00  0.00    +0.000 HD
ATOM     18  H   UNL     1       1.264   1.978  21.732  0.00  0.00    +0.000 HD
ATOM     19  H   UNL     1       5.240   1.805  20.279  0.00  0.00    +0.000 HD
ATOM     20  H   UNL     1       6.038   3.115  19.586  0.00  0.00    +0.000 HD
ENDBRANCH   1  16
BRANCH   5  21
ATOM     21  O   UNL     1       6.964   7.806  17.287  0.00  0.00    +0.000 OA
BRANCH  21  22
ATOM     22  C   UNL     1       8.119   7.872  18.135  0.00  0.00    +0.000 C 
BRANCH  22  23
ATOM     23  C   UNL     1       8.509   9.309  18.361  0.00  0.00    +0.000 A 
ATOM     24  C   UNL     1       8.179  10.298  17.428  0.00  0.00    +0.000 A 
ATOM     25  C   UNL     1       8.493  11.631  17.683  0.00  0.00    +0.000 A 
ATOM     26  C   UNL     1       9.150  11.981  18.866  0.00  0.00    +0.000 A 
ATOM     27  C   UNL     1       9.531  11.004  19.787  0.00  0.00    +0.000 A 
ATOM     28  C   UNL     1       9.154   9.681  19.552  0.00  0.00    +0.000 A 
BRANCH  27  29
ATOM     29  N   UNL     1      10.069  11.372  21.028  0.00  0.00    +0.000 N 
ATOM     30  H   UNL     1       9.362  11.609  21.716  0.00  0.00    +0.000 HD
ATOM     31  H   UNL     1      10.785  12.088  20.955  0.00  0.00    +0.000 HD
ENDBRANCH  27  29
ENDBRANCH  22  23
ENDBRANCH  21  22
ENDBRANCH   5  21
TORSDOF 5
ENDMDL
MODEL 6
REMARK VINA RESULT:      -8.3      4.659      7.183
REMARK  Name = 
REMARK  7 active torsions:
REMARK  status: ('A' for Active; 'I' for Inactive)
REMARK    1  A    between atoms: C_1  and  C_2
REMARK    2  A    between atoms: C_2  and  C_3
REMARK    3  A    between atoms: N_10  and  C_11
REMARK    4  A    between atoms: C_15  and  O_16
REMARK    5  A    between atoms: O_16  and  C_17
REMARK    6  A    between atoms: C_17  and  C_18
REMARK    7  A    between atoms: C_22  and  N_23
REMARK                            x       y       z     vdW  Elec       q    Type
REMARK                         _______ _______ _______ _____ _____    ______ ____
ROOT
ATOM      1  C   UNL     1       2.628   6.344  19.437  0.00  0.00    +0.000 A 
ATOM      2  C   UNL     1       2.711   7.060  18.230  0.00  0.00    +0.000 A 
ATOM      3  C   UNL     1       2.192   8.348  18.089  0.00  0.00    +0.000 A 
ATOM      4  C   UNL     1       1.467   8.916  19.124  0.00  0.00    +0.000 A 
ATOM      5  C   UNL     1       1.238   8.182  20.286  0.00  0.00    +0.000 A 
ATOM      6  C   UNL     1       1.871   6.942  20.463  0.00  0.00    +0.000 A 
ENDROOT
BRANCH   1  16
ATOM      7  C   UNL     1       1.844   3.817  17.928  0.00  0.00    +0.000 C 
ATOM      8  C   UNL     1       2.381   3.859  19.373  0.00  0.00    +0.000 C 
ATOM      9  C   UNL     1       1.190   3.769  20.349  0.00  0.00    +0.000 C 
ATOM     10  N   UNL     1       3.058   2.574  19.582  0.00  0.00    +0.000 NA
ATOM     11  C   UNL     1       4.336   2.557  19.568  0.00  0.00    +0.000 C 
ATOM     12  N   UNL     1       4.966   1.373  19.770  0.00  0.00    +0.000 N 
ATOM     13  N   UNL     1       5.125   3.629  19.343  0.00  0.00    +0.000 NA
ATOM     14  C   UNL     1       4.578   4.804  19.375  0.00  0.00    +0.000 C 
ATOM     15  N   UNL     1       5.436   5.851  19.241  0.00  0.00    +0.000 N 
ATOM     16  N   UNL     1       3.237   5.063  19.567  0.00  0.00    +0.000 N 
ATOM     17  H   UNL     1       4.365   0.583  19.580  0.00  0.00    +0.000 HD
ATOM     18  H   UNL     1       5.873   1.337  19.327  0.00  0.00    +0.000 HD
ATOM     19  H   UNL     1       6.398   5.541  19.310  0.00  0.00    +0.000 HD
ATOM     20  H   UNL     1       5.236   6.629  19.856  0.00  0.00    +0.000 HD
ENDBRANCH   1  16
BRANCH   5  21
ATOM     21  O   UNL     1       0.400   8.591  21.291  0.00  0.00    +0.000 OA
BRANCH  21  22
ATOM     22  C   UNL     1       0.886   9.710  22.044  0.00  0.00    +0.000 C 
BRANCH  22  23
ATOM     23  C   UNL     1      -0.105  10.843  21.978  0.00  0.00    +0.000 A 
ATOM     24  C   UNL     1      -0.027  11.806  20.966  0.00  0.00    +0.000 A 
ATOM     25  C   UNL     1      -0.988  12.811  20.884  0.00  0.00    +0.000 A 
ATOM     26  C   UNL     1      -2.024  12.867  21.820  0.00  0.00    +0.000 A 
ATOM     27  C   UNL     1      -2.091  11.945  22.866  0.00  0.00    +0.000 A 
ATOM     28  C   UNL     1      -1.161  10.905  22.901  0.00  0.00    +0.000 A 
BRANCH  27  29
ATOM     29  N   UNL     1      -3.201  11.925  23.722  0.00  0.00    +0.000 N 
ATOM     30  H   UNL     1      -3.625  11.007  23.804  0.00  0.00    +0.000 HD
ATOM     31  H   UNL     1      -3.885  12.642  23.505  0.00  0.00    +0.000 HD
ENDBRANCH  27  29
ENDBRANCH  22  23
ENDBRANCH  21  22
ENDBRANCH   5  21
TORSDOF 5
ENDMDL
MODEL 7
REMARK VINA RESULT:      -8.3      3.515      6.367
REMARK  Name = 
REMARK  7 active torsions:
REMARK  status: ('A' for Active; 'I' for Inactive)
REMARK    1  A    between atoms: C_1  and  C_2
REMARK    2  A    between atoms: C_2  and  C_3
REMARK    3  A    between atoms: N_10  and  C_11
REMARK    4  A    between atoms: C_15  and  O_16
REMARK    5  A    between atoms: O_16  and  C_17
REMARK    6  A    between atoms: C_17  and  C_18
REMARK    7  A    between atoms: C_22  and  N_23
REMARK                            x       y       z     vdW  Elec       q    Type
REMARK                         _______ _______ _______ _____ _____    ______ ____
ROOT
ATOM      1  C   UNL     1       4.992   4.583  18.470  0.00  0.00    +0.000 A 
ATOM      2  C   UNL     1       5.869   5.627  18.809  0.00  0.00    +0.000 A 
ATOM      3  C   UNL     1       6.796   6.148  17.904  0.00  0.00    +0.000 A 
ATOM      4  C   UNL     1       6.954   5.556  16.662  0.00  0.00    +0.000 A 
ATOM      5  C   UNL     1       6.205   4.427  16.339  0.00  0.00    +0.000 A 
ATOM      6  C   UNL     1       5.190   3.993  17.206  0.00  0.00    +0.000 A 
ENDROOT
BRANCH   1  16
ATOM      7  C   UNL     1       1.993   4.419  17.967  0.00  0.00    +0.000 C 
ATOM      8  C   UNL     1       2.651   4.739  19.325  0.00  0.00    +0.000 C 
ATOM      9  C   UNL     1       2.635   6.267  19.536  0.00  0.00    +0.000 C 
ATOM     10  N   UNL     1       1.705   4.270  20.345  0.00  0.00    +0.000 NA
ATOM     11  C   UNL     1       1.975   3.183  20.961  0.00  0.00    +0.000 C 
ATOM     12  N   UNL     1       1.108   2.750  21.911  0.00  0.00    +0.000 N 
ATOM     13  N   UNL     1       3.053   2.404  20.728  0.00  0.00    +0.000 NA
ATOM     14  C   UNL     1       4.009   2.892  20.003  0.00  0.00    +0.000 C 
ATOM     15  N   UNL     1       5.112   2.103  19.884  0.00  0.00    +0.000 N 
ATOM     16  N   UNL     1       4.008   4.129  19.393  0.00  0.00    +0.000 N 
ATOM     17  H   UNL     1       0.187   3.150  21.798  0.00  0.00    +0.000 HD
ATOM     18  H   UNL     1       1.128   1.747  22.024  0.00  0.00    +0.000 HD
ATOM     19  H   UNL     1       5.071   1.325  20.533  0.00  0.00    +0.000 HD
ATOM     20  H   UNL     1       5.987   2.607  19.941  0.00  0.00    +0.000 HD
ENDBRANCH   1  16
BRANCH   5  21
ATOM     21  O   UNL     1       6.406   3.678  15.208  0.00  0.00    +0.000 OA
BRANCH  21  22
ATOM     22  C   UNL     1       6.499   4.447  14.002  0.00  0.00    +0.000 C 
BRANCH  22  23
ATOM     23  C   UNL     1       6.081   3.608  12.824  0.00  0.00    +0.000 A 
ATOM     24  C   UNL     1       6.950   2.662  12.270  0.00  0.00    +0.000 A 
ATOM     25  C   UNL     1       6.525   1.851  11.221  0.00  0.00    +0.000 A 
ATOM     26  C   UNL     1       5.232   1.991  10.709  0.00  0.00    +0.000 A 
ATOM     27  C   UNL     1       4.365   2.961  11.215  0.00  0.00    +0.000 A 
ATOM     28  C   UNL     1       4.779   3.723  12.308  0.00  0.00    +0.000 A 
BRANCH  27  29
ATOM     29  N   UNL     1       3.030   3.009  10.790  0.00  0.00    +0.000 N 
ATOM     30  H   UNL     1       2.840   3.777  10.156  0.00  0.00    +0.000 HD
ATOM     31  H   UNL     1       2.366   2.975  11.557  0.00  0.00    +0.000 HD
ENDBRANCH  27  29
ENDBRANCH  22  23
ENDBRANCH  21  22
ENDBRANCH   5  21
TORSDOF 5
ENDMDL
MODEL 8
REMARK VINA RESULT:      -8.1      4.611      6.564
REMARK  Name = 
REMARK  7 active torsions:
REMARK  status: ('A' for Active; 'I' for Inactive)
REMARK    1  A    between atoms: C_1  and  C_2
REMARK    2  A    between atoms: C_2  and  C_3
REMARK    3  A    between atoms: N_10  and  C_11
REMARK    4  A    between atoms: C_15  and  O_16
REMARK    5  A    between atoms: O_16  and  C_17
REMARK    6  A    between atoms: C_17  and  C_18
REMARK    7  A    between atoms: C_22  and  N_23
REMARK                            x       y       z     vdW  Elec       q    Type
REMARK                         _______ _______ _______ _____ _____    ______ ____
ROOT
ATOM      1  C   UNL     1       2.721   6.402  19.329  0.00  0.00    +0.000 A 
ATOM      2  C   UNL     1       2.621   6.967  18.046  0.00  0.00    +0.000 A 
ATOM      3  C   UNL     1       2.122   8.253  17.833  0.00  0.00    +0.000 A 
ATOM      4  C   UNL     1       1.595   8.972  18.893  0.00  0.00    +0.000 A 
ATOM      5  C   UNL     1       1.543   8.392  20.157  0.00  0.00    +0.000 A 
ATOM      6  C   UNL     1       2.161   7.152  20.382  0.00  0.00    +0.000 A 
ENDROOT
BRANCH   1  16
ATOM      7  C   UNL     1       1.835   3.809  18.000  0.00  0.00    +0.000 C 
ATOM      8  C   UNL     1       2.420   3.924  19.422  0.00  0.00    +0.000 C 
ATOM      9  C   UNL     1       1.260   3.919  20.439  0.00  0.00    +0.000 C 
ATOM     10  N   UNL     1       3.077   2.639  19.686  0.00  0.00    +0.000 NA
ATOM     11  C   UNL     1       4.353   2.592  19.633  0.00  0.00    +0.000 C 
ATOM     12  N   UNL     1       4.965   1.408  19.886  0.00  0.00    +0.000 N 
ATOM     13  N   UNL     1       5.157   3.631  19.319  0.00  0.00    +0.000 NA
ATOM     14  C   UNL     1       4.635   4.818  19.297  0.00  0.00    +0.000 C 
ATOM     15  N   UNL     1       5.510   5.836  19.074  0.00  0.00    +0.000 N 
ATOM     16  N   UNL     1       3.306   5.118  19.516  0.00  0.00    +0.000 N 
ATOM     17  H   UNL     1       4.342   0.622  19.762  0.00  0.00    +0.000 HD
ATOM     18  H   UNL     1       5.856   1.325  19.417  0.00  0.00    +0.000 HD
ATOM     19  H   UNL     1       6.467   5.508  19.131  0.00  0.00    +0.000 HD
ATOM     20  H   UNL     1       5.346   6.652  19.647  0.00  0.00    +0.000 HD
ENDBRANCH   1  16
BRANCH   5  21
ATOM     21  O   UNL     1       0.894   8.955  21.227  0.00  0.00    +0.000 OA
BRANCH  21  22
ATOM     22  C   UNL     1      -0.376   9.536  20.905  0.00  0.00    +0.000 C 
BRANCH  22  23
ATOM     23  C   UNL     1      -0.438  10.951  21.417  0.00  0.00    +0.000 A 
ATOM     24  C   UNL     1      -1.221  11.279  22.528  0.00  0.00    +0.000 A 
ATOM     25  C   UNL     1      -1.218  12.581  23.025  0.00  0.00    +0.000 A 
ATOM     26  C   UNL     1      -0.443  13.564  22.406  0.00  0.00    +0.000 A 
ATOM     27  C   UNL     1       0.308  13.269  21.267  0.00  0.00    +0.000 A 
ATOM     28  C   UNL     1       0.348  11.948  20.816  0.00  0.00    +0.000 A 
BRANCH  27  29
ATOM     29  N   UNL     1       1.184  14.222  20.729  0.00  0.00    +0.000 N 
ATOM     30  H   UNL     1       2.042  13.817  20.369  0.00  0.00    +0.000 HD
ATOM     31  H   UNL     1       1.364  14.998  21.358  0.00  0.00    +0.000 HD
ENDBRANCH  27  29
ENDBRANCH  22  23
ENDBRANCH  21  22
ENDBRANCH   5  21
TORSDOF 5
ENDMDL
MODEL 9
REMARK VINA RESULT:      -8.1      3.331      5.798
REMARK  Name = 
REMARK  7 active torsions:
REMARK  status: ('A' for Active; 'I' for Inactive)
REMARK    1  A    between atoms: C_1  and  C_2
REMARK    2  A    between atoms: C_2  and  C_3
REMARK    3  A    between atoms: N_10  and  C_11
REMARK    4  A    between atoms: C_15  and  O_16
REMARK    5  A    between atoms: O_16  and  C_17
REMARK    6  A    between atoms: C_17  and  C_18
REMARK    7  A    between atoms: C_22  and  N_23
REMARK                            x       y       z     vdW  Elec       q    Type
REMARK                         _______ _______ _______ _____ _____    ______ ____
ROOT
ATOM      1  C   UNL     1       5.069   5.106  18.759  0.00  0.00    +0.000 A 
ATOM      2  C   UNL     1       6.282   5.434  19.389  0.00  0.00    +0.000 A 
ATOM      3  C   UNL     1       7.319   6.087  18.720  0.00  0.00    +0.000 A 
ATOM      4  C   UNL     1       7.217   6.326  17.360  0.00  0.00    +0.000 A 
ATOM      5  C   UNL     1       6.091   5.888  16.667  0.00  0.00    +0.000 A 
ATOM      6  C   UNL     1       5.005   5.348  17.373  0.00  0.00    +0.000 A 
ENDROOT
BRANCH   1  16
ATOM      7  C   UNL     1       2.136   5.039  17.943  0.00  0.00    +0.000 C 
ATOM      8  C   UNL     1       2.653   5.129  19.393  0.00  0.00    +0.000 C 
ATOM      9  C   UNL     1       2.598   6.600  19.851  0.00  0.00    +0.000 C 
ATOM     10  N   UNL     1       1.618   4.501  20.223  0.00  0.00    +0.000 NA
ATOM     11  C   UNL     1       1.839   3.326  20.675  0.00  0.00    +0.000 C 
ATOM     12  N   UNL     1       0.889   2.746  21.450  0.00  0.00    +0.000 N 
ATOM     13  N   UNL     1       2.944   2.591  20.425  0.00  0.00    +0.000 NA
ATOM     14  C   UNL     1       3.961   3.189  19.888  0.00  0.00    +0.000 C 
ATOM     15  N   UNL     1       5.080   2.426  19.750  0.00  0.00    +0.000 N 
ATOM     16  N   UNL     1       4.004   4.510  19.493  0.00  0.00    +0.000 N 
ATOM     17  H   UNL     1      -0.021   3.162  21.315  0.00  0.00    +0.000 HD
ATOM     18  H   UNL     1       0.910   1.737  21.398  0.00  0.00    +0.000 HD
ATOM     19  H   UNL     1       4.985   1.552  20.254  0.00  0.00    +0.000 HD
ATOM     20  H   UNL     1       5.939   2.911  19.975  0.00  0.00    +0.000 HD
ENDBRANCH   1  16
BRANCH   5  21
ATOM     21  O   UNL     1       5.973   5.931  15.301  0.00  0.00    +0.000 OA
BRANCH  21  22
ATOM     22  C   UNL     1       5.217   4.848  14.742  0.00  0.00    +0.000 C 
BRANCH  22  23
ATOM     23  C   UNL     1       5.926   4.298  13.533  0.00  0.00    +0.000 A 
ATOM     24  C   UNL     1       7.035   4.955  12.989  0.00  0.00    +0.000 A 
ATOM     25  C   UNL     1       7.716   4.399  11.909  0.00  0.00    +0.000 A 
ATOM     26  C   UNL     1       7.284   3.190  11.357  0.00  0.00    +0.000 A 
ATOM     27  C   UNL     1       6.151   2.544  11.853  0.00  0.00    +0.000 A 
ATOM     28  C   UNL     1       5.515   3.076  12.976  0.00  0.00    +0.000 A 
BRANCH  27  29
ATOM     29  N   UNL     1       5.800   1.270  11.384  0.00  0.00    +0.000 N 
ATOM     30  H   UNL     1       6.592   0.740  11.036  0.00  0.00    +0.000 HD
ATOM     31  H   UNL     1       5.033   1.287  10.720  0.00  0.00    +0.000 HD
ENDBRANCH  27  29
ENDBRANCH  22  23
ENDBRANCH  21  22
ENDBRANCH   5  21
TORSDOF 5
ENDMDL
