MODEL 1
REMARK VINA RESULT:      -4.8      0.000      0.000
REMARK  Name = 
REMARK  2 active torsions:
REMARK  status: ('A' for Active; 'I' for Inactive)
REMARK    1  A    between atoms: N_2  and  N_3
REMARK    2  A    between atoms: N_6  and  N_7
REMARK                            x       y       z     vdW  Elec       q    Type
REMARK                         _______ _______ _______ _____ _____    ______ ____
ROOT
ATOM      1  N   UNL     1       6.775   5.475  15.618  0.00  0.00    +0.000 N 
ATOM      2  C   UNL     1       7.394   4.367  16.364  0.00  0.00    +0.000 C 
ATOM      3  C   UNL     1       7.514   4.706  17.859  0.00  0.00    +0.000 C 
ATOM      4  N   UNL     1       6.197   5.002  18.446  0.00  0.00    +0.000 N 
ATOM      5  C   UNL     1       5.555   6.103  17.697  0.00  0.00    +0.000 C 
ATOM      6  C   UNL     1       5.449   5.775  16.197  0.00  0.00    +0.000 C 
ENDROOT
BRANCH   1   8
ATOM      7  O   UNL     1       7.852   5.526  13.821  0.00  0.00    +0.000 OA
ATOM      8  N   UNL     1       6.755   5.255  14.323  0.00  0.00    +0.000 NA
ENDBRANCH   1   8
BRANCH   4   9
ATOM      9  N   UNL     1       6.265   5.206  19.742  0.00  0.00    +0.000 NA
ATOM     10  O   UNL     1       7.434   5.407  20.091  0.00  0.00    +0.000 OA
ENDBRANCH   4   9
TORSDOF 2
ENDMDL
MODEL 2
REMARK VINA RESULT:      -4.7      0.138      4.057
REMARK  Name = 
REMARK  2 active torsions:
REMARK  status: ('A' for Active; 'I' for Inactive)
REMARK    1  A    between atoms: N_2  and  N_3
REMARK    2  A    between atoms: N_6  and  N_7
REMARK                            x       y       z     vdW  Elec       q    Type
REMARK                         _______ _______ _______ _____ _____    ______ ____
ROOT
ATOM      1  N   UNL     1       6.256   4.926  18.532  0.00  0.00    +0.000 N 
ATOM      2  C   UNL     1       7.578   4.754  17.909  0.00  0.00    +0.000 C 
ATOM      3  C   UNL     1       7.446   4.465  16.404  0.00  0.00    +0.000 C 
ATOM      4  N   UNL     1       6.729   5.549  15.713  0.00  0.00    +0.000 N 
ATOM      5  C   UNL     1       5.404   5.744  16.339  0.00  0.00    +0.000 C 
ATOM      6  C   UNL     1       5.529   6.017  17.849  0.00  0.00    +0.000 C 
ENDROOT
BRANCH   1   8
ATOM      7  O   UNL     1       7.484   5.370  20.170  0.00  0.00    +0.000 OA
ATOM      8  N   UNL     1       6.333   5.070  19.836  0.00  0.00    +0.000 NA
ENDBRANCH   1   8
BRANCH   4   9
ATOM      9  N   UNL     1       6.684   5.366  14.413  0.00  0.00    +0.000 NA
ATOM     10  O   UNL     1       7.810   5.481  13.917  0.00  0.00    +0.000 OA
ENDBRANCH   4   9
TORSDOF 2
ENDMDL
MODEL 3
REMARK VINA RESULT:      -4.7      3.127      3.833
REMARK  Name = 
REMARK  2 active torsions:
REMARK  status: ('A' for Active; 'I' for Inactive)
REMARK    1  A    between atoms: N_2  and  N_3
REMARK    2  A    between atoms: N_6  and  N_7
REMARK                            x       y       z     vdW  Elec       q    Type
REMARK                         _______ _______ _______ _____ _____    ______ ____
ROOT
ATOM      1  N   UNL     1       3.435   4.845  17.875  0.00  0.00    +0.000 N 
ATOM      2  C   UNL     1       4.185   3.937  16.992  0.00  0.00    +0.000 C 
ATOM      3  C   UNL     1       5.660   4.360  16.887  0.00  0.00    +0.000 C 
ATOM      4  N   UNL     1       6.305   4.383  18.210  0.00  0.00    +0.000 N 
ATOM      5  C   UNL     1       5.553   5.280  19.113  0.00  0.00    +0.000 C 
ATOM      6  C   UNL     1       4.072   4.870  19.208  0.00  0.00    +0.000 C 
ENDROOT
BRANCH   1   8
ATOM      7  O   UNL     1       1.892   3.643  17.125  0.00  0.00    +0.000 OA
ATOM      8  N   UNL     1       2.151   4.568  17.901  0.00  0.00    +0.000 NA
ENDBRANCH   1   8
BRANCH   4   9
ATOM      9  N   UNL     1       7.587   4.655  18.132  0.00  0.00    +0.000 NA
ATOM     10  O   UNL     1       8.063   4.222  17.077  0.00  0.00    +0.000 OA
ENDBRANCH   4   9
TORSDOF 2
ENDMDL
MODEL 4
REMARK VINA RESULT:      -4.7      1.212      4.328
REMARK  Name = 
REMARK  2 active torsions:
REMARK  status: ('A' for Active; 'I' for Inactive)
REMARK    1  A    between atoms: N_2  and  N_3
REMARK    2  A    between atoms: N_6  and  N_7
REMARK                            x       y       z     vdW  Elec       q    Type
REMARK                         _______ _______ _______ _____ _____    ______ ____
ROOT
ATOM      1  N   UNL     1       6.244   4.972  18.426  0.00  0.00    +0.000 N 
ATOM      2  C   UNL     1       5.136   4.112  17.980  0.00  0.00    +0.000 C 
ATOM      3  C   UNL     1       4.899   4.253  16.467  0.00  0.00    +0.000 C 
ATOM      4  N   UNL     1       6.109   3.908  15.704  0.00  0.00    +0.000 N 
ATOM      5  C   UNL     1       7.236   4.754  16.151  0.00  0.00    +0.000 C 
ATOM      6  C   UNL     1       7.466   4.630  17.668  0.00  0.00    +0.000 C 
ENDROOT
BRANCH   1   8
ATOM      7  O   UNL     1       7.488   5.444  20.044  0.00  0.00    +0.000 OA
ATOM      8  N   UNL     1       6.400   4.951  19.730  0.00  0.00    +0.000 NA
ENDBRANCH   1   8
BRANCH   4   9
ATOM      9  N   UNL     1       5.903   3.935  14.407  0.00  0.00    +0.000 NA
ATOM     10  O   UNL     1       6.810   4.549  13.833  0.00  0.00    +0.000 OA
ENDBRANCH   4   9
TORSDOF 2
ENDMDL
MODEL 5
REMARK VINA RESULT:      -4.7      1.213      1.733
REMARK  Name = 
REMARK  2 active torsions:
REMARK  status: ('A' for Active; 'I' for Inactive)
REMARK    1  A    between atoms: N_2  and  N_3
REMARK    2  A    between atoms: N_6  and  N_7
REMARK                            x       y       z     vdW  Elec       q    Type
REMARK                         _______ _______ _______ _____ _____    ______ ____
ROOT
ATOM      1  N   UNL     1       6.104   3.892  15.757  0.00  0.00    +0.000 N 
ATOM      2  C   UNL     1       4.884   4.278  16.485  0.00  0.00    +0.000 C 
ATOM      3  C   UNL     1       5.098   4.194  18.006  0.00  0.00    +0.000 C 
ATOM      4  N   UNL     1       6.208   5.059  18.437  0.00  0.00    +0.000 N 
ATOM      5  C   UNL     1       7.437   4.693  17.702  0.00  0.00    +0.000 C 
ATOM      6  C   UNL     1       7.223   4.759  16.179  0.00  0.00    +0.000 C 
ENDROOT
BRANCH   1   8
ATOM      7  O   UNL     1       6.809   4.481  13.874  0.00  0.00    +0.000 OA
ATOM      8  N   UNL     1       5.918   3.854  14.457  0.00  0.00    +0.000 NA
ENDBRANCH   1   8
BRANCH   4   9
ATOM      9  N   UNL     1       6.350   5.071  19.743  0.00  0.00    +0.000 NA
ATOM     10  O   UNL     1       7.506   5.377  20.054  0.00  0.00    +0.000 OA
ENDBRANCH   4   9
TORSDOF 2
ENDMDL
MODEL 6
REMARK VINA RESULT:      -4.6      3.457      4.554
REMARK  Name = 
REMARK  2 active torsions:
REMARK  status: ('A' for Active; 'I' for Inactive)
REMARK    1  A    between atoms: N_2  and  N_3
REMARK    2  A    between atoms: N_6  and  N_7
REMARK                            x       y       z     vdW  Elec       q    Type
REMARK                         _______ _______ _______ _____ _____    ______ ____
ROOT
ATOM      1  N   UNL     1       5.158   5.062  19.299  0.00  0.00    +0.000 N 
ATOM      2  C   UNL     1       4.727   3.658  19.199  0.00  0.00    +0.000 C 
ATOM      3  C   UNL     1       3.206   3.560  18.993  0.00  0.00    +0.000 C 
ATOM      4  N   UNL     1       2.785   4.277  17.779  0.00  0.00    +0.000 N 
ATOM      5  C   UNL     1       3.224   5.686  17.857  0.00  0.00    +0.000 C 
ATOM      6  C   UNL     1       4.744   5.790  18.081  0.00  0.00    +0.000 C 
ENDROOT
BRANCH   1   8
ATOM      7  O   UNL     1       7.119   4.604  18.721  0.00  0.00    +0.000 OA
ATOM      8  N   UNL     1       6.436   5.173  19.580  0.00  0.00    +0.000 NA
ENDBRANCH   1   8
BRANCH   4   9
ATOM      9  N   UNL     1       1.502   4.131  17.535  0.00  0.00    +0.000 NA
ATOM     10  O   UNL     1       1.084   3.074  18.019  0.00  0.00    +0.000 OA
ENDBRANCH   4   9
TORSDOF 2
ENDMDL
MODEL 7
REMARK VINA RESULT:      -4.5      3.497      4.282
REMARK  Name = 
REMARK  2 active torsions:
REMARK  status: ('A' for Active; 'I' for Inactive)
REMARK    1  A    between atoms: N_2  and  N_3
REMARK    2  A    between atoms: N_6  and  N_7
REMARK                            x       y       z     vdW  Elec       q    Type
REMARK                         _______ _______ _______ _____ _____    ______ ____
ROOT
ATOM      1  N   UNL     1       2.725   4.082  17.793  0.00  0.00    +0.000 N 
ATOM      2  C   UNL     1       3.167   3.506  19.074  0.00  0.00    +0.000 C 
ATOM      3  C   UNL     1       4.700   3.390  19.129  0.00  0.00    +0.000 C 
ATOM      4  N   UNL     1       5.341   4.702  18.949  0.00  0.00    +0.000 N 
ATOM      5  C   UNL     1       4.895   5.301  17.673  0.00  0.00    +0.000 C 
ATOM      6  C   UNL     1       3.360   5.404  17.605  0.00  0.00    +0.000 C 
ENDROOT
BRANCH   1   8
ATOM      7  O   UNL     1       0.934   3.039  18.095  0.00  0.00    +0.000 OA
ATOM      8  N   UNL     1       1.417   4.096  17.677  0.00  0.00    +0.000 NA
ENDBRANCH   1   8
BRANCH   4   9
ATOM      9  N   UNL     1       6.646   4.640  19.082  0.00  0.00    +0.000 NA
ATOM     10  O   UNL     1       7.030   5.399  19.978  0.00  0.00    +0.000 OA
ENDBRANCH   4   9
TORSDOF 2
ENDMDL
MODEL 8
REMARK VINA RESULT:      -4.5      2.985      3.290
REMARK  Name = 
REMARK  2 active torsions:
REMARK  status: ('A' for Active; 'I' for Inactive)
REMARK    1  A    between atoms: N_2  and  N_3
REMARK    2  A    between atoms: N_6  and  N_7
REMARK                            x       y       z     vdW  Elec       q    Type
REMARK                         _______ _______ _______ _____ _____    ______ ____
ROOT
ATOM      1  N   UNL     1       6.297   4.668  17.184  0.00  0.00    +0.000 N 
ATOM      2  C   UNL     1       5.332   3.982  16.309  0.00  0.00    +0.000 C 
ATOM      3  C   UNL     1       4.014   3.703  17.050  0.00  0.00    +0.000 C 
ATOM      4  N   UNL     1       3.408   4.948  17.547  0.00  0.00    +0.000 N 
ATOM      5  C   UNL     1       4.371   5.656  18.417  0.00  0.00    +0.000 C 
ATOM      6  C   UNL     1       5.699   5.923  17.685  0.00  0.00    +0.000 C 
ENDROOT
BRANCH   1   8
ATOM      7  O   UNL     1       7.415   5.716  15.756  0.00  0.00    +0.000 OA
ATOM      8  N   UNL     1       7.468   4.825  16.610  0.00  0.00    +0.000 NA
ENDBRANCH   1   8
BRANCH   4   9
ATOM      9  N   UNL     1       2.236   4.742  18.105  0.00  0.00    +0.000 NA
ATOM     10  O   UNL     1       1.490   4.125  17.337  0.00  0.00    +0.000 OA
ENDBRANCH   4   9
TORSDOF 2
ENDMDL
MODEL 9
REMARK VINA RESULT:      -4.5      3.543      4.767
REMARK  Name = 
REMARK  2 active torsions:
REMARK  status: ('A' for Active; 'I' for Inactive)
REMARK    1  A    between atoms: N_2  and  N_3
REMARK    2  A    between atoms: N_6  and  N_7
REMARK                            x       y       z     vdW  Elec       q    Type
REMARK                         _______ _______ _______ _____ _____    ______ ____
ROOT
ATOM      1  N   UNL     1       5.403   4.685  18.855  0.00  0.00    +0.000 N 
ATOM      2  C   UNL     1       4.423   5.771  18.696  0.00  0.00    +0.000 C 
ATOM      3  C   UNL     1       3.278   5.351  17.760  0.00  0.00    +0.000 C 
ATOM      4  N   UNL     1       2.587   4.154  18.266  0.00  0.00    +0.000 N 
ATOM      5  C   UNL     1       3.562   3.057  18.446  0.00  0.00    +0.000 C 
ATOM      6  C   UNL     1       4.720   3.479  19.368  0.00  0.00    +0.000 C 
ENDROOT
BRANCH   1   8
ATOM      7  O   UNL     1       7.488   4.881  18.924  0.00  0.00    +0.000 OA
ATOM      8  N   UNL     1       6.445   5.052  19.565  0.00  0.00    +0.000 NA
ENDBRANCH   1   8
BRANCH   4   9
ATOM      9  N   UNL     1       1.549   3.830  17.530  0.00  0.00    +0.000 NA
ATOM     10  O   UNL     1       0.891   2.935  18.071  0.00  0.00    +0.000 OA
ENDBRANCH   4   9
TORSDOF 2
ENDMDL
