MODEL 1
REMARK VINA RESULT:      -7.6      0.000      0.000
REMARK  Name = 
REMARK  2 active torsions:
REMARK  status: ('A' for Active; 'I' for Inactive)
REMARK    1  A    between atoms: C_13  and  N_14
REMARK    2  A    between atoms: C_15  and  C_17
REMARK                            x       y       z     vdW  Elec       q    Type
REMARK                         _______ _______ _______ _____ _____    ______ ____
ROOT
ATOM      1  O   UNL     1       3.712   7.551  17.807  0.00  0.00    +0.000 OA
ATOM      2  C   UNL     1       3.696   6.325  17.810  0.00  0.00    +0.000 C 
ATOM      3  C   UNL     1       2.949   5.584  18.850  0.00  0.00    +0.000 A 
ATOM      4  C   UNL     1       2.272   6.283  19.857  0.00  0.00    +0.000 A 
ATOM      5  C   UNL     1       1.601   5.584  20.865  0.00  0.00    +0.000 A 
ATOM      6  C   UNL     1       1.603   4.190  20.870  0.00  0.00    +0.000 A 
ATOM      7  C   UNL     1       2.260   3.492  19.858  0.00  0.00    +0.000 A 
ATOM      8  C   UNL     1       2.929   4.191  18.845  0.00  0.00    +0.000 A 
ATOM      9  C   UNL     1       3.605   3.440  17.774  0.00  0.00    +0.000 C 
ATOM     10  O   UNL     1       3.530   2.219  17.742  0.00  0.00    +0.000 OA
ATOM     11  C   UNL     1       4.374   4.179  16.753  0.00  0.00    +0.000 A 
ATOM     12  C   UNL     1       5.053   3.461  15.759  0.00  0.00    +0.000 A 
ATOM     13  C   UNL     1       5.818   4.115  14.789  0.00  0.00    +0.000 A 
ATOM     14  C   UNL     1       5.889   5.513  14.830  0.00  0.00    +0.000 A 
ATOM     15  C   UNL     1       5.201   6.238  15.816  0.00  0.00    +0.000 A 
ATOM     16  C   UNL     1       4.436   5.566  16.777  0.00  0.00    +0.000 A 
ENDROOT
BRANCH  13  17
ATOM     17  N   UNL     1       6.517   3.436  13.763  0.00  0.00    +0.000 N 
ATOM     18  C   UNL     1       6.036   3.154  12.497  0.00  0.00    +0.000 C 
ATOM     19  O   UNL     1       4.924   3.418  12.065  0.00  0.00    +0.000 OA
ATOM     20  H   UNL     1       7.465   3.152  13.968  0.00  0.00    +0.000 HD
BRANCH  18  21
ATOM     21  C   UNL     1       6.966   2.479  11.546  0.00  0.00    +0.000 C 
ATOM     22  C   UNL     1       6.917   0.973  11.427  0.00  0.00    +0.000 C 
ATOM     23  C   UNL     1       6.633   1.834  10.229  0.00  0.00    +0.000 C 
ENDBRANCH  18  21
ENDBRANCH  13  17
TORSDOF 2
ENDMDL
MODEL 2
REMARK VINA RESULT:      -7.5      4.778      7.131
REMARK  Name = 
REMARK  2 active torsions:
REMARK  status: ('A' for Active; 'I' for Inactive)
REMARK    1  A    between atoms: C_13  and  N_14
REMARK    2  A    between atoms: C_15  and  C_17
REMARK                            x       y       z     vdW  Elec       q    Type
REMARK                         _______ _______ _______ _____ _____    ______ ____
ROOT
ATOM      1  O   UNL     1      -0.492  11.678  18.284  0.00  0.00    +0.000 OA
ATOM      2  C   UNL     1      -0.214  10.990  19.259  0.00  0.00    +0.000 C 
ATOM      3  C   UNL     1      -0.771  11.312  20.592  0.00  0.00    +0.000 A 
ATOM      4  C   UNL     1      -1.605  12.425  20.751  0.00  0.00    +0.000 A 
ATOM      5  C   UNL     1      -2.099  12.754  22.017  0.00  0.00    +0.000 A 
ATOM      6  C   UNL     1      -1.763  11.976  23.124  0.00  0.00    +0.000 A 
ATOM      7  C   UNL     1      -0.948  10.856  22.965  0.00  0.00    +0.000 A 
ATOM      8  C   UNL     1      -0.458  10.521  21.696  0.00  0.00    +0.000 A 
ATOM      9  C   UNL     1       0.389   9.327  21.541  0.00  0.00    +0.000 C 
ATOM     10  O   UNL     1       0.609   8.603  22.503  0.00  0.00    +0.000 OA
ATOM     11  C   UNL     1       0.968   9.022  20.217  0.00  0.00    +0.000 A 
ATOM     12  C   UNL     1       1.809   7.909  20.080  0.00  0.00    +0.000 A 
ATOM     13  C   UNL     1       2.404   7.599  18.853  0.00  0.00    +0.000 A 
ATOM     14  C   UNL     1       2.137   8.428  17.757  0.00  0.00    +0.000 A 
ATOM     15  C   UNL     1       1.287   9.537  17.886  0.00  0.00    +0.000 A 
ATOM     16  C   UNL     1       0.696   9.831  19.121  0.00  0.00    +0.000 A 
ENDROOT
BRANCH  13  17
ATOM     17  N   UNL     1       3.254   6.484  18.663  0.00  0.00    +0.000 N 
ATOM     18  C   UNL     1       2.886   5.257  18.143  0.00  0.00    +0.000 C 
ATOM     19  O   UNL     1       1.766   4.922  17.788  0.00  0.00    +0.000 OA
ATOM     20  H   UNL     1       4.227   6.605  18.909  0.00  0.00    +0.000 HD
BRANCH  18  21
ATOM     21  C   UNL     1       3.960   4.235  17.971  0.00  0.00    +0.000 C 
ATOM     22  C   UNL     1       4.646   4.122  16.630  0.00  0.00    +0.000 C 
ATOM     23  C   UNL     1       5.441   4.462  17.859  0.00  0.00    +0.000 C 
ENDBRANCH  18  21
ENDBRANCH  13  17
TORSDOF 2
ENDMDL
MODEL 3
REMARK VINA RESULT:      -7.5      2.157      3.802
REMARK  Name = 
REMARK  2 active torsions:
REMARK  status: ('A' for Active; 'I' for Inactive)
REMARK    1  A    between atoms: C_13  and  N_14
REMARK    2  A    between atoms: C_15  and  C_17
REMARK                            x       y       z     vdW  Elec       q    Type
REMARK                         _______ _______ _______ _____ _____    ______ ____
ROOT
ATOM      1  O   UNL     1       2.038   5.120  21.242  0.00  0.00    +0.000 OA
ATOM      2  C   UNL     1       2.237   5.861  20.285  0.00  0.00    +0.000 C 
ATOM      3  C   UNL     1       1.719   7.247  20.285  0.00  0.00    +0.000 A 
ATOM      4  C   UNL     1       0.974   7.715  21.373  0.00  0.00    +0.000 A 
ATOM      5  C   UNL     1       0.449   9.011  21.357  0.00  0.00    +0.000 A 
ATOM      6  C   UNL     1       0.665   9.840  20.257  0.00  0.00    +0.000 A 
ATOM      7  C   UNL     1       1.422   9.382  19.179  0.00  0.00    +0.000 A 
ATOM      8  C   UNL     1       1.954   8.086  19.198  0.00  0.00    +0.000 A 
ATOM      9  C   UNL     1       2.765   7.622  18.060  0.00  0.00    +0.000 C 
ATOM     10  O   UNL     1       3.019   8.386  17.138  0.00  0.00    +0.000 OA
ATOM     11  C   UNL     1       3.258   6.230  18.048  0.00  0.00    +0.000 A 
ATOM     12  C   UNL     1       3.993   5.777  16.944  0.00  0.00    +0.000 A 
ATOM     13  C   UNL     1       4.454   4.458  16.874  0.00  0.00    +0.000 A 
ATOM     14  C   UNL     1       4.166   3.597  17.940  0.00  0.00    +0.000 A 
ATOM     15  C   UNL     1       3.440   4.049  19.053  0.00  0.00    +0.000 A 
ATOM     16  C   UNL     1       2.990   5.374  19.108  0.00  0.00    +0.000 A 
ENDROOT
BRANCH  13  17
ATOM     17  N   UNL     1       5.205   3.955  15.786  0.00  0.00    +0.000 N 
ATOM     18  C   UNL     1       5.915   4.707  14.868  0.00  0.00    +0.000 C 
ATOM     19  O   UNL     1       5.991   5.926  14.827  0.00  0.00    +0.000 OA
ATOM     20  H   UNL     1       5.245   2.950  15.685  0.00  0.00    +0.000 HD
BRANCH  18  21
ATOM     21  C   UNL     1       6.691   3.968  13.830  0.00  0.00    +0.000 C 
ATOM     22  C   UNL     1       5.977   3.506  12.581  0.00  0.00    +0.000 C 
ATOM     23  C   UNL     1       7.133   4.461  12.481  0.00  0.00    +0.000 C 
ENDBRANCH  18  21
ENDBRANCH  13  17
TORSDOF 2
ENDMDL
MODEL 4
REMARK VINA RESULT:      -7.4      3.174      8.436
REMARK  Name = 
REMARK  2 active torsions:
REMARK  status: ('A' for Active; 'I' for Inactive)
REMARK    1  A    between atoms: C_13  and  N_14
REMARK    2  A    between atoms: C_15  and  C_17
REMARK                            x       y       z     vdW  Elec       q    Type
REMARK                         _______ _______ _______ _____ _____    ______ ____
ROOT
ATOM      1  O   UNL     1       4.062   2.482  18.255  0.00  0.00    +0.000 OA
ATOM      2  C   UNL     1       4.025   3.687  18.035  0.00  0.00    +0.000 C 
ATOM      3  C   UNL     1       4.786   4.271  16.908  0.00  0.00    +0.000 A 
ATOM      4  C   UNL     1       5.575   3.449  16.096  0.00  0.00    +0.000 A 
ATOM      5  C   UNL     1       6.326   4.004  15.056  0.00  0.00    +0.000 A 
ATOM      6  C   UNL     1       6.292   5.379  14.825  0.00  0.00    +0.000 A 
ATOM      7  C   UNL     1       5.492   6.198  15.620  0.00  0.00    +0.000 A 
ATOM      8  C   UNL     1       4.735   5.642  16.659  0.00  0.00    +0.000 A 
ATOM      9  C   UNL     1       3.882   6.517  17.481  0.00  0.00    +0.000 C 
ATOM     10  O   UNL     1       3.795   7.709  17.217  0.00  0.00    +0.000 OA
ATOM     11  C   UNL     1       3.147   5.938  18.623  0.00  0.00    +0.000 A 
ATOM     12  C   UNL     1       2.370   6.781  19.431  0.00  0.00    +0.000 A 
ATOM     13  C   UNL     1       1.680   6.283  20.541  0.00  0.00    +0.000 A 
ATOM     14  C   UNL     1       1.780   4.916  20.827  0.00  0.00    +0.000 A 
ATOM     15  C   UNL     1       2.547   4.067  20.014  0.00  0.00    +0.000 A 
ATOM     16  C   UNL     1       3.228   4.581  18.904  0.00  0.00    +0.000 A 
ENDROOT
BRANCH  13  17
ATOM     17  N   UNL     1       0.879   7.091  21.382  0.00  0.00    +0.000 N 
ATOM     18  C   UNL     1       0.570   8.423  21.180  0.00  0.00    +0.000 C 
ATOM     19  O   UNL     1       0.956   9.130  20.261  0.00  0.00    +0.000 OA
ATOM     20  H   UNL     1       0.476   6.644  22.194  0.00  0.00    +0.000 HD
BRANCH  18  21
ATOM     21  C   UNL     1      -0.347   9.071  22.164  0.00  0.00    +0.000 C 
ATOM     22  C   UNL     1       0.225   9.568  23.470  0.00  0.00    +0.000 C 
ATOM     23  C   UNL     1      -0.436  10.528  22.522  0.00  0.00    +0.000 C 
ENDBRANCH  18  21
ENDBRANCH  13  17
TORSDOF 2
ENDMDL
MODEL 5
REMARK VINA RESULT:      -7.3      1.789      2.202
REMARK  Name = 
REMARK  2 active torsions:
REMARK  status: ('A' for Active; 'I' for Inactive)
REMARK    1  A    between atoms: C_13  and  N_14
REMARK    2  A    between atoms: C_15  and  C_17
REMARK                            x       y       z     vdW  Elec       q    Type
REMARK                         _______ _______ _______ _____ _____    ______ ____
ROOT
ATOM      1  O   UNL     1       2.547   6.977  19.392  0.00  0.00    +0.000 OA
ATOM      2  C   UNL     1       2.916   5.879  18.991  0.00  0.00    +0.000 C 
ATOM      3  C   UNL     1       2.376   4.638  19.588  0.00  0.00    +0.000 A 
ATOM      4  C   UNL     1       1.452   4.710  20.637  0.00  0.00    +0.000 A 
ATOM      5  C   UNL     1       0.971   3.539  21.230  0.00  0.00    +0.000 A 
ATOM      6  C   UNL     1       1.410   2.295  20.778  0.00  0.00    +0.000 A 
ATOM      7  C   UNL     1       2.316   2.219  19.721  0.00  0.00    +0.000 A 
ATOM      8  C   UNL     1       2.794   3.392  19.122  0.00  0.00    +0.000 A 
ATOM      9  C   UNL     1       3.738   3.297  17.996  0.00  0.00    +0.000 C 
ATOM     10  O   UNL     1       4.052   2.200  17.553  0.00  0.00    +0.000 OA
ATOM     11  C   UNL     1       4.298   4.535  17.420  0.00  0.00    +0.000 A 
ATOM     12  C   UNL     1       5.230   4.441  16.377  0.00  0.00    +0.000 A 
ATOM     13  C   UNL     1       5.810   5.585  15.821  0.00  0.00    +0.000 A 
ATOM     14  C   UNL     1       5.436   6.835  16.329  0.00  0.00    +0.000 A 
ATOM     15  C   UNL     1       4.495   6.935  17.366  0.00  0.00    +0.000 A 
ATOM     16  C   UNL     1       3.920   5.779  17.908  0.00  0.00    +0.000 A 
ENDROOT
BRANCH  13  17
ATOM     17  N   UNL     1       6.750   5.542  14.763  0.00  0.00    +0.000 N 
ATOM     18  C   UNL     1       6.748   4.652  13.706  0.00  0.00    +0.000 C 
ATOM     19  O   UNL     1       5.954   3.741  13.522  0.00  0.00    +0.000 OA
ATOM     20  H   UNL     1       7.477   6.245  14.771  0.00  0.00    +0.000 HD
BRANCH  18  21
ATOM     21  C   UNL     1       7.801   4.823  12.663  0.00  0.00    +0.000 C 
ATOM     22  C   UNL     1       7.498   5.685  11.460  0.00  0.00    +0.000 C 
ATOM     23  C   UNL     1       8.630   6.044  12.380  0.00  0.00    +0.000 C 
ENDBRANCH  18  21
ENDBRANCH  13  17
TORSDOF 2
ENDMDL
MODEL 6
REMARK VINA RESULT:      -7.3      4.461      6.876
REMARK  Name = 
REMARK  2 active torsions:
REMARK  status: ('A' for Active; 'I' for Inactive)
REMARK    1  A    between atoms: C_13  and  N_14
REMARK    2  A    between atoms: C_15  and  C_17
REMARK                            x       y       z     vdW  Elec       q    Type
REMARK                         _______ _______ _______ _____ _____    ______ ____
ROOT
ATOM      1  O   UNL     1       0.557  11.765  18.290  0.00  0.00    +0.000 OA
ATOM      2  C   UNL     1       0.565  10.943  19.199  0.00  0.00    +0.000 C 
ATOM      3  C   UNL     1      -0.122  11.228  20.478  0.00  0.00    +0.000 A 
ATOM      4  C   UNL     1      -0.768  12.455  20.667  0.00  0.00    +0.000 A 
ATOM      5  C   UNL     1      -1.382  12.742  21.890  0.00  0.00    +0.000 A 
ATOM      6  C   UNL     1      -1.353  11.808  22.925  0.00  0.00    +0.000 A 
ATOM      7  C   UNL     1      -0.726  10.578  22.733  0.00  0.00    +0.000 A 
ATOM      8  C   UNL     1      -0.115  10.287  21.506  0.00  0.00    +0.000 A 
ATOM      9  C   UNL     1       0.530   8.977  21.313  0.00  0.00    +0.000 C 
ATOM     10  O   UNL     1       0.477   8.133  22.197  0.00  0.00    +0.000 OA
ATOM     11  C   UNL     1       1.239   8.705  20.047  0.00  0.00    +0.000 A 
ATOM     12  C   UNL     1       1.889   7.474  19.881  0.00  0.00    +0.000 A 
ATOM     13  C   UNL     1       2.599   7.183  18.712  0.00  0.00    +0.000 A 
ATOM     14  C   UNL     1       2.644   8.153  17.703  0.00  0.00    +0.000 A 
ATOM     15  C   UNL     1       1.985   9.382  17.860  0.00  0.00    +0.000 A 
ATOM     16  C   UNL     1       1.275   9.655  19.035  0.00  0.00    +0.000 A 
ENDROOT
BRANCH  13  17
ATOM     17  N   UNL     1       3.266   5.954  18.495  0.00  0.00    +0.000 N 
ATOM     18  C   UNL     1       2.706   4.803  17.971  0.00  0.00    +0.000 C 
ATOM     19  O   UNL     1       1.542   4.648  17.634  0.00  0.00    +0.000 OA
ATOM     20  H   UNL     1       4.251   5.923  18.723  0.00  0.00    +0.000 HD
BRANCH  18  21
ATOM     21  C   UNL     1       3.609   3.633  17.768  0.00  0.00    +0.000 C 
ATOM     22  C   UNL     1       3.988   2.793  18.965  0.00  0.00    +0.000 C 
ATOM     23  C   UNL     1       3.253   2.173  17.811  0.00  0.00    +0.000 C 
ENDBRANCH  18  21
ENDBRANCH  13  17
TORSDOF 2
ENDMDL
MODEL 7
REMARK VINA RESULT:      -7.2      3.517      5.741
REMARK  Name = 
REMARK  2 active torsions:
REMARK  status: ('A' for Active; 'I' for Inactive)
REMARK    1  A    between atoms: C_13  and  N_14
REMARK    2  A    between atoms: C_15  and  C_17
REMARK                            x       y       z     vdW  Elec       q    Type
REMARK                         _______ _______ _______ _____ _____    ______ ____
ROOT
ATOM      1  O   UNL     1       0.786   8.045  21.992  0.00  0.00    +0.000 OA
ATOM      2  C   UNL     1       1.072   8.472  20.879  0.00  0.00    +0.000 C 
ATOM      3  C   UNL     1       0.623   9.815  20.449  0.00  0.00    +0.000 A 
ATOM      4  C   UNL     1      -0.155  10.601  21.307  0.00  0.00    +0.000 A 
ATOM      5  C   UNL     1      -0.614  11.853  20.887  0.00  0.00    +0.000 A 
ATOM      6  C   UNL     1      -0.299  12.323  19.613  0.00  0.00    +0.000 A 
ATOM      7  C   UNL     1       0.492  11.550  18.763  0.00  0.00    +0.000 A 
ATOM      8  C   UNL     1       0.958  10.298  19.186  0.00  0.00    +0.000 A 
ATOM      9  C   UNL     1       1.805   9.500  18.283  0.00  0.00    +0.000 C 
ATOM     10  O   UNL     1       2.146   9.958  17.200  0.00  0.00    +0.000 OA
ATOM     11  C   UNL     1       2.228   8.149  18.702  0.00  0.00    +0.000 A 
ATOM     12  C   UNL     1       2.999   7.374  17.824  0.00  0.00    +0.000 A 
ATOM     13  C   UNL     1       3.397   6.077  18.164  0.00  0.00    +0.000 A 
ATOM     14  C   UNL     1       3.010   5.568  19.410  0.00  0.00    +0.000 A 
ATOM     15  C   UNL     1       2.248   6.345  20.297  0.00  0.00    +0.000 A 
ATOM     16  C   UNL     1       1.862   7.643  19.942  0.00  0.00    +0.000 A 
ENDROOT
BRANCH  13  17
ATOM     17  N   UNL     1       4.180   5.259  17.316  0.00  0.00    +0.000 N 
ATOM     18  C   UNL     1       5.232   5.677  16.522  0.00  0.00    +0.000 C 
ATOM     19  O   UNL     1       5.642   6.821  16.400  0.00  0.00    +0.000 OA
ATOM     20  H   UNL     1       3.963   4.271  17.309  0.00  0.00    +0.000 HD
BRANCH  18  21
ATOM     21  C   UNL     1       5.964   4.632  15.748  0.00  0.00    +0.000 C 
ATOM     22  C   UNL     1       5.535   4.346  14.328  0.00  0.00    +0.000 C 
ATOM     23  C   UNL     1       6.929   4.830  14.613  0.00  0.00    +0.000 C 
ENDBRANCH  18  21
ENDBRANCH  13  17
TORSDOF 2
ENDMDL
MODEL 8
REMARK VINA RESULT:      -7.2      4.601      9.154
REMARK  Name = 
REMARK  2 active torsions:
REMARK  status: ('A' for Active; 'I' for Inactive)
REMARK    1  A    between atoms: C_13  and  N_14
REMARK    2  A    between atoms: C_15  and  C_17
REMARK                            x       y       z     vdW  Elec       q    Type
REMARK                         _______ _______ _______ _____ _____    ______ ____
ROOT
ATOM      1  O   UNL     1       3.714   7.885  16.675  0.00  0.00    +0.000 OA
ATOM      2  C   UNL     1       3.257   7.342  17.674  0.00  0.00    +0.000 C 
ATOM      3  C   UNL     1       3.631   5.951  18.013  0.00  0.00    +0.000 A 
ATOM      4  C   UNL     1       4.497   5.236  17.178  0.00  0.00    +0.000 A 
ATOM      5  C   UNL     1       4.820   3.909  17.475  0.00  0.00    +0.000 A 
ATOM      6  C   UNL     1       4.280   3.293  18.604  0.00  0.00    +0.000 A 
ATOM      7  C   UNL     1       3.432   4.009  19.448  0.00  0.00    +0.000 A 
ATOM      8  C   UNL     1       3.113   5.341  19.154  0.00  0.00    +0.000 A 
ATOM      9  C   UNL     1       2.229   6.089  20.063  0.00  0.00    +0.000 C 
ATOM     10  O   UNL     1       1.828   5.566  21.095  0.00  0.00    +0.000 OA
ATOM     11  C   UNL     1       1.833   7.467  19.709  0.00  0.00    +0.000 A 
ATOM     12  C   UNL     1       0.956   8.163  20.553  0.00  0.00    +0.000 A 
ATOM     13  C   UNL     1       0.529   9.458  20.243  0.00  0.00    +0.000 A 
ATOM     14  C   UNL     1       1.002  10.049  19.065  0.00  0.00    +0.000 A 
ATOM     15  C   UNL     1       1.889   9.361  18.223  0.00  0.00    +0.000 A 
ATOM     16  C   UNL     1       2.310   8.066  18.551  0.00  0.00    +0.000 A 
ENDROOT
BRANCH  13  17
ATOM     17  N   UNL     1      -0.349  10.203  21.065  0.00  0.00    +0.000 N 
ATOM     18  C   UNL     1      -0.223  10.396  22.429  0.00  0.00    +0.000 C 
ATOM     19  O   UNL     1       0.648   9.936  23.152  0.00  0.00    +0.000 OA
ATOM     20  H   UNL     1      -1.128  10.656  20.607  0.00  0.00    +0.000 HD
BRANCH  18  21
ATOM     21  C   UNL     1      -1.232  11.272  23.093  0.00  0.00    +0.000 C 
ATOM     22  C   UNL     1      -1.088  12.770  22.967  0.00  0.00    +0.000 C 
ATOM     23  C   UNL     1      -2.319  12.083  22.447  0.00  0.00    +0.000 C 
ENDBRANCH  18  21
ENDBRANCH  13  17
TORSDOF 2
ENDMDL
MODEL 9
REMARK VINA RESULT:      -7.1      1.664      2.111
REMARK  Name = 
REMARK  2 active torsions:
REMARK  status: ('A' for Active; 'I' for Inactive)
REMARK    1  A    between atoms: C_13  and  N_14
REMARK    2  A    between atoms: C_15  and  C_17
REMARK                            x       y       z     vdW  Elec       q    Type
REMARK                         _______ _______ _______ _____ _____    ______ ____
ROOT
ATOM      1  O   UNL     1       2.843   6.800  19.536  0.00  0.00    +0.000 OA
ATOM      2  C   UNL     1       3.073   5.664  19.138  0.00  0.00    +0.000 C 
ATOM      3  C   UNL     1       2.617   4.488  19.913  0.00  0.00    +0.000 A 
ATOM      4  C   UNL     1       1.937   4.669  21.123  0.00  0.00    +0.000 A 
ATOM      5  C   UNL     1       1.542   3.559  21.876  0.00  0.00    +0.000 A 
ATOM      6  C   UNL     1       1.823   2.270  21.425  0.00  0.00    +0.000 A 
ATOM      7  C   UNL     1       2.483   2.087  20.211  0.00  0.00    +0.000 A 
ATOM      8  C   UNL     1       2.875   3.198  19.452  0.00  0.00    +0.000 A 
ATOM      9  C   UNL     1       3.557   2.990  18.164  0.00  0.00    +0.000 C 
ATOM     10  O   UNL     1       3.724   1.855  17.738  0.00  0.00    +0.000 OA
ATOM     11  C   UNL     1       4.037   4.162  17.406  0.00  0.00    +0.000 A 
ATOM     12  C   UNL     1       4.725   3.960  16.202  0.00  0.00    +0.000 A 
ATOM     13  C   UNL     1       5.224   5.039  15.465  0.00  0.00    +0.000 A 
ATOM     14  C   UNL     1       5.018   6.333  15.958  0.00  0.00    +0.000 A 
ATOM     15  C   UNL     1       4.320   6.541  17.158  0.00  0.00    +0.000 A 
ATOM     16  C   UNL     1       3.823   5.450  17.881  0.00  0.00    +0.000 A 
ENDROOT
BRANCH  13  17
ATOM     17  N   UNL     1       5.919   4.887  14.241  0.00  0.00    +0.000 N 
ATOM     18  C   UNL     1       7.270   5.102  14.038  0.00  0.00    +0.000 C 
ATOM     19  O   UNL     1       8.080   5.482  14.870  0.00  0.00    +0.000 OA
ATOM     20  H   UNL     1       5.380   4.570  13.448  0.00  0.00    +0.000 HD
BRANCH  18  21
ATOM     21  C   UNL     1       7.811   4.822  12.676  0.00  0.00    +0.000 C 
ATOM     22  C   UNL     1       7.099   3.814  11.805  0.00  0.00    +0.000 C 
ATOM     23  C   UNL     1       7.238   5.240  11.351  0.00  0.00    +0.000 C 
ENDBRANCH  18  21
ENDBRANCH  13  17
TORSDOF 2
ENDMDL
