MODEL 1
REMARK VINA RESULT:      -8.4      0.000      0.000
REMARK  Name = 
REMARK  7 active torsions:
REMARK  status: ('A' for Active; 'I' for Inactive)
REMARK    1  A    between atoms: C_1  and  O_2
REMARK    2  A    between atoms: O_2  and  C_3
REMARK    3  A    between atoms: C_6  and  N_7
REMARK    4  A    between atoms: C_8  and  C_10
REMARK    5  A    between atoms: C_10  and  S_11
REMARK    6  A    between atoms: S_11  and  C_12
REMARK    7  A    between atoms: C_14  and  C_15
REMARK                            x       y       z     vdW  Elec       q    Type
REMARK                         _______ _______ _______ _____ _____    ______ ____
ROOT
ATOM      1  C   UNL     1       5.082   5.954  18.095  0.00  0.00    +0.000 A 
ATOM      2  N   UNL     1       4.222   6.922  17.966  0.00  0.00    +0.000 NA
ATOM      3  C   UNL     1       3.099   6.857  18.795  0.00  0.00    +0.000 A 
ATOM      4  N   UNL     1       2.789   5.882  19.606  0.00  0.00    +0.000 NA
ATOM      5  C   UNL     1       3.676   4.855  19.600  0.00  0.00    +0.000 A 
ATOM      6  C   UNL     1       3.441   3.626  20.075  0.00  0.00    +0.000 A 
ATOM      7  C   UNL     1       4.619   2.836  19.638  0.00  0.00    +0.000 A 
ATOM      8  O   UNL     1       4.841   1.679  19.940  0.00  0.00    +0.000 OA
ATOM      9  N   UNL     1       5.394   3.658  18.842  0.00  0.00    +0.000 N 
ATOM     10  N   UNL     1       4.893   4.929  18.980  0.00  0.00    +0.000 N 
ATOM     11  H   UNL     1       6.357   3.482  18.593  0.00  0.00    +0.000 HD
ENDROOT
BRANCH   3  12
ATOM     12  C   UNL     1       2.230   8.010  18.692  0.00  0.00    +0.000 A 
ATOM     13  C   UNL     1       1.871   8.829  17.635  0.00  0.00    +0.000 A 
ATOM     14  C   UNL     1       0.971   9.799  18.147  0.00  0.00    +0.000 A 
ATOM     15  C   UNL     1       0.836   9.525  19.486  0.00  0.00    +0.000 A 
ATOM     16  O   UNL     1       1.588   8.449  19.826  0.00  0.00    +0.000 OA
ENDBRANCH   3  12
BRANCH   1  17
ATOM     17  S   UNL     1       6.583   5.925  17.168  0.00  0.00    +0.000 S 
BRANCH  17  18
ATOM     18  C   UNL     1       7.797   6.618  18.306  0.00  0.00    +0.000 C 
BRANCH  18  20
ATOM     19  N   UNL     1       8.925   8.673  19.023  0.00  0.00    +0.000 N 
ATOM     20  C   UNL     1       7.995   8.112  18.156  0.00  0.00    +0.000 C 
ATOM     21  O   UNL     1       7.426   8.710  17.245  0.00  0.00    +0.000 OA
ATOM     22  H   UNL     1       9.522   8.040  19.542  0.00  0.00    +0.000 HD
BRANCH  19  26
ATOM     23  C   UNL     1       9.745  12.815  19.231  0.00  0.00    +0.000 A 
ATOM     24  C   UNL     1       9.520  12.090  20.397  0.00  0.00    +0.000 A 
ATOM     25  C   UNL     1       9.267  10.719  20.343  0.00  0.00    +0.000 A 
ATOM     26  C   UNL     1       9.211  10.053  19.118  0.00  0.00    +0.000 A 
ATOM     27  C   UNL     1       9.461  10.776  17.947  0.00  0.00    +0.000 A 
ATOM     28  C   UNL     1       9.712  12.157  18.002  0.00  0.00    +0.000 A 
BRANCH  23  30
ATOM     29  C   UNL     1       9.107  14.778  20.386  0.00  0.00    +0.000 C 
ATOM     30  O   UNL     1       9.943  14.153  19.422  0.00  0.00    +0.000 OA
ENDBRANCH  23  30
ENDBRANCH  19  26
ENDBRANCH  18  20
ENDBRANCH  17  18
ENDBRANCH   1  17
TORSDOF 6
ENDMDL
MODEL 2
REMARK VINA RESULT:      -8.3      2.656      3.727
REMARK  Name = 
REMARK  7 active torsions:
REMARK  status: ('A' for Active; 'I' for Inactive)
REMARK    1  A    between atoms: C_1  and  O_2
REMARK    2  A    between atoms: O_2  and  C_3
REMARK    3  A    between atoms: C_6  and  N_7
REMARK    4  A    between atoms: C_8  and  C_10
REMARK    5  A    between atoms: C_10  and  S_11
REMARK    6  A    between atoms: S_11  and  C_12
REMARK    7  A    between atoms: C_14  and  C_15
REMARK                            x       y       z     vdW  Elec       q    Type
REMARK                         _______ _______ _______ _____ _____    ______ ____
ROOT
ATOM      1  C   UNL     1       6.443   5.770  17.799  0.00  0.00    +0.000 A 
ATOM      2  N   UNL     1       5.359   5.665  18.511  0.00  0.00    +0.000 NA
ATOM      3  C   UNL     1       4.354   4.853  17.979  0.00  0.00    +0.000 A 
ATOM      4  N   UNL     1       4.362   4.276  16.808  0.00  0.00    +0.000 NA
ATOM      5  C   UNL     1       5.477   4.526  16.076  0.00  0.00    +0.000 A 
ATOM      6  C   UNL     1       5.597   4.334  14.757  0.00  0.00    +0.000 A 
ATOM      7  C   UNL     1       6.900   4.956  14.415  0.00  0.00    +0.000 A 
ATOM      8  O   UNL     1       7.429   4.924  13.321  0.00  0.00    +0.000 OA
ATOM      9  N   UNL     1       7.380   5.561  15.562  0.00  0.00    +0.000 N 
ATOM     10  N   UNL     1       6.586   5.133  16.597  0.00  0.00    +0.000 N 
ATOM     11  H   UNL     1       8.335   5.860  15.703  0.00  0.00    +0.000 HD
ENDROOT
BRANCH   3  12
ATOM     12  C   UNL     1       3.216   4.680  18.857  0.00  0.00    +0.000 A 
ATOM     13  C   UNL     1       2.875   5.235  20.079  0.00  0.00    +0.000 A 
ATOM     14  C   UNL     1       1.624   4.683  20.453  0.00  0.00    +0.000 A 
ATOM     15  C   UNL     1       1.273   3.818  19.445  0.00  0.00    +0.000 A 
ATOM     16  O   UNL     1       2.223   3.808  18.478  0.00  0.00    +0.000 OA
ENDBRANCH   3  12
BRANCH   1  17
ATOM     17  S   UNL     1       7.829   6.705  18.363  0.00  0.00    +0.000 S 
BRANCH  17  18
ATOM     18  C   UNL     1       7.533   8.350  17.689  0.00  0.00    +0.000 C 
BRANCH  18  20
ATOM     19  N   UNL     1       8.405  10.639  17.576  0.00  0.00    +0.000 N 
ATOM     20  C   UNL     1       8.475   9.409  18.220  0.00  0.00    +0.000 C 
ATOM     21  O   UNL     1       9.152   9.172  19.219  0.00  0.00    +0.000 OA
ATOM     22  H   UNL     1       7.624  10.794  16.948  0.00  0.00    +0.000 HD
BRANCH  19  26
ATOM     23  C   UNL     1      10.853  13.974  18.443  0.00  0.00    +0.000 A 
ATOM     24  C   UNL     1      11.431  12.755  18.103  0.00  0.00    +0.000 A 
ATOM     25  C   UNL     1      10.635  11.652  17.797  0.00  0.00    +0.000 A 
ATOM     26  C   UNL     1       9.243  11.743  17.847  0.00  0.00    +0.000 A 
ATOM     27  C   UNL     1       8.660  12.975  18.164  0.00  0.00    +0.000 A 
ATOM     28  C   UNL     1       9.463  14.084  18.477  0.00  0.00    +0.000 A 
BRANCH  23  30
ATOM     29  C   UNL     1      11.189  16.181  19.221  0.00  0.00    +0.000 C 
ATOM     30  O   UNL     1      11.745  14.960  18.755  0.00  0.00    +0.000 OA
ENDBRANCH  23  30
ENDBRANCH  19  26
ENDBRANCH  18  20
ENDBRANCH  17  18
ENDBRANCH   1  17
TORSDOF 6
ENDMDL
MODEL 3
REMARK VINA RESULT:      -8.3      2.529      3.779
REMARK  Name = 
REMARK  7 active torsions:
REMARK  status: ('A' for Active; 'I' for Inactive)
REMARK    1  A    between atoms: C_1  and  O_2
REMARK    2  A    between atoms: O_2  and  C_3
REMARK    3  A    between atoms: C_6  and  N_7
REMARK    4  A    between atoms: C_8  and  C_10
REMARK    5  A    between atoms: C_10  and  S_11
REMARK    6  A    between atoms: S_11  and  C_12
REMARK    7  A    between atoms: C_14  and  C_15
REMARK                            x       y       z     vdW  Elec       q    Type
REMARK                         _______ _______ _______ _____ _____    ______ ____
ROOT
ATOM      1  C   UNL     1       6.629   5.821  18.025  0.00  0.00    +0.000 A 
ATOM      2  N   UNL     1       5.604   5.662  18.810  0.00  0.00    +0.000 NA
ATOM      3  C   UNL     1       4.596   4.818  18.336  0.00  0.00    +0.000 A 
ATOM      4  N   UNL     1       4.543   4.259  17.157  0.00  0.00    +0.000 NA
ATOM      5  C   UNL     1       5.592   4.565  16.353  0.00  0.00    +0.000 A 
ATOM      6  C   UNL     1       5.626   4.397  15.025  0.00  0.00    +0.000 A 
ATOM      7  C   UNL     1       6.876   5.076  14.604  0.00  0.00    +0.000 A 
ATOM      8  O   UNL     1       7.326   5.082  13.475  0.00  0.00    +0.000 OA
ATOM      9  N   UNL     1       7.412   5.683  15.724  0.00  0.00    +0.000 N 
ATOM     10  N   UNL     1       6.711   5.208  16.805  0.00  0.00    +0.000 N 
ATOM     11  H   UNL     1       8.362   6.018  15.802  0.00  0.00    +0.000 HD
ENDROOT
BRANCH   3  12
ATOM     12  C   UNL     1       3.532   4.587  19.289  0.00  0.00    +0.000 A 
ATOM     13  C   UNL     1       2.456   5.352  19.706  0.00  0.00    +0.000 A 
ATOM     14  C   UNL     1       1.746   4.586  20.665  0.00  0.00    +0.000 A 
ATOM     15  C   UNL     1       2.429   3.401  20.787  0.00  0.00    +0.000 A 
ATOM     16  O   UNL     1       3.505   3.389  19.963  0.00  0.00    +0.000 OA
ENDBRANCH   3  12
BRANCH   1  17
ATOM     17  S   UNL     1       8.015   6.803  18.506  0.00  0.00    +0.000 S 
BRANCH  17  18
ATOM     18  C   UNL     1       7.650   8.423  17.806  0.00  0.00    +0.000 C 
BRANCH  18  20
ATOM     19  N   UNL     1       8.523  10.703  17.585  0.00  0.00    +0.000 N 
ATOM     20  C   UNL     1       8.535   9.532  18.334  0.00  0.00    +0.000 C 
ATOM     21  O   UNL     1       9.114   9.386  19.409  0.00  0.00    +0.000 OA
ATOM     22  H   UNL     1       7.805  10.797  16.876  0.00  0.00    +0.000 HD
BRANCH  19  26
ATOM     23  C   UNL     1      10.987  14.066  18.289  0.00  0.00    +0.000 A 
ATOM     24  C   UNL     1       9.618  14.142  18.528  0.00  0.00    +0.000 A 
ATOM     25  C   UNL     1       8.797  13.034  18.318  0.00  0.00    +0.000 A 
ATOM     26  C   UNL     1       9.328  11.834  17.841  0.00  0.00    +0.000 A 
ATOM     27  C   UNL     1      10.708  11.749  17.623  0.00  0.00    +0.000 A 
ATOM     28  C   UNL     1      11.533  12.866  17.831  0.00  0.00    +0.000 A 
BRANCH  23  30
ATOM     29  C   UNL     1      10.950  16.429  18.242  0.00  0.00    +0.000 C 
ATOM     30  O   UNL     1      11.668  15.231  18.499  0.00  0.00    +0.000 OA
ENDBRANCH  23  30
ENDBRANCH  19  26
ENDBRANCH  18  20
ENDBRANCH  17  18
ENDBRANCH   1  17
TORSDOF 6
ENDMDL
MODEL 4
REMARK VINA RESULT:      -8.2      3.077      4.675
REMARK  Name = 
REMARK  7 active torsions:
REMARK  status: ('A' for Active; 'I' for Inactive)
REMARK    1  A    between atoms: C_1  and  O_2
REMARK    2  A    between atoms: O_2  and  C_3
REMARK    3  A    between atoms: C_6  and  N_7
REMARK    4  A    between atoms: C_8  and  C_10
REMARK    5  A    between atoms: C_10  and  S_11
REMARK    6  A    between atoms: S_11  and  C_12
REMARK    7  A    between atoms: C_14  and  C_15
REMARK                            x       y       z     vdW  Elec       q    Type
REMARK                         _______ _______ _______ _____ _____    ______ ____
ROOT
ATOM      1  C   UNL     1       6.752   5.998  17.327  0.00  0.00    +0.000 A 
ATOM      2  N   UNL     1       7.110   5.608  16.138  0.00  0.00    +0.000 NA
ATOM      3  C   UNL     1       6.151   4.895  15.414  0.00  0.00    +0.000 A 
ATOM      4  N   UNL     1       4.983   4.507  15.848  0.00  0.00    +0.000 NA
ATOM      5  C   UNL     1       4.728   4.851  17.135  0.00  0.00    +0.000 A 
ATOM      6  C   UNL     1       3.775   4.315  17.907  0.00  0.00    +0.000 A 
ATOM      7  C   UNL     1       4.052   4.862  19.259  0.00  0.00    +0.000 A 
ATOM      8  O   UNL     1       3.359   4.687  20.243  0.00  0.00    +0.000 OA
ATOM      9  N   UNL     1       5.223   5.591  19.176  0.00  0.00    +0.000 N 
ATOM     10  N   UNL     1       5.517   5.718  17.841  0.00  0.00    +0.000 N 
ATOM     11  H   UNL     1       5.537   6.262  19.863  0.00  0.00    +0.000 HD
ENDROOT
BRANCH   3  12
ATOM     12  C   UNL     1       6.557   4.581  14.060  0.00  0.00    +0.000 A 
ATOM     13  C   UNL     1       6.142   3.625  13.149  0.00  0.00    +0.000 A 
ATOM     14  C   UNL     1       6.908   3.812  11.971  0.00  0.00    +0.000 A 
ATOM     15  C   UNL     1       7.751   4.864  12.228  0.00  0.00    +0.000 A 
ATOM     16  O   UNL     1       7.549   5.337  13.482  0.00  0.00    +0.000 OA
ENDBRANCH   3  12
BRANCH   1  17
ATOM     17  S   UNL     1       7.825   6.965  18.341  0.00  0.00    +0.000 S 
BRANCH  17  18
ATOM     18  C   UNL     1       7.652   8.630  17.674  0.00  0.00    +0.000 C 
BRANCH  18  20
ATOM     19  N   UNL     1       8.653  10.868  17.642  0.00  0.00    +0.000 N 
ATOM     20  C   UNL     1       8.602   9.637  18.287  0.00  0.00    +0.000 C 
ATOM     21  O   UNL     1       9.178   9.366  19.338  0.00  0.00    +0.000 OA
ATOM     22  H   UNL     1       7.938  11.064  16.951  0.00  0.00    +0.000 HD
BRANCH  19  26
ATOM     23  C   UNL     1      11.208  14.053  18.738  0.00  0.00    +0.000 A 
ATOM     24  C   UNL     1      11.732  12.918  18.127  0.00  0.00    +0.000 A 
ATOM     25  C   UNL     1      10.897  11.869  17.743  0.00  0.00    +0.000 A 
ATOM     26  C   UNL     1       9.524  11.925  17.986  0.00  0.00    +0.000 A 
ATOM     27  C   UNL     1       8.992  13.076  18.578  0.00  0.00    +0.000 A 
ATOM     28  C   UNL     1       9.834  14.131  18.968  0.00  0.00    +0.000 A 
BRANCH  23  30
ATOM     29  C   UNL     1      11.817  15.787  20.226  0.00  0.00    +0.000 C 
ATOM     30  O   UNL     1      12.137  14.988  19.096  0.00  0.00    +0.000 OA
ENDBRANCH  23  30
ENDBRANCH  19  26
ENDBRANCH  18  20
ENDBRANCH  17  18
ENDBRANCH   1  17
TORSDOF 6
ENDMDL
MODEL 5
REMARK VINA RESULT:      -8.2      3.762      6.282
REMARK  Name = 
REMARK  7 active torsions:
REMARK  status: ('A' for Active; 'I' for Inactive)
REMARK    1  A    between atoms: C_1  and  O_2
REMARK    2  A    between atoms: O_2  and  C_3
REMARK    3  A    between atoms: C_6  and  N_7
REMARK    4  A    between atoms: C_8  and  C_10
REMARK    5  A    between atoms: C_10  and  S_11
REMARK    6  A    between atoms: S_11  and  C_12
REMARK    7  A    between atoms: C_14  and  C_15
REMARK                            x       y       z     vdW  Elec       q    Type
REMARK                         _______ _______ _______ _____ _____    ______ ____
ROOT
ATOM      1  C   UNL     1       5.074   5.380  19.181  0.00  0.00    +0.000 A 
ATOM      2  N   UNL     1       4.436   6.496  18.984  0.00  0.00    +0.000 NA
ATOM      3  C   UNL     1       3.048   6.395  18.868  0.00  0.00    +0.000 A 
ATOM      4  N   UNL     1       2.350   5.292  18.842  0.00  0.00    +0.000 NA
ATOM      5  C   UNL     1       3.097   4.163  18.937  0.00  0.00    +0.000 A 
ATOM      6  C   UNL     1       2.683   2.930  18.619  0.00  0.00    +0.000 A 
ATOM      7  C   UNL     1       3.914   2.104  18.686  0.00  0.00    +0.000 A 
ATOM      8  O   UNL     1       3.959   0.897  18.547  0.00  0.00    +0.000 OA
ATOM      9  N   UNL     1       4.971   2.960  18.932  0.00  0.00    +0.000 N 
ATOM     10  N   UNL     1       4.426   4.178  19.259  0.00  0.00    +0.000 N 
ATOM     11  H   UNL     1       5.884   2.674  19.256  0.00  0.00    +0.000 HD
ENDROOT
BRANCH   3  12
ATOM     12  C   UNL     1       2.376   7.673  18.760  0.00  0.00    +0.000 A 
ATOM     13  C   UNL     1       2.215   8.569  17.718  0.00  0.00    +0.000 A 
ATOM     14  C   UNL     1       1.446   9.652  18.214  0.00  0.00    +0.000 A 
ATOM     15  C   UNL     1       1.186   9.363  19.531  0.00  0.00    +0.000 A 
ATOM     16  O   UNL     1       1.740   8.173  19.872  0.00  0.00    +0.000 OA
ENDBRANCH   3  12
BRANCH   1  17
ATOM     17  S   UNL     1       6.823   5.346  19.415  0.00  0.00    +0.000 S 
BRANCH  17  18
ATOM     18  C   UNL     1       7.442   6.461  18.141  0.00  0.00    +0.000 C 
BRANCH  18  20
ATOM     19  N   UNL     1       7.028   4.951  16.254  0.00  0.00    +0.000 N 
ATOM     20  C   UNL     1       6.835   6.226  16.774  0.00  0.00    +0.000 C 
ATOM     21  O   UNL     1       6.144   7.103  16.259  0.00  0.00    +0.000 OA
ATOM     22  H   UNL     1       7.379   4.238  16.883  0.00  0.00    +0.000 HD
BRANCH  19  26
ATOM     23  C   UNL     1       5.898   3.683  12.383  0.00  0.00    +0.000 A 
ATOM     24  C   UNL     1       5.022   3.522  13.452  0.00  0.00    +0.000 A 
ATOM     25  C   UNL     1       5.376   3.953  14.731  0.00  0.00    +0.000 A 
ATOM     26  C   UNL     1       6.623   4.534  14.967  0.00  0.00    +0.000 A 
ATOM     27  C   UNL     1       7.495   4.719  13.888  0.00  0.00    +0.000 A 
ATOM     28  C   UNL     1       7.139   4.281  12.602  0.00  0.00    +0.000 A 
BRANCH  23  30
ATOM     29  C   UNL     1       4.033   3.105  11.049  0.00  0.00    +0.000 C 
ATOM     30  O   UNL     1       5.444   3.185  11.195  0.00  0.00    +0.000 OA
ENDBRANCH  23  30
ENDBRANCH  19  26
ENDBRANCH  18  20
ENDBRANCH  17  18
ENDBRANCH   1  17
TORSDOF 6
ENDMDL
MODEL 6
REMARK VINA RESULT:      -8.1      1.100      1.492
REMARK  Name = 
REMARK  7 active torsions:
REMARK  status: ('A' for Active; 'I' for Inactive)
REMARK    1  A    between atoms: C_1  and  O_2
REMARK    2  A    between atoms: O_2  and  C_3
REMARK    3  A    between atoms: C_6  and  N_7
REMARK    4  A    between atoms: C_8  and  C_10
REMARK    5  A    between atoms: C_10  and  S_11
REMARK    6  A    between atoms: S_11  and  C_12
REMARK    7  A    between atoms: C_14  and  C_15
REMARK                            x       y       z     vdW  Elec       q    Type
REMARK                         _______ _______ _______ _____ _____    ______ ____
ROOT
ATOM      1  C   UNL     1       4.932   5.734  17.671  0.00  0.00    +0.000 A 
ATOM      2  N   UNL     1       4.248   6.839  17.727  0.00  0.00    +0.000 NA
ATOM      3  C   UNL     1       2.992   6.752  18.334  0.00  0.00    +0.000 A 
ATOM      4  N   UNL     1       2.410   5.664  18.758  0.00  0.00    +0.000 NA
ATOM      5  C   UNL     1       3.137   4.535  18.561  0.00  0.00    +0.000 A 
ATOM      6  C   UNL     1       2.656   3.286  18.602  0.00  0.00    +0.000 A 
ATOM      7  C   UNL     1       3.778   2.448  18.111  0.00  0.00    +0.000 A 
ATOM      8  O   UNL     1       3.783   1.233  18.073  0.00  0.00    +0.000 OA
ATOM      9  N   UNL     1       4.789   3.304  17.717  0.00  0.00    +0.000 N 
ATOM     10  N   UNL     1       4.446   4.555  18.167  0.00  0.00    +0.000 N 
ATOM     11  H   UNL     1       5.750   3.032  17.561  0.00  0.00    +0.000 HD
ENDROOT
BRANCH   3  12
ATOM     12  C   UNL     1       2.320   8.027  18.469  0.00  0.00    +0.000 A 
ATOM     13  C   UNL     1       1.561   8.590  19.480  0.00  0.00    +0.000 A 
ATOM     14  C   UNL     1       1.171   9.881  19.040  0.00  0.00    +0.000 A 
ATOM     15  C   UNL     1       1.707  10.032  17.784  0.00  0.00    +0.000 A 
ATOM     16  O   UNL     1       2.402   8.923  17.430  0.00  0.00    +0.000 OA
ENDBRANCH   3  12
BRANCH   1  17
ATOM     17  S   UNL     1       6.561   5.690  16.995  0.00  0.00    +0.000 S 
BRANCH  17  18
ATOM     18  C   UNL     1       7.575   6.433  18.287  0.00  0.00    +0.000 C 
BRANCH  18  20
ATOM     19  N   UNL     1       8.741   8.472  18.989  0.00  0.00    +0.000 N 
ATOM     20  C   UNL     1       7.882   7.898  18.059  0.00  0.00    +0.000 C 
ATOM     21  O   UNL     1       7.459   8.456  17.049  0.00  0.00    +0.000 OA
ATOM     22  H   UNL     1       9.235   7.848  19.618  0.00  0.00    +0.000 HD
BRANCH  19  26
ATOM     23  C   UNL     1       9.866  12.544  19.158  0.00  0.00    +0.000 A 
ATOM     24  C   UNL     1       9.578  11.950  17.933  0.00  0.00    +0.000 A 
ATOM     25  C   UNL     1       9.187  10.613  17.866  0.00  0.00    +0.000 A 
ATOM     26  C   UNL     1       9.100   9.837  19.023  0.00  0.00    +0.000 A 
ATOM     27  C   UNL     1       9.366  10.439  20.258  0.00  0.00    +0.000 A 
ATOM     28  C   UNL     1       9.763  11.785  20.324  0.00  0.00    +0.000 A 
BRANCH  23  30
ATOM     29  C   UNL     1      11.508  14.154  19.706  0.00  0.00    +0.000 C 
ATOM     30  O   UNL     1      10.272  13.846  19.079  0.00  0.00    +0.000 OA
ENDBRANCH  23  30
ENDBRANCH  19  26
ENDBRANCH  18  20
ENDBRANCH  17  18
ENDBRANCH   1  17
TORSDOF 6
ENDMDL
MODEL 7
REMARK VINA RESULT:      -8.0      3.091      6.868
REMARK  Name = 
REMARK  7 active torsions:
REMARK  status: ('A' for Active; 'I' for Inactive)
REMARK    1  A    between atoms: C_1  and  O_2
REMARK    2  A    between atoms: O_2  and  C_3
REMARK    3  A    between atoms: C_6  and  N_7
REMARK    4  A    between atoms: C_8  and  C_10
REMARK    5  A    between atoms: C_10  and  S_11
REMARK    6  A    between atoms: S_11  and  C_12
REMARK    7  A    between atoms: C_14  and  C_15
REMARK                            x       y       z     vdW  Elec       q    Type
REMARK                         _______ _______ _______ _____ _____    ______ ____
ROOT
ATOM      1  C   UNL     1       5.470   4.296  16.391  0.00  0.00    +0.000 A 
ATOM      2  N   UNL     1       6.101   5.127  17.169  0.00  0.00    +0.000 NA
ATOM      3  C   UNL     1       6.984   6.006  16.536  0.00  0.00    +0.000 A 
ATOM      4  N   UNL     1       7.301   6.009  15.270  0.00  0.00    +0.000 NA
ATOM      5  C   UNL     1       6.689   5.039  14.544  0.00  0.00    +0.000 A 
ATOM      6  C   UNL     1       7.070   4.622  13.331  0.00  0.00    +0.000 A 
ATOM      7  C   UNL     1       6.231   3.424  13.078  0.00  0.00    +0.000 A 
ATOM      8  O   UNL     1       6.205   2.790  12.040  0.00  0.00    +0.000 OA
ATOM      9  N   UNL     1       5.504   3.180  14.228  0.00  0.00    +0.000 N 
ATOM     10  N   UNL     1       5.666   4.277  15.038  0.00  0.00    +0.000 N 
ATOM     11  H   UNL     1       4.690   2.585  14.283  0.00  0.00    +0.000 HD
ENDROOT
BRANCH   3  12
ATOM     12  C   UNL     1       7.577   6.980  17.428  0.00  0.00    +0.000 A 
ATOM     13  C   UNL     1       8.173   6.879  18.672  0.00  0.00    +0.000 A 
ATOM     14  C   UNL     1       8.576   8.186  19.049  0.00  0.00    +0.000 A 
ATOM     15  C   UNL     1       8.198   9.012  18.020  0.00  0.00    +0.000 A 
ATOM     16  O   UNL     1       7.596   8.298  17.037  0.00  0.00    +0.000 OA
ENDBRANCH   3  12
BRANCH   1  17
ATOM     17  S   UNL     1       4.273   3.167  17.028  0.00  0.00    +0.000 S 
BRANCH  17  18
ATOM     18  C   UNL     1       3.834   3.871  18.628  0.00  0.00    +0.000 C 
BRANCH  18  20
ATOM     19  N   UNL     1       3.316   6.258  18.828  0.00  0.00    +0.000 N 
ATOM     20  C   UNL     1       2.819   4.991  18.547  0.00  0.00    +0.000 C 
ATOM     21  O   UNL     1       1.680   4.750  18.152  0.00  0.00    +0.000 OA
ATOM     22  H   UNL     1       4.323   6.366  18.877  0.00  0.00    +0.000 HD
BRANCH  19  26
ATOM     23  C   UNL     1       1.008   9.789  19.106  0.00  0.00    +0.000 A 
ATOM     24  C   UNL     1       1.648   9.467  17.913  0.00  0.00    +0.000 A 
ATOM     25  C   UNL     1       2.397   8.295  17.803  0.00  0.00    +0.000 A 
ATOM     26  C   UNL     1       2.539   7.435  18.893  0.00  0.00    +0.000 A 
ATOM     27  C   UNL     1       1.876   7.746  20.086  0.00  0.00    +0.000 A 
ATOM     28  C   UNL     1       1.125   8.928  20.197  0.00  0.00    +0.000 A 
BRANCH  23  30
ATOM     29  C   UNL     1       1.146  12.150  19.082  0.00  0.00    +0.000 C 
ATOM     30  O   UNL     1       0.339  10.980  19.090  0.00  0.00    +0.000 OA
ENDBRANCH  23  30
ENDBRANCH  19  26
ENDBRANCH  18  20
ENDBRANCH  17  18
ENDBRANCH   1  17
TORSDOF 6
ENDMDL
MODEL 8
REMARK VINA RESULT:      -7.9      4.996      7.674
REMARK  Name = 
REMARK  7 active torsions:
REMARK  status: ('A' for Active; 'I' for Inactive)
REMARK    1  A    between atoms: C_1  and  O_2
REMARK    2  A    between atoms: O_2  and  C_3
REMARK    3  A    between atoms: C_6  and  N_7
REMARK    4  A    between atoms: C_8  and  C_10
REMARK    5  A    between atoms: C_10  and  S_11
REMARK    6  A    between atoms: S_11  and  C_12
REMARK    7  A    between atoms: C_14  and  C_15
REMARK                            x       y       z     vdW  Elec       q    Type
REMARK                         _______ _______ _______ _____ _____    ______ ____
ROOT
ATOM      1  C   UNL     1       2.907   5.804  19.052  0.00  0.00    +0.000 A 
ATOM      2  N   UNL     1       3.736   5.834  18.050  0.00  0.00    +0.000 NA
ATOM      3  C   UNL     1       4.197   4.594  17.601  0.00  0.00    +0.000 A 
ATOM      4  N   UNL     1       3.954   3.433  18.145  0.00  0.00    +0.000 NA
ATOM      5  C   UNL     1       3.175   3.495  19.255  0.00  0.00    +0.000 A 
ATOM      6  C   UNL     1       3.045   2.522  20.165  0.00  0.00    +0.000 A 
ATOM      7  C   UNL     1       2.279   3.155  21.267  0.00  0.00    +0.000 A 
ATOM      8  O   UNL     1       1.872   2.583  22.260  0.00  0.00    +0.000 OA
ATOM      9  N   UNL     1       2.123   4.490  20.946  0.00  0.00    +0.000 N 
ATOM     10  N   UNL     1       2.519   4.631  19.638  0.00  0.00    +0.000 N 
ATOM     11  H   UNL     1       1.458   5.116  21.378  0.00  0.00    +0.000 HD
ENDROOT
BRANCH   3  12
ATOM     12  C   UNL     1       5.027   4.674  16.418  0.00  0.00    +0.000 A 
ATOM     13  C   UNL     1       5.419   5.727  15.609  0.00  0.00    +0.000 A 
ATOM     14  C   UNL     1       6.250   5.187  14.595  0.00  0.00    +0.000 A 
ATOM     15  C   UNL     1       6.315   3.836  14.834  0.00  0.00    +0.000 A 
ATOM     16  O   UNL     1       5.584   3.515  15.930  0.00  0.00    +0.000 OA
ENDBRANCH   3  12
BRANCH   1  17
ATOM     17  S   UNL     1       2.183   7.280  19.694  0.00  0.00    +0.000 S 
BRANCH  17  18
ATOM     18  C   UNL     1       2.336   8.453  18.334  0.00  0.00    +0.000 C 
BRANCH  18  20
ATOM     19  N   UNL     1       0.406   9.564  19.361  0.00  0.00    +0.000 N 
ATOM     20  C   UNL     1       1.490   9.698  18.500  0.00  0.00    +0.000 C 
ATOM     21  O   UNL     1       1.847  10.749  17.972  0.00  0.00    +0.000 OA
ATOM     22  H   UNL     1       0.371   8.734  19.943  0.00  0.00    +0.000 HD
BRANCH  19  26
ATOM     23  C   UNL     1      -2.547  12.511  20.043  0.00  0.00    +0.000 A 
ATOM     24  C   UNL     1      -1.560  12.279  20.996  0.00  0.00    +0.000 A 
ATOM     25  C   UNL     1      -0.570  11.323  20.775  0.00  0.00    +0.000 A 
ATOM     26  C   UNL     1      -0.561  10.563  19.604  0.00  0.00    +0.000 A 
ATOM     27  C   UNL     1      -1.538  10.812  18.634  0.00  0.00    +0.000 A 
ATOM     28  C   UNL     1      -2.538  11.773  18.859  0.00  0.00    +0.000 A 
BRANCH  23  30
ATOM     29  C   UNL     1      -4.414  13.049  21.390  0.00  0.00    +0.000 C 
ATOM     30  O   UNL     1      -3.476  13.446  20.400  0.00  0.00    +0.000 OA
ENDBRANCH  23  30
ENDBRANCH  19  26
ENDBRANCH  18  20
ENDBRANCH  17  18
ENDBRANCH   1  17
TORSDOF 6
ENDMDL
MODEL 9
REMARK VINA RESULT:      -7.9      2.776      4.335
REMARK  Name = 
REMARK  7 active torsions:
REMARK  status: ('A' for Active; 'I' for Inactive)
REMARK    1  A    between atoms: C_1  and  O_2
REMARK    2  A    between atoms: O_2  and  C_3
REMARK    3  A    between atoms: C_6  and  N_7
REMARK    4  A    between atoms: C_8  and  C_10
REMARK    5  A    between atoms: C_10  and  S_11
REMARK    6  A    between atoms: S_11  and  C_12
REMARK    7  A    between atoms: C_14  and  C_15
REMARK                            x       y       z     vdW  Elec       q    Type
REMARK                         _______ _______ _______ _____ _____    ______ ____
ROOT
ATOM      1  C   UNL     1       5.843   5.028  17.833  0.00  0.00    +0.000 A 
ATOM      2  N   UNL     1       6.431   4.920  16.677  0.00  0.00    +0.000 NA
ATOM      3  C   UNL     1       5.643   4.429  15.633  0.00  0.00    +0.000 A 
ATOM      4  N   UNL     1       4.419   3.984  15.728  0.00  0.00    +0.000 NA
ATOM      5  C   UNL     1       3.913   4.022  16.987  0.00  0.00    +0.000 A 
ATOM      6  C   UNL     1       2.837   3.347  17.410  0.00  0.00    +0.000 A 
ATOM      7  C   UNL     1       2.837   3.549  18.881  0.00  0.00    +0.000 A 
ATOM      8  O   UNL     1       1.969   3.168  19.642  0.00  0.00    +0.000 OA
ATOM      9  N   UNL     1       3.990   4.241  19.202  0.00  0.00    +0.000 N 
ATOM     10  N   UNL     1       4.535   4.672  18.017  0.00  0.00    +0.000 N 
ATOM     11  H   UNL     1       4.153   4.720  20.076  0.00  0.00    +0.000 HD
ENDROOT
BRANCH   3  12
ATOM     12  C   UNL     1       6.309   4.431  14.348  0.00  0.00    +0.000 A 
ATOM     13  C   UNL     1       6.136   3.686  13.194  0.00  0.00    +0.000 A 
ATOM     14  C   UNL     1       7.087   4.151  12.251  0.00  0.00    +0.000 A 
ATOM     15  C   UNL     1       7.792   5.147  12.881  0.00  0.00    +0.000 A 
ATOM     16  O   UNL     1       7.332   5.326  14.143  0.00  0.00    +0.000 OA
ENDBRANCH   3  12
BRANCH   1  17
ATOM     17  S   UNL     1       6.682   5.693  19.235  0.00  0.00    +0.000 S 
BRANCH  17  18
ATOM     18  C   UNL     1       8.197   6.376  18.538  0.00  0.00    +0.000 C 
BRANCH  18  20
ATOM     19  N   UNL     1       8.990   8.633  19.071  0.00  0.00    +0.000 N 
ATOM     20  C   UNL     1       8.137   7.867  18.285  0.00  0.00    +0.000 C 
ATOM     21  O   UNL     1       7.444   8.299  17.366  0.00  0.00    +0.000 OA
ATOM     22  H   UNL     1       9.704   8.145  19.600  0.00  0.00    +0.000 HD
BRANCH  19  26
ATOM     23  C   UNL     1       9.210  12.855  19.121  0.00  0.00    +0.000 A 
ATOM     24  C   UNL     1       8.996  12.182  17.921  0.00  0.00    +0.000 A 
ATOM     25  C   UNL     1       8.903  10.791  17.894  0.00  0.00    +0.000 A 
ATOM     26  C   UNL     1       9.045  10.045  19.065  0.00  0.00    +0.000 A 
ATOM     27  C   UNL     1       9.236  10.721  20.275  0.00  0.00    +0.000 A 
ATOM     28  C   UNL     1       9.333  12.122  20.301  0.00  0.00    +0.000 A 
BRANCH  23  30
ATOM     29  C   UNL     1      10.630  14.720  18.809  0.00  0.00    +0.000 C 
ATOM     30  O   UNL     1       9.318  14.211  19.002  0.00  0.00    +0.000 OA
ENDBRANCH  23  30
ENDBRANCH  19  26
ENDBRANCH  18  20
ENDBRANCH  17  18
ENDBRANCH   1  17
TORSDOF 6
ENDMDL
