MODEL 1
REMARK VINA RESULT:      -7.9      0.000      0.000
REMARK  Name = 
REMARK  3 active torsions:
REMARK  status: ('A' for Active; 'I' for Inactive)
REMARK    1  A    between atoms: C_2  and  C_3
REMARK    2  A    between atoms: N_6  and  S_7
REMARK    3  A    between atoms: S_7  and  C_10
REMARK                            x       y       z     vdW  Elec       q    Type
REMARK                         _______ _______ _______ _____ _____    ______ ____
ROOT
ATOM      1  C   UNL     1       1.243   5.549  20.087  0.00  0.00    +0.000 C 
ATOM      2  C   UNL     1       2.260   5.214  21.186  0.00  0.00    +0.000 C 
ATOM      3  C   UNL     1       3.384   4.289  20.720  0.00  0.00    +0.000 C 
ATOM      4  N   UNL     1       2.922   3.123  19.910  0.00  0.00    +0.000 NA
ATOM      5  C   UNL     1       1.799   3.373  18.968  0.00  0.00    +0.000 C 
ATOM      6  C   UNL     1       0.697   4.213  19.588  0.00  0.00    +0.000 C 
ENDROOT
BRANCH   1   8
ATOM      7  O   UNL     1       2.360   5.865  17.973  0.00  0.00    +0.000 OA
ATOM      8  C   UNL     1       1.857   6.400  18.957  0.00  0.00    +0.000 C 
ATOM      9  N   UNL     1       1.781   7.782  19.055  0.00  0.00    +0.000 N 
ATOM     10  C   UNL     1       2.082   8.576  17.848  0.00  0.00    +0.000 C 
ATOM     11  C   UNL     1       2.192  10.096  18.081  0.00  0.00    +0.000 C 
ATOM     12  C   UNL     1       1.069  10.568  18.969  0.00  0.00    +0.000 A 
ATOM     13  C   UNL     1       0.380  11.763  18.754  0.00  0.00    +0.000 A 
ATOM     14  C   UNL     1      -0.690  12.101  19.585  0.00  0.00    +0.000 A 
ATOM     15  C   UNL     1      -1.066  11.254  20.629  0.00  0.00    +0.000 A 
ATOM     16  C   UNL     1      -0.351  10.081  20.875  0.00  0.00    +0.000 A 
ATOM     17  C   UNL     1       0.729   9.744  20.058  0.00  0.00    +0.000 A 
ATOM     18  C   UNL     1       1.580   8.525  20.296  0.00  0.00    +0.000 C 
ENDBRANCH   1   8
BRANCH   4  19
ATOM     19  S   UNL     1       4.212   2.301  19.094  0.00  0.00    +0.000 S 
ATOM     20  O   UNL     1       5.283   2.048  20.033  0.00  0.00    +0.000 OA
ATOM     21  O   UNL     1       3.624   1.200  18.355  0.00  0.00    +0.000 OA
BRANCH  19  22
ATOM     22  C   UNL     1       4.801   3.467  17.929  0.00  0.00    +0.000 A 
ATOM     23  C   UNL     1       4.310   3.480  16.605  0.00  0.00    +0.000 A 
ATOM     24  C   UNL     1       4.797   4.366  15.617  0.00  0.00    +0.000 A 
ATOM     25  C   UNL     1       5.812   5.306  15.870  0.00  0.00    +0.000 A 
ATOM     26  C   UNL     1       6.331   5.336  17.187  0.00  0.00    +0.000 A 
ATOM     27  N   UNL     1       7.295   6.157  17.626  0.00  0.00    +0.000 NA
ATOM     28  S   UNL     1       7.541   5.786  19.223  0.00  0.00    +0.000 S 
ATOM     29  N   UNL     1       6.427   4.580  19.432  0.00  0.00    +0.000 NA
ATOM     30  C   UNL     1       5.816   4.394  18.249  0.00  0.00    +0.000 A 
ENDBRANCH  19  22
ENDBRANCH   4  19
TORSDOF 3
ENDMDL
MODEL 2
REMARK VINA RESULT:      -7.7      5.154      9.606
REMARK  Name = 
REMARK  3 active torsions:
REMARK  status: ('A' for Active; 'I' for Inactive)
REMARK    1  A    between atoms: C_2  and  C_3
REMARK    2  A    between atoms: N_6  and  S_7
REMARK    3  A    between atoms: S_7  and  C_10
REMARK                            x       y       z     vdW  Elec       q    Type
REMARK                         _______ _______ _______ _____ _____    ______ ____
ROOT
ATOM      1  C   UNL     1       1.620   9.273  18.228  0.00  0.00    +0.000 C 
ATOM      2  C   UNL     1       2.082  10.735  18.287  0.00  0.00    +0.000 C 
ATOM      3  C   UNL     1       1.098  11.661  19.001  0.00  0.00    +0.000 C 
ATOM      4  N   UNL     1      -0.327  11.465  18.603  0.00  0.00    +0.000 NA
ATOM      5  C   UNL     1      -0.758  10.065  18.348  0.00  0.00    +0.000 C 
ATOM      6  C   UNL     1       0.258   9.283  17.536  0.00  0.00    +0.000 C 
ENDROOT
BRANCH   1   8
ATOM      7  O   UNL     1       1.141   9.229  20.591  0.00  0.00    +0.000 OA
ATOM      8  C   UNL     1       1.574   8.614  19.620  0.00  0.00    +0.000 C 
ATOM      9  N   UNL     1       1.985   7.294  19.741  0.00  0.00    +0.000 N 
ATOM     10  C   UNL     1       1.653   6.578  20.988  0.00  0.00    +0.000 C 
ATOM     11  C   UNL     1       2.324   5.199  21.145  0.00  0.00    +0.000 C 
ATOM     12  C   UNL     1       2.237   4.430  19.851  0.00  0.00    +0.000 A 
ATOM     13  C   UNL     1       1.959   3.063  19.796  0.00  0.00    +0.000 A 
ATOM     14  C   UNL     1       1.836   2.435  18.555  0.00  0.00    +0.000 A 
ATOM     15  C   UNL     1       1.995   3.165  17.376  0.00  0.00    +0.000 A 
ATOM     16  C   UNL     1       2.318   4.522  17.428  0.00  0.00    +0.000 A 
ATOM     17  C   UNL     1       2.458   5.154  18.664  0.00  0.00    +0.000 A 
ATOM     18  C   UNL     1       2.859   6.599  18.799  0.00  0.00    +0.000 C 
ENDBRANCH   1   8
BRANCH   4  19
ATOM     19  S   UNL     1      -1.449  12.250  19.666  0.00  0.00    +0.000 S 
ATOM     20  O   UNL     1      -1.471  11.552  20.933  0.00  0.00    +0.000 OA
ATOM     21  O   UNL     1      -1.158  13.670  19.629  0.00  0.00    +0.000 OA
BRANCH  19  22
ATOM     22  C   UNL     1      -3.008  12.008  18.908  0.00  0.00    +0.000 A 
ATOM     23  C   UNL     1      -3.101  11.583  17.564  0.00  0.00    +0.000 A 
ATOM     24  C   UNL     1      -4.337  11.429  16.894  0.00  0.00    +0.000 A 
ATOM     25  C   UNL     1      -5.575  11.686  17.510  0.00  0.00    +0.000 A 
ATOM     26  C   UNL     1      -5.532  12.106  18.862  0.00  0.00    +0.000 A 
ATOM     27  N   UNL     1      -6.598  12.397  19.621  0.00  0.00    +0.000 NA
ATOM     28  S   UNL     1      -6.012  12.842  21.107  0.00  0.00    +0.000 S 
ATOM     29  N   UNL     1      -4.385  12.672  20.858  0.00  0.00    +0.000 NA
ATOM     30  C   UNL     1      -4.217  12.273  19.585  0.00  0.00    +0.000 A 
ENDBRANCH  19  22
ENDBRANCH   4  19
TORSDOF 3
ENDMDL
MODEL 3
REMARK VINA RESULT:      -7.6      4.847      9.268
REMARK  Name = 
REMARK  3 active torsions:
REMARK  status: ('A' for Active; 'I' for Inactive)
REMARK    1  A    between atoms: C_2  and  C_3
REMARK    2  A    between atoms: N_6  and  S_7
REMARK    3  A    between atoms: S_7  and  C_10
REMARK                            x       y       z     vdW  Elec       q    Type
REMARK                         _______ _______ _______ _____ _____    ______ ____
ROOT
ATOM      1  C   UNL     1       1.124   9.437  18.237  0.00  0.00    +0.000 C 
ATOM      2  C   UNL     1       2.193  10.497  17.945  0.00  0.00    +0.000 C 
ATOM      3  C   UNL     1       2.060  11.756  18.802  0.00  0.00    +0.000 C 
ATOM      4  N   UNL     1       0.666  12.279  18.910  0.00  0.00    +0.000 NA
ATOM      5  C   UNL     1      -0.418  11.264  19.000  0.00  0.00    +0.000 C 
ATOM      6  C   UNL     1      -0.226  10.120  18.021  0.00  0.00    +0.000 C 
ENDROOT
BRANCH   1   8
ATOM      7  O   UNL     1       0.910   9.465  20.639  0.00  0.00    +0.000 OA
ATOM      8  C   UNL     1       1.264   8.832  19.648  0.00  0.00    +0.000 C 
ATOM      9  N   UNL     1       1.751   7.538  19.767  0.00  0.00    +0.000 N 
ATOM     10  C   UNL     1       1.593   6.858  21.067  0.00  0.00    +0.000 C 
ATOM     11  C   UNL     1       2.345   5.518  21.195  0.00  0.00    +0.000 C 
ATOM     12  C   UNL     1       2.155   4.695  19.946  0.00  0.00    +0.000 A 
ATOM     13  C   UNL     1       1.941   3.316  19.969  0.00  0.00    +0.000 A 
ATOM     14  C   UNL     1       1.713   2.634  18.772  0.00  0.00    +0.000 A 
ATOM     15  C   UNL     1       1.706   3.324  17.559  0.00  0.00    +0.000 A 
ATOM     16  C   UNL     1       1.965   4.694  17.527  0.00  0.00    +0.000 A 
ATOM     17  C   UNL     1       2.208   5.380  18.718  0.00  0.00    +0.000 A 
ATOM     18  C   UNL     1       2.549   6.847  18.757  0.00  0.00    +0.000 C 
ENDBRANCH   1   8
BRANCH   4  19
ATOM     19  S   UNL     1       0.474  13.467  20.158  0.00  0.00    +0.000 S 
ATOM     20  O   UNL     1      -0.880  13.409  20.664  0.00  0.00    +0.000 OA
ATOM     21  O   UNL     1       1.592  13.320  21.069  0.00  0.00    +0.000 OA
BRANCH  19  22
ATOM     22  C   UNL     1       0.660  14.998  19.331  0.00  0.00    +0.000 A 
ATOM     23  C   UNL     1      -0.468  15.767  18.969  0.00  0.00    +0.000 A 
ATOM     24  C   UNL     1      -0.368  16.981  18.251  0.00  0.00    +0.000 A 
ATOM     25  C   UNL     1       0.863  17.523  17.838  0.00  0.00    +0.000 A 
ATOM     26  C   UNL     1       2.023  16.791  18.187  0.00  0.00    +0.000 A 
ATOM     27  N   UNL     1       3.283  17.139  17.889  0.00  0.00    +0.000 NA
ATOM     28  S   UNL     1       4.261  15.952  18.508  0.00  0.00    +0.000 S 
ATOM     29  N   UNL     1       3.134  14.953  19.193  0.00  0.00    +0.000 NA
ATOM     30  C   UNL     1       1.926  15.493  18.953  0.00  0.00    +0.000 A 
ENDBRANCH  19  22
ENDBRANCH   4  19
TORSDOF 3
ENDMDL
MODEL 4
REMARK VINA RESULT:      -7.5      1.793      2.262
REMARK  Name = 
REMARK  3 active torsions:
REMARK  status: ('A' for Active; 'I' for Inactive)
REMARK    1  A    between atoms: C_2  and  C_3
REMARK    2  A    between atoms: N_6  and  S_7
REMARK    3  A    between atoms: S_7  and  C_10
REMARK                            x       y       z     vdW  Elec       q    Type
REMARK                         _______ _______ _______ _____ _____    ______ ____
ROOT
ATOM      1  C   UNL     1       1.493   5.620  20.721  0.00  0.00    +0.000 C 
ATOM      2  C   UNL     1       2.804   4.980  21.192  0.00  0.00    +0.000 C 
ATOM      3  C   UNL     1       3.581   4.281  20.076  0.00  0.00    +0.000 C 
ATOM      4  N   UNL     1       2.741   3.421  19.190  0.00  0.00    +0.000 NA
ATOM      5  C   UNL     1       1.380   3.929  18.871  0.00  0.00    +0.000 C 
ATOM      6  C   UNL     1       0.672   4.499  20.087  0.00  0.00    +0.000 C 
ENDROOT
BRANCH   1   8
ATOM      7  O   UNL     1       2.043   6.605  18.589  0.00  0.00    +0.000 OA
ATOM      8  C   UNL     1       1.727   6.802  19.759  0.00  0.00    +0.000 C 
ATOM      9  N   UNL     1       1.523   8.091  20.232  0.00  0.00    +0.000 N 
ATOM     10  C   UNL     1       1.444   9.184  19.245  0.00  0.00    +0.000 C 
ATOM     11  C   UNL     1       1.436  10.604  19.846  0.00  0.00    +0.000 C 
ATOM     12  C   UNL     1       0.504  10.660  21.030  0.00  0.00    +0.000 A 
ATOM     13  C   UNL     1      -0.344  11.740  21.280  0.00  0.00    +0.000 A 
ATOM     14  C   UNL     1      -1.222  11.691  22.365  0.00  0.00    +0.000 A 
ATOM     15  C   UNL     1      -1.247  10.572  23.200  0.00  0.00    +0.000 A 
ATOM     16  C   UNL     1      -0.369   9.511  22.981  0.00  0.00    +0.000 A 
ATOM     17  C   UNL     1       0.521   9.560  21.907  0.00  0.00    +0.000 A 
ATOM     18  C   UNL     1       1.535   8.478  21.641  0.00  0.00    +0.000 C 
ENDBRANCH   1   8
BRANCH   4  19
ATOM     19  S   UNL     1       3.552   2.936  17.737  0.00  0.00    +0.000 S 
ATOM     20  O   UNL     1       3.975   1.559  17.868  0.00  0.00    +0.000 OA
ATOM     21  O   UNL     1       2.713   3.330  16.622  0.00  0.00    +0.000 OA
BRANCH  19  22
ATOM     22  C   UNL     1       4.993   3.926  17.694  0.00  0.00    +0.000 A 
ATOM     23  C   UNL     1       5.504   4.515  18.871  0.00  0.00    +0.000 A 
ATOM     24  C   UNL     1       6.633   5.367  18.874  0.00  0.00    +0.000 A 
ATOM     25  C   UNL     1       7.339   5.700  17.705  0.00  0.00    +0.000 A 
ATOM     26  C   UNL     1       6.869   5.126  16.499  0.00  0.00    +0.000 A 
ATOM     27  N   UNL     1       7.405   5.316  15.284  0.00  0.00    +0.000 NA
ATOM     28  S   UNL     1       6.486   4.437  14.220  0.00  0.00    +0.000 S 
ATOM     29  N   UNL     1       5.380   3.767  15.251  0.00  0.00    +0.000 NA
ATOM     30  C   UNL     1       5.665   4.214  16.486  0.00  0.00    +0.000 A 
ENDBRANCH  19  22
ENDBRANCH   4  19
TORSDOF 3
ENDMDL
MODEL 5
REMARK VINA RESULT:      -7.4      4.750      9.520
REMARK  Name = 
REMARK  3 active torsions:
REMARK  status: ('A' for Active; 'I' for Inactive)
REMARK    1  A    between atoms: C_2  and  C_3
REMARK    2  A    between atoms: N_6  and  S_7
REMARK    3  A    between atoms: S_7  and  C_10
REMARK                            x       y       z     vdW  Elec       q    Type
REMARK                         _______ _______ _______ _____ _____    ______ ____
ROOT
ATOM      1  C   UNL     1       1.498   9.333  17.925  0.00  0.00    +0.000 C 
ATOM      2  C   UNL     1       2.155  10.679  18.252  0.00  0.00    +0.000 C 
ATOM      3  C   UNL     1       1.639  11.318  19.541  0.00  0.00    +0.000 C 
ATOM      4  N   UNL     1       0.154  11.288  19.688  0.00  0.00    +0.000 NA
ATOM      5  C   UNL     1      -0.537  10.065  19.198  0.00  0.00    +0.000 C 
ATOM      6  C   UNL     1      -0.006   9.596  17.856  0.00  0.00    +0.000 C 
ENDROOT
BRANCH   1   8
ATOM      7  O   UNL     1       1.165   8.048  19.939  0.00  0.00    +0.000 OA
ATOM      8  C   UNL     1       1.862   8.236  18.946  0.00  0.00    +0.000 C 
ATOM      9  N   UNL     1       2.966   7.435  18.690  0.00  0.00    +0.000 N 
ATOM     10  C   UNL     1       3.128   6.207  19.492  0.00  0.00    +0.000 C 
ATOM     11  C   UNL     1       4.478   5.485  19.309  0.00  0.00    +0.000 C 
ATOM     12  C   UNL     1       4.838   5.420  17.846  0.00  0.00    +0.000 A 
ATOM     13  C   UNL     1       5.406   4.291  17.252  0.00  0.00    +0.000 A 
ATOM     14  C   UNL     1       5.654   4.287  15.878  0.00  0.00    +0.000 A 
ATOM     15  C   UNL     1       5.343   5.406  15.103  0.00  0.00    +0.000 A 
ATOM     16  C   UNL     1       4.818   6.552  15.700  0.00  0.00    +0.000 A 
ATOM     17  C   UNL     1       4.581   6.569  17.076  0.00  0.00    +0.000 A 
ATOM     18  C   UNL     1       4.068   7.787  17.798  0.00  0.00    +0.000 C 
ENDBRANCH   1   8
BRANCH   4  19
ATOM     19  S   UNL     1      -0.384  11.675  21.289  0.00  0.00    +0.000 S 
ATOM     20  O   UNL     1      -0.333  10.484  22.108  0.00  0.00    +0.000 OA
ATOM     21  O   UNL     1       0.326  12.869  21.707  0.00  0.00    +0.000 OA
BRANCH  19  22
ATOM     22  C   UNL     1      -2.069  12.102  21.089  0.00  0.00    +0.000 A 
ATOM     23  C   UNL     1      -2.615  12.319  19.805  0.00  0.00    +0.000 A 
ATOM     24  C   UNL     1      -3.955  12.720  19.599  0.00  0.00    +0.000 A 
ATOM     25  C   UNL     1      -4.855  12.938  20.657  0.00  0.00    +0.000 A 
ATOM     26  C   UNL     1      -4.356  12.725  21.965  0.00  0.00    +0.000 A 
ATOM     27  N   UNL     1      -5.054  12.876  23.100  0.00  0.00    +0.000 NA
ATOM     28  S   UNL     1      -4.018  12.517  24.344  0.00  0.00    +0.000 S 
ATOM     29  N   UNL     1      -2.646  12.140  23.499  0.00  0.00    +0.000 NA
ATOM     30  C   UNL     1      -2.927  12.296  22.194  0.00  0.00    +0.000 A 
ENDBRANCH  19  22
ENDBRANCH   4  19
TORSDOF 3
ENDMDL
MODEL 6
REMARK VINA RESULT:      -7.2      4.335      9.100
REMARK  Name = 
REMARK  3 active torsions:
REMARK  status: ('A' for Active; 'I' for Inactive)
REMARK    1  A    between atoms: C_2  and  C_3
REMARK    2  A    between atoms: N_6  and  S_7
REMARK    3  A    between atoms: S_7  and  C_10
REMARK                            x       y       z     vdW  Elec       q    Type
REMARK                         _______ _______ _______ _____ _____    ______ ____
ROOT
ATOM      1  C   UNL     1       1.017   8.163  21.314  0.00  0.00    +0.000 C 
ATOM      2  C   UNL     1      -0.502   8.304  21.150  0.00  0.00    +0.000 C 
ATOM      3  C   UNL     1      -0.925   9.593  20.446  0.00  0.00    +0.000 C 
ATOM      4  N   UNL     1      -0.227  10.818  20.938  0.00  0.00    +0.000 NA
ATOM      5  C   UNL     1       1.209  10.665  21.292  0.00  0.00    +0.000 C 
ATOM      6  C   UNL     1       1.481   9.398  22.084  0.00  0.00    +0.000 C 
ENDROOT
BRANCH   1   8
ATOM      7  O   UNL     1       2.072   8.980  19.305  0.00  0.00    +0.000 OA
ATOM      8  C   UNL     1       1.742   7.997  19.964  0.00  0.00    +0.000 C 
ATOM      9  N   UNL     1       2.059   6.715  19.536  0.00  0.00    +0.000 N 
ATOM     10  C   UNL     1       3.011   6.576  18.418  0.00  0.00    +0.000 C 
ATOM     11  C   UNL     1       3.149   5.148  17.854  0.00  0.00    +0.000 C 
ATOM     12  C   UNL     1       3.241   4.152  18.982  0.00  0.00    +0.000 A 
ATOM     13  C   UNL     1       4.110   3.059  18.963  0.00  0.00    +0.000 A 
ATOM     14  C   UNL     1       4.181   2.216  20.073  0.00  0.00    +0.000 A 
ATOM     15  C   UNL     1       3.384   2.457  21.194  0.00  0.00    +0.000 A 
ATOM     16  C   UNL     1       2.481   3.521  21.198  0.00  0.00    +0.000 A 
ATOM     17  C   UNL     1       2.394   4.360  20.087  0.00  0.00    +0.000 A 
ATOM     18  C   UNL     1       1.406   5.493  19.998  0.00  0.00    +0.000 C 
ENDBRANCH   1   8
BRANCH   4  19
ATOM     19  S   UNL     1      -0.442  12.191  19.902  0.00  0.00    +0.000 S 
ATOM     20  O   UNL     1      -0.127  13.395  20.640  0.00  0.00    +0.000 OA
ATOM     21  O   UNL     1       0.246  11.906  18.658  0.00  0.00    +0.000 OA
BRANCH  19  22
ATOM     22  C   UNL     1      -2.158  12.216  19.566  0.00  0.00    +0.000 A 
ATOM     23  C   UNL     1      -3.079  12.683  20.530  0.00  0.00    +0.000 A 
ATOM     24  C   UNL     1      -4.478  12.669  20.323  0.00  0.00    +0.000 A 
ATOM     25  C   UNL     1      -5.068  12.188  19.140  0.00  0.00    +0.000 A 
ATOM     26  C   UNL     1      -4.184  11.718  18.140  0.00  0.00    +0.000 A 
ATOM     27  N   UNL     1      -4.548  11.225  16.947  0.00  0.00    +0.000 NA
ATOM     28  S   UNL     1      -3.149  10.810  16.160  0.00  0.00    +0.000 S 
ATOM     29  N   UNL     1      -2.021  11.250  17.288  0.00  0.00    +0.000 NA
ATOM     30  C   UNL     1      -2.689  11.729  18.352  0.00  0.00    +0.000 A 
ENDBRANCH  19  22
ENDBRANCH   4  19
TORSDOF 3
ENDMDL
MODEL 7
REMARK VINA RESULT:      -7.2      4.737      8.856
REMARK  Name = 
REMARK  3 active torsions:
REMARK  status: ('A' for Active; 'I' for Inactive)
REMARK    1  A    between atoms: C_2  and  C_3
REMARK    2  A    between atoms: N_6  and  S_7
REMARK    3  A    between atoms: S_7  and  C_10
REMARK                            x       y       z     vdW  Elec       q    Type
REMARK                         _______ _______ _______ _____ _____    ______ ____
ROOT
ATOM      1  C   UNL     1       1.083   8.254  21.440  0.00  0.00    +0.000 C 
ATOM      2  C   UNL     1      -0.450   8.297  21.498  0.00  0.00    +0.000 C 
ATOM      3  C   UNL     1      -1.058   9.504  20.785  0.00  0.00    +0.000 C 
ATOM      4  N   UNL     1      -0.378  10.799  21.084  0.00  0.00    +0.000 NA
ATOM      5  C   UNL     1       1.101  10.755  21.227  0.00  0.00    +0.000 C 
ATOM      6  C   UNL     1       1.571   9.568  22.049  0.00  0.00    +0.000 C 
ENDROOT
BRANCH   1   8
ATOM      7  O   UNL     1       1.860   8.984  19.277  0.00  0.00    +0.000 OA
ATOM      8  C   UNL     1       1.612   8.030  20.010  0.00  0.00    +0.000 C 
ATOM      9  N   UNL     1       1.848   6.729  19.588  0.00  0.00    +0.000 N 
ATOM     10  C   UNL     1       2.635   6.535  18.355  0.00  0.00    +0.000 C 
ATOM     11  C   UNL     1       2.674   5.087  17.829  0.00  0.00    +0.000 C 
ATOM     12  C   UNL     1       2.908   4.127  18.969  0.00  0.00    +0.000 A 
ATOM     13  C   UNL     1       3.751   3.020  18.869  0.00  0.00    +0.000 A 
ATOM     14  C   UNL     1       3.964   2.213  19.988  0.00  0.00    +0.000 A 
ATOM     15  C   UNL     1       3.333   2.505  21.198  0.00  0.00    +0.000 A 
ATOM     16  C   UNL     1       2.454   3.585  21.290  0.00  0.00    +0.000 A 
ATOM     17  C   UNL     1       2.225   4.388  20.171  0.00  0.00    +0.000 A 
ATOM     18  C   UNL     1       1.249   5.535  20.179  0.00  0.00    +0.000 C 
ENDBRANCH   1   8
BRANCH   4  19
ATOM     19  S   UNL     1      -0.834  12.078  20.007  0.00  0.00    +0.000 S 
ATOM     20  O   UNL     1      -1.702  13.001  20.705  0.00  0.00    +0.000 OA
ATOM     21  O   UNL     1       0.378  12.564  19.376  0.00  0.00    +0.000 OA
BRANCH  19  22
ATOM     22  C   UNL     1      -1.793  11.287  18.775  0.00  0.00    +0.000 A 
ATOM     23  C   UNL     1      -1.189  10.435  17.824  0.00  0.00    +0.000 A 
ATOM     24  C   UNL     1      -1.916   9.820  16.777  0.00  0.00    +0.000 A 
ATOM     25  C   UNL     1      -3.298  10.006  16.598  0.00  0.00    +0.000 A 
ATOM     26  C   UNL     1      -3.949  10.845  17.534  0.00  0.00    +0.000 A 
ATOM     27  N   UNL     1      -5.256  11.144  17.536  0.00  0.00    +0.000 NA
ATOM     28  S   UNL     1      -5.506  12.162  18.821  0.00  0.00    +0.000 S 
ATOM     29  N   UNL     1      -3.974  12.257  19.439  0.00  0.00    +0.000 NA
ATOM     30  C   UNL     1      -3.182  11.506  18.655  0.00  0.00    +0.000 A 
ENDBRANCH  19  22
ENDBRANCH   4  19
TORSDOF 3
ENDMDL
MODEL 8
REMARK VINA RESULT:      -7.2      7.163     10.368
REMARK  Name = 
REMARK  3 active torsions:
REMARK  status: ('A' for Active; 'I' for Inactive)
REMARK    1  A    between atoms: C_2  and  C_3
REMARK    2  A    between atoms: N_6  and  S_7
REMARK    3  A    between atoms: S_7  and  C_10
REMARK                            x       y       z     vdW  Elec       q    Type
REMARK                         _______ _______ _______ _____ _____    ______ ____
ROOT
ATOM      1  C   UNL     1       3.970  15.682  17.921  0.00  0.00    +0.000 C 
ATOM      2  C   UNL     1       2.630  16.429  17.914  0.00  0.00    +0.000 C 
ATOM      3  C   UNL     1       1.688  16.010  19.043  0.00  0.00    +0.000 C 
ATOM      4  N   UNL     1       1.588  14.533  19.241  0.00  0.00    +0.000 NA
ATOM      5  C   UNL     1       2.841  13.754  19.063  0.00  0.00    +0.000 C 
ATOM      6  C   UNL     1       3.632  14.195  17.844  0.00  0.00    +0.000 C 
ENDROOT
BRANCH   1   8
ATOM      7  O   UNL     1       4.350  16.643  20.101  0.00  0.00    +0.000 OA
ATOM      8  C   UNL     1       4.832  16.032  19.151  0.00  0.00    +0.000 C 
ATOM      9  N   UNL     1       6.150  15.598  19.180  0.00  0.00    +0.000 N 
ATOM     10  C   UNL     1       6.869  15.661  20.466  0.00  0.00    +0.000 C 
ATOM     11  C   UNL     1       8.381  15.372  20.381  0.00  0.00    +0.000 C 
ATOM     12  C   UNL     1       8.632  14.179  19.495  0.00  0.00    +0.000 A 
ATOM     13  C   UNL     1       9.579  13.197  19.791  0.00  0.00    +0.000 A 
ATOM     14  C   UNL     1       9.710  12.090  18.951  0.00  0.00    +0.000 A 
ATOM     15  C   UNL     1       8.905  11.966  17.818  0.00  0.00    +0.000 A 
ATOM     16  C   UNL     1       7.989  12.967  17.493  0.00  0.00    +0.000 A 
ATOM     17  C   UNL     1       7.863  14.084  18.321  0.00  0.00    +0.000 A 
ATOM     18  C   UNL     1       6.937  15.230  18.005  0.00  0.00    +0.000 C 
ENDBRANCH   1   8
BRANCH   4  19
ATOM     19  S   UNL     1       0.819  14.092  20.730  0.00  0.00    +0.000 S 
ATOM     20  O   UNL     1       1.782  14.183  21.807  0.00  0.00    +0.000 OA
ATOM     21  O   UNL     1      -0.424  14.834  20.811  0.00  0.00    +0.000 OA
BRANCH  19  22
ATOM     22  C   UNL     1       0.417  12.402  20.528  0.00  0.00    +0.000 A 
ATOM     23  C   UNL     1       1.007  11.413  21.346  0.00  0.00    +0.000 A 
ATOM     24  C   UNL     1       0.754  10.032  21.181  0.00  0.00    +0.000 A 
ATOM     25  C   UNL     1      -0.104   9.528  20.188  0.00  0.00    +0.000 A 
ATOM     26  C   UNL     1      -0.727  10.483  19.348  0.00  0.00    +0.000 A 
ATOM     27  N   UNL     1      -1.577  10.205  18.349  0.00  0.00    +0.000 NA
ATOM     28  S   UNL     1      -2.009  11.659  17.678  0.00  0.00    +0.000 S 
ATOM     29  N   UNL     1      -1.150  12.703  18.631  0.00  0.00    +0.000 NA
ATOM     30  C   UNL     1      -0.464  11.960  19.517  0.00  0.00    +0.000 A 
ENDBRANCH  19  22
ENDBRANCH   4  19
TORSDOF 3
ENDMDL
MODEL 9
REMARK VINA RESULT:      -7.1      7.418     10.849
REMARK  Name = 
REMARK  3 active torsions:
REMARK  status: ('A' for Active; 'I' for Inactive)
REMARK    1  A    between atoms: C_2  and  C_3
REMARK    2  A    between atoms: N_6  and  S_7
REMARK    3  A    between atoms: S_7  and  C_10
REMARK                            x       y       z     vdW  Elec       q    Type
REMARK                         _______ _______ _______ _____ _____    ______ ____
ROOT
ATOM      1  C   UNL     1       5.933  15.581  19.132  0.00  0.00    +0.000 C 
ATOM      2  C   UNL     1       5.099  16.837  19.413  0.00  0.00    +0.000 C 
ATOM      3  C   UNL     1       3.823  16.561  20.208  0.00  0.00    +0.000 C 
ATOM      4  N   UNL     1       3.045  15.380  19.729  0.00  0.00    +0.000 NA
ATOM      5  C   UNL     1       3.836  14.210  19.264  0.00  0.00    +0.000 C 
ATOM      6  C   UNL     1       5.012  14.611  18.393  0.00  0.00    +0.000 C 
ENDROOT
BRANCH   1   8
ATOM      7  O   UNL     1       5.854  14.877  21.438  0.00  0.00    +0.000 OA
ATOM      8  C   UNL     1       6.529  14.971  20.417  0.00  0.00    +0.000 C 
ATOM      9  N   UNL     1       7.829  14.485  20.377  0.00  0.00    +0.000 N 
ATOM     10  C   UNL     1       8.282  13.634  21.494  0.00  0.00    +0.000 C 
ATOM     11  C   UNL     1       9.789  13.312  21.496  0.00  0.00    +0.000 C 
ATOM     12  C   UNL     1      10.243  12.944  20.105  0.00  0.00    +0.000 A 
ATOM     13  C   UNL     1      11.143  11.909  19.848  0.00  0.00    +0.000 A 
ATOM     14  C   UNL     1      11.467  11.590  18.528  0.00  0.00    +0.000 A 
ATOM     15  C   UNL     1      10.901  12.305  17.471  0.00  0.00    +0.000 A 
ATOM     16  C   UNL     1      10.037  13.370  17.726  0.00  0.00    +0.000 A 
ATOM     17  C   UNL     1       9.719  13.704  19.043  0.00  0.00    +0.000 A 
ATOM     18  C   UNL     1       8.839  14.874  19.396  0.00  0.00    +0.000 C 
ENDBRANCH   1   8
BRANCH   4  19
ATOM     19  S   UNL     1       1.821  14.868  20.843  0.00  0.00    +0.000 S 
ATOM     20  O   UNL     1       2.444  14.159  21.940  0.00  0.00    +0.000 OA
ATOM     21  O   UNL     1       0.975  16.014  21.113  0.00  0.00    +0.000 OA
BRANCH  19  22
ATOM     22  C   UNL     1       0.871  13.707  19.942  0.00  0.00    +0.000 A 
ATOM     23  C   UNL     1       0.168  14.093  18.779  0.00  0.00    +0.000 A 
ATOM     24  C   UNL     1      -0.656  13.204  18.052  0.00  0.00    +0.000 A 
ATOM     25  C   UNL     1      -0.845  11.862  18.426  0.00  0.00    +0.000 A 
ATOM     26  C   UNL     1      -0.152  11.425  19.582  0.00  0.00    +0.000 A 
ATOM     27  N   UNL     1      -0.198  10.189  20.097  0.00  0.00    +0.000 NA
ATOM     28  S   UNL     1       0.772  10.201  21.442  0.00  0.00    +0.000 S 
ATOM     29  N   UNL     1       1.304  11.767  21.421  0.00  0.00    +0.000 NA
ATOM     30  C   UNL     1       0.731  12.368  20.364  0.00  0.00    +0.000 A 
ENDBRANCH  19  22
ENDBRANCH   4  19
TORSDOF 3
ENDMDL
