MODEL 1
REMARK VINA RESULT:      -8.6      0.000      0.000
REMARK  Name = 
REMARK  3 active torsions:
REMARK  status: ('A' for Active; 'I' for Inactive)
REMARK    1  A    between atoms: C_2  and  C_12
REMARK    2  A    between atoms: N_3  and  C_4
REMARK    3  A    between atoms: C_4  and  C_5
REMARK                            x       y       z     vdW  Elec       q    Type
REMARK                         _______ _______ _______ _____ _____    ______ ____
ROOT
ATOM      1  C   UNL     1      -2.813  13.925  23.025  0.00  0.00    +0.000 C 
ATOM      2  C   UNL     1      -3.945  14.420  23.944  0.00  0.00    +0.000 C 
ATOM      3  C   UNL     1      -5.306  13.879  23.506  0.00  0.00    +0.000 C 
ATOM      4  C   UNL     1      -5.572  14.009  22.002  0.00  0.00    +0.000 C 
ATOM      5  N   UNL     1      -4.412  13.610  21.203  0.00  0.00    +0.000 N 
ATOM      6  C   UNL     1      -4.468  12.865  20.023  0.00  0.00    +0.000 A 
ATOM      7  N   UNL     1      -3.401  12.183  19.687  0.00  0.00    +0.000 NA
ATOM      8  C   UNL     1      -3.347  11.457  18.466  0.00  0.00    +0.000 A 
ATOM      9  C   UNL     1      -2.253  10.642  18.177  0.00  0.00    +0.000 A 
ATOM     10  C   UNL     1      -2.123  10.013  16.930  0.00  0.00    +0.000 A 
ATOM     11  C   UNL     1      -3.087  10.221  15.942  0.00  0.00    +0.000 A 
ATOM     12  C   UNL     1      -4.204  11.001  16.222  0.00  0.00    +0.000 A 
ATOM     13  C   UNL     1      -4.338  11.578  17.487  0.00  0.00    +0.000 A 
ATOM     14  N   UNL     1      -5.487  12.279  17.873  0.00  0.00    +0.000 N 
ATOM     15  C   UNL     1      -6.623  12.543  17.145  0.00  0.00    +0.000 A 
ATOM     16  C   UNL     1      -7.506  13.208  17.958  0.00  0.00    +0.000 A 
ATOM     17  C   UNL     1      -6.897  13.331  19.219  0.00  0.00    +0.000 A 
ATOM     18  C   UNL     1      -5.608  12.835  19.128  0.00  0.00    +0.000 A 
ATOM     19  C   UNL     1      -3.177  14.297  21.593  0.00  0.00    +0.000 C 
ENDROOT
BRANCH   1  21
ATOM     20  O   UNL     1      -3.390  11.721  23.783  0.00  0.00    +0.000 OA
ATOM     21  C   UNL     1      -2.516  12.445  23.292  0.00  0.00    +0.000 C 
ATOM     22  N   UNL     1      -1.280  11.961  22.977  0.00  0.00    +0.000 N 
ATOM     23  H   UNL     1      -0.539  12.604  22.700  0.00  0.00    +0.000 HD
BRANCH  22  24
ATOM     24  C   UNL     1      -0.879  10.578  23.073  0.00  0.00    +0.000 C 
BRANCH  24  25
ATOM     25  C   UNL     1      -0.086  10.155  21.861  0.00  0.00    +0.000 A 
ATOM     26  C   UNL     1       0.378   8.836  21.750  0.00  0.00    +0.000 A 
ATOM     27  C   UNL     1       1.065   8.413  20.614  0.00  0.00    +0.000 A 
ATOM     28  C   UNL     1       1.298   9.312  19.580  0.00  0.00    +0.000 A 
ATOM     29 CL   UNL     1       2.104   8.785  18.153  0.00  0.00    +0.000 Cl
ATOM     30  C   UNL     1       0.860  10.632  19.674  0.00  0.00    +0.000 A 
ATOM     31  C   UNL     1       0.171  11.052  20.815  0.00  0.00    +0.000 A 
ENDBRANCH  24  25
ENDBRANCH  22  24
ENDBRANCH   1  21
TORSDOF 3
ENDMDL
MODEL 2
REMARK VINA RESULT:      -8.3      1.542      2.064
REMARK  Name = 
REMARK  3 active torsions:
REMARK  status: ('A' for Active; 'I' for Inactive)
REMARK    1  A    between atoms: C_2  and  C_12
REMARK    2  A    between atoms: N_3  and  C_4
REMARK    3  A    between atoms: C_4  and  C_5
REMARK                            x       y       z     vdW  Elec       q    Type
REMARK                         _______ _______ _______ _____ _____    ______ ____
ROOT
ATOM      1  C   UNL     1      -0.625  12.854  22.020  0.00  0.00    +0.000 C 
ATOM      2  C   UNL     1      -1.357  13.367  23.273  0.00  0.00    +0.000 C 
ATOM      3  C   UNL     1      -2.842  13.006  23.248  0.00  0.00    +0.000 C 
ATOM      4  C   UNL     1      -3.531  13.304  21.912  0.00  0.00    +0.000 C 
ATOM      5  N   UNL     1      -2.725  12.871  20.769  0.00  0.00    +0.000 N 
ATOM      6  C   UNL     1      -3.225  12.251  19.623  0.00  0.00    +0.000 A 
ATOM      7  N   UNL     1      -2.401  11.503  18.931  0.00  0.00    +0.000 NA
ATOM      8  C   UNL     1      -2.808  10.895  17.711  0.00  0.00    +0.000 A 
ATOM      9  C   UNL     1      -1.960  10.009  17.049  0.00  0.00    +0.000 A 
ATOM     10  C   UNL     1      -2.291   9.492  15.787  0.00  0.00    +0.000 A 
ATOM     11  C   UNL     1      -3.476   9.886  15.162  0.00  0.00    +0.000 A 
ATOM     12  C   UNL     1      -4.351  10.740  15.822  0.00  0.00    +0.000 A 
ATOM     13  C   UNL     1      -4.026  11.204  17.099  0.00  0.00    +0.000 A 
ATOM     14  N   UNL     1      -4.910  11.974  17.864  0.00  0.00    +0.000 N 
ATOM     15  C   UNL     1      -6.171  12.416  17.542  0.00  0.00    +0.000 A 
ATOM     16  C   UNL     1      -6.679  13.084  18.629  0.00  0.00    +0.000 A 
ATOM     17  C   UNL     1      -5.708  13.026  19.644  0.00  0.00    +0.000 A 
ATOM     18  C   UNL     1      -4.577  12.418  19.126  0.00  0.00    +0.000 A 
ATOM     19  C   UNL     1      -1.355  13.394  20.797  0.00  0.00    +0.000 C 
ENDROOT
BRANCH   1  21
ATOM     20  O   UNL     1      -0.395  10.770  23.191  0.00  0.00    +0.000 OA
ATOM     21  C   UNL     1      -0.444  11.332  22.091  0.00  0.00    +0.000 C 
ATOM     22  N   UNL     1      -0.340  10.633  20.925  0.00  0.00    +0.000 N 
ATOM     23  H   UNL     1      -0.250  11.132  20.041  0.00  0.00    +0.000 HD
BRANCH  22  24
ATOM     24  C   UNL     1      -0.268   9.195  20.820  0.00  0.00    +0.000 C 
BRANCH  24  25
ATOM     25  C   UNL     1       0.850   8.771  19.900  0.00  0.00    +0.000 A 
ATOM     26  C   UNL     1       1.566   7.593  20.162  0.00  0.00    +0.000 A 
ATOM     27  C   UNL     1       2.566   7.157  19.294  0.00  0.00    +0.000 A 
ATOM     28  C   UNL     1       2.859   7.901  18.157  0.00  0.00    +0.000 A 
ATOM     29 CL   UNL     1       4.059   7.344  17.055  0.00  0.00    +0.000 Cl
ATOM     30  C   UNL     1       2.170   9.082  17.884  0.00  0.00    +0.000 A 
ATOM     31  C   UNL     1       1.169   9.516  18.756  0.00  0.00    +0.000 A 
ENDBRANCH  24  25
ENDBRANCH  22  24
ENDBRANCH   1  21
TORSDOF 3
ENDMDL
MODEL 3
REMARK VINA RESULT:      -7.3      1.313      1.452
REMARK  Name = 
REMARK  3 active torsions:
REMARK  status: ('A' for Active; 'I' for Inactive)
REMARK    1  A    between atoms: C_2  and  C_12
REMARK    2  A    between atoms: N_3  and  C_4
REMARK    3  A    between atoms: C_4  and  C_5
REMARK                            x       y       z     vdW  Elec       q    Type
REMARK                         _______ _______ _______ _____ _____    ______ ____
ROOT
ATOM      1  C   UNL     1      -1.920  15.567  22.610  0.00  0.00    +0.000 C 
ATOM      2  C   UNL     1      -2.817  16.190  23.695  0.00  0.00    +0.000 C 
ATOM      3  C   UNL     1      -4.143  15.443  23.831  0.00  0.00    +0.000 C 
ATOM      4  C   UNL     1      -4.832  15.151  22.493  0.00  0.00    +0.000 C 
ATOM      5  N   UNL     1      -3.891  14.653  21.488  0.00  0.00    +0.000 N 
ATOM      6  C   UNL     1      -4.153  13.623  20.583  0.00  0.00    +0.000 A 
ATOM      7  N   UNL     1      -3.127  12.967  20.099  0.00  0.00    +0.000 NA
ATOM      8  C   UNL     1      -3.301  11.953  19.117  0.00  0.00    +0.000 A 
ATOM      9  C   UNL     1      -2.215  11.185  18.698  0.00  0.00    +0.000 A 
ATOM     10  C   UNL     1      -2.338  10.263  17.647  0.00  0.00    +0.000 A 
ATOM     11  C   UNL     1      -3.559  10.124  16.983  0.00  0.00    +0.000 A 
ATOM     12  C   UNL     1      -4.662  10.855  17.410  0.00  0.00    +0.000 A 
ATOM     13  C   UNL     1      -4.530  11.730  18.490  0.00  0.00    +0.000 A 
ATOM     14  N   UNL     1      -5.622  12.411  19.041  0.00  0.00    +0.000 N 
ATOM     15  C   UNL     1      -6.942  12.380  18.657  0.00  0.00    +0.000 A 
ATOM     16  C   UNL     1      -7.659  13.160  19.530  0.00  0.00    +0.000 A 
ATOM     17  C   UNL     1      -6.752  13.660  20.481  0.00  0.00    +0.000 A 
ATOM     18  C   UNL     1      -5.477  13.265  20.112  0.00  0.00    +0.000 A 
ATOM     19  C   UNL     1      -2.719  15.518  21.314  0.00  0.00    +0.000 C 
ENDROOT
BRANCH   1  21
ATOM     20  O   UNL     1      -1.079  14.083  24.301  0.00  0.00    +0.000 OA
ATOM     21  C   UNL     1      -1.332  14.238  23.100  0.00  0.00    +0.000 C 
ATOM     22  N   UNL     1      -1.101  13.252  22.187  0.00  0.00    +0.000 N 
ATOM     23  H   UNL     1      -1.192  13.450  21.192  0.00  0.00    +0.000 HD
BRANCH  22  24
ATOM     24  C   UNL     1      -0.648  11.917  22.501  0.00  0.00    +0.000 C 
BRANCH  24  25
ATOM     25  C   UNL     1       0.068  11.295  21.328  0.00  0.00    +0.000 A 
ATOM     26  C   UNL     1       0.070   9.901  21.165  0.00  0.00    +0.000 A 
ATOM     27  C   UNL     1       0.679   9.312  20.060  0.00  0.00    +0.000 A 
ATOM     28  C   UNL     1       1.297  10.115  19.108  0.00  0.00    +0.000 A 
ATOM     29 CL   UNL     1       2.010   9.397  17.715  0.00  0.00    +0.000 Cl
ATOM     30  C   UNL     1       1.320  11.501  19.256  0.00  0.00    +0.000 A 
ATOM     31  C   UNL     1       0.708  12.088  20.366  0.00  0.00    +0.000 A 
ENDBRANCH  24  25
ENDBRANCH  22  24
ENDBRANCH   1  21
TORSDOF 3
ENDMDL
MODEL 4
REMARK VINA RESULT:      -7.2      3.191      5.957
REMARK  Name = 
REMARK  3 active torsions:
REMARK  status: ('A' for Active; 'I' for Inactive)
REMARK    1  A    between atoms: C_2  and  C_12
REMARK    2  A    between atoms: N_3  and  C_4
REMARK    3  A    between atoms: C_4  and  C_5
REMARK                            x       y       z     vdW  Elec       q    Type
REMARK                         _______ _______ _______ _____ _____    ______ ____
ROOT
ATOM      1  C   UNL     1      -3.403  15.254  24.546  0.00  0.00    +0.000 C 
ATOM      2  C   UNL     1      -4.013  16.471  23.828  0.00  0.00    +0.000 C 
ATOM      3  C   UNL     1      -3.977  16.306  22.309  0.00  0.00    +0.000 C 
ATOM      4  C   UNL     1      -2.626  15.828  21.767  0.00  0.00    +0.000 C 
ATOM      5  N   UNL     1      -2.071  14.733  22.565  0.00  0.00    +0.000 N 
ATOM      6  C   UNL     1      -1.424  13.609  22.046  0.00  0.00    +0.000 A 
ATOM      7  N   UNL     1      -1.416  12.524  22.780  0.00  0.00    +0.000 NA
ATOM      8  C   UNL     1      -0.718  11.358  22.360  0.00  0.00    +0.000 A 
ATOM      9  C   UNL     1      -0.816  10.176  23.093  0.00  0.00    +0.000 A 
ATOM     10  C   UNL     1      -0.043   9.052  22.766  0.00  0.00    +0.000 A 
ATOM     11  C   UNL     1       0.863   9.115  21.705  0.00  0.00    +0.000 A 
ATOM     12  C   UNL     1       0.949  10.272  20.940  0.00  0.00    +0.000 A 
ATOM     13  C   UNL     1       0.135  11.363  21.253  0.00  0.00    +0.000 A 
ATOM     14  N   UNL     1       0.088  12.516  20.458  0.00  0.00    +0.000 N 
ATOM     15  C   UNL     1       0.789  12.802  19.310  0.00  0.00    +0.000 A 
ATOM     16  C   UNL     1       0.369  14.024  18.848  0.00  0.00    +0.000 A 
ATOM     17  C   UNL     1      -0.628  14.481  19.728  0.00  0.00    +0.000 A 
ATOM     18  C   UNL     1      -0.726  13.581  20.776  0.00  0.00    +0.000 A 
ATOM     19  C   UNL     1      -1.999  15.040  23.997  0.00  0.00    +0.000 C 
ENDROOT
BRANCH   1  21
ATOM     20  O   UNL     1      -3.976  12.941  24.851  0.00  0.00    +0.000 OA
ATOM     21  C   UNL     1      -4.357  14.055  24.471  0.00  0.00    +0.000 C 
ATOM     22  N   UNL     1      -5.614  14.252  23.980  0.00  0.00    +0.000 N 
ATOM     23  H   UNL     1      -5.857  15.144  23.552  0.00  0.00    +0.000 HD
BRANCH  22  24
ATOM     24  C   UNL     1      -6.656  13.254  23.937  0.00  0.00    +0.000 C 
BRANCH  24  25
ATOM     25  C   UNL     1      -6.746  12.617  22.573  0.00  0.00    +0.000 A 
ATOM     26  C   UNL     1      -5.735  12.841  21.626  0.00  0.00    +0.000 A 
ATOM     27  C   UNL     1      -5.773  12.218  20.380  0.00  0.00    +0.000 A 
ATOM     28  C   UNL     1      -6.828  11.367  20.070  0.00  0.00    +0.000 A 
ATOM     29 CL   UNL     1      -6.858  10.557  18.552  0.00  0.00    +0.000 Cl
ATOM     30  C   UNL     1      -7.851  11.142  20.990  0.00  0.00    +0.000 A 
ATOM     31  C   UNL     1      -7.810  11.768  22.238  0.00  0.00    +0.000 A 
ENDBRANCH  24  25
ENDBRANCH  22  24
ENDBRANCH   1  21
TORSDOF 3
ENDMDL
MODEL 5
REMARK VINA RESULT:      -7.1      3.134      6.316
REMARK  Name = 
REMARK  3 active torsions:
REMARK  status: ('A' for Active; 'I' for Inactive)
REMARK    1  A    between atoms: C_2  and  C_12
REMARK    2  A    between atoms: N_3  and  C_4
REMARK    3  A    between atoms: C_4  and  C_5
REMARK                            x       y       z     vdW  Elec       q    Type
REMARK                         _______ _______ _______ _____ _____    ______ ____
ROOT
ATOM      1  C   UNL     1       0.048  14.584  18.977  0.00  0.00    +0.000 C 
ATOM      2  C   UNL     1       1.502  14.798  19.433  0.00  0.00    +0.000 C 
ATOM      3  C   UNL     1       1.695  14.424  20.902  0.00  0.00    +0.000 C 
ATOM      4  C   UNL     1       0.619  14.993  21.835  0.00  0.00    +0.000 C 
ATOM      5  N   UNL     1      -0.727  14.834  21.282  0.00  0.00    +0.000 N 
ATOM      6  C   UNL     1      -1.858  14.469  22.015  0.00  0.00    +0.000 A 
ATOM      7  N   UNL     1      -2.845  13.904  21.363  0.00  0.00    +0.000 NA
ATOM      8  C   UNL     1      -4.061  13.569  22.019  0.00  0.00    +0.000 A 
ATOM      9  C   UNL     1      -5.055  12.864  21.342  0.00  0.00    +0.000 A 
ATOM     10  C   UNL     1      -6.308  12.628  21.929  0.00  0.00    +0.000 A 
ATOM     11  C   UNL     1      -6.584  13.126  23.204  0.00  0.00    +0.000 A 
ATOM     12  C   UNL     1      -5.594  13.801  23.909  0.00  0.00    +0.000 A 
ATOM     13  C   UNL     1      -4.338  13.982  23.325  0.00  0.00    +0.000 A 
ATOM     14  N   UNL     1      -3.263  14.550  24.020  0.00  0.00    +0.000 N 
ATOM     15  C   UNL     1      -3.225  15.029  25.309  0.00  0.00    +0.000 A 
ATOM     16  C   UNL     1      -1.941  15.435  25.575  0.00  0.00    +0.000 A 
ATOM     17  C   UNL     1      -1.176  15.176  24.423  0.00  0.00    +0.000 A 
ATOM     18  C   UNL     1      -2.028  14.715  23.433  0.00  0.00    +0.000 A 
ATOM     19  C   UNL     1      -0.859  15.363  19.921  0.00  0.00    +0.000 C 
ENDROOT
BRANCH   1  21
ATOM     20  O   UNL     1       0.662  12.306  18.528  0.00  0.00    +0.000 OA
ATOM     21  C   UNL     1      -0.250  13.087  18.824  0.00  0.00    +0.000 C 
ATOM     22  N   UNL     1      -1.528  12.653  19.022  0.00  0.00    +0.000 N 
ATOM     23  H   UNL     1      -2.282  13.330  19.133  0.00  0.00    +0.000 HD
BRANCH  22  24
ATOM     24  C   UNL     1      -1.948  11.272  19.015  0.00  0.00    +0.000 C 
BRANCH  24  25
ATOM     25  C   UNL     1      -2.538  10.889  17.680  0.00  0.00    +0.000 A 
ATOM     26  C   UNL     1      -3.714  11.507  17.229  0.00  0.00    +0.000 A 
ATOM     27  C   UNL     1      -4.244  11.205  15.976  0.00  0.00    +0.000 A 
ATOM     28  C   UNL     1      -3.601  10.277  15.165  0.00  0.00    +0.000 A 
ATOM     29 CL   UNL     1      -4.223   9.934  13.596  0.00  0.00    +0.000 Cl
ATOM     30  C   UNL     1      -2.440   9.640  15.599  0.00  0.00    +0.000 A 
ATOM     31  C   UNL     1      -1.911   9.945  16.855  0.00  0.00    +0.000 A 
ENDBRANCH  24  25
ENDBRANCH  22  24
ENDBRANCH   1  21
TORSDOF 3
ENDMDL
MODEL 6
REMARK VINA RESULT:      -7.1      2.880      5.773
REMARK  Name = 
REMARK  3 active torsions:
REMARK  status: ('A' for Active; 'I' for Inactive)
REMARK    1  A    between atoms: C_2  and  C_12
REMARK    2  A    between atoms: N_3  and  C_4
REMARK    3  A    between atoms: C_4  and  C_5
REMARK                            x       y       z     vdW  Elec       q    Type
REMARK                         _______ _______ _______ _____ _____    ______ ____
ROOT
ATOM      1  C   UNL     1       0.100  11.608  21.589  0.00  0.00    +0.000 C 
ATOM      2  C   UNL     1       1.430  11.690  20.818  0.00  0.00    +0.000 C 
ATOM      3  C   UNL     1       1.228  12.217  19.397  0.00  0.00    +0.000 C 
ATOM      4  C   UNL     1       0.068  11.552  18.647  0.00  0.00    +0.000 C 
ATOM      5  N   UNL     1      -1.127  11.426  19.483  0.00  0.00    +0.000 N 
ATOM      6  C   UNL     1      -2.435  11.649  19.051  0.00  0.00    +0.000 A 
ATOM      7  N   UNL     1      -3.324  11.976  19.958  0.00  0.00    +0.000 NA
ATOM      8  C   UNL     1      -4.693  12.149  19.615  0.00  0.00    +0.000 A 
ATOM      9  C   UNL     1      -5.604  12.610  20.565  0.00  0.00    +0.000 A 
ATOM     10  C   UNL     1      -6.977  12.673  20.285  0.00  0.00    +0.000 A 
ATOM     11  C   UNL     1      -7.455  12.246  19.044  0.00  0.00    +0.000 A 
ATOM     12  C   UNL     1      -6.559  11.817  18.072  0.00  0.00    +0.000 A 
ATOM     13  C   UNL     1      -5.191  11.808  18.355  0.00  0.00    +0.000 A 
ATOM     14  N   UNL     1      -4.228  11.497  17.387  0.00  0.00    +0.000 N 
ATOM     15  C   UNL     1      -4.409  11.145  16.071  0.00  0.00    +0.000 A 
ATOM     16  C   UNL     1      -3.171  10.993  15.496  0.00  0.00    +0.000 A 
ATOM     17  C   UNL     1      -2.215  11.282  16.486  0.00  0.00    +0.000 A 
ATOM     18  C   UNL     1      -2.881  11.500  17.680  0.00  0.00    +0.000 A 
ATOM     19  C   UNL     1      -0.867  10.767  20.767  0.00  0.00    +0.000 C 
ENDROOT
BRANCH   1  21
ATOM     20  O   UNL     1       0.086  14.003  21.406  0.00  0.00    +0.000 OA
ATOM     21  C   UNL     1      -0.378  13.012  21.981  0.00  0.00    +0.000 C 
ATOM     22  N   UNL     1      -1.314  13.129  22.967  0.00  0.00    +0.000 N 
ATOM     23  H   UNL     1      -1.580  12.312  23.514  0.00  0.00    +0.000 HD
BRANCH  22  24
ATOM     24  C   UNL     1      -1.937  14.365  23.379  0.00  0.00    +0.000 C 
BRANCH  24  25
ATOM     25  C   UNL     1      -3.416  14.178  23.611  0.00  0.00    +0.000 A 
ATOM     26  C   UNL     1      -4.309  15.219  23.317  0.00  0.00    +0.000 A 
ATOM     27  C   UNL     1      -5.683  15.046  23.474  0.00  0.00    +0.000 A 
ATOM     28  C   UNL     1      -6.173  13.829  23.932  0.00  0.00    +0.000 A 
ATOM     29 CL   UNL     1      -7.872  13.592  24.083  0.00  0.00    +0.000 Cl
ATOM     30  C   UNL     1      -5.303  12.786  24.245  0.00  0.00    +0.000 A 
ATOM     31  C   UNL     1      -3.926  12.962  24.086  0.00  0.00    +0.000 A 
ENDBRANCH  24  25
ENDBRANCH  22  24
ENDBRANCH   1  21
TORSDOF 3
ENDMDL
MODEL 7
REMARK VINA RESULT:      -7.1      2.547      5.281
REMARK  Name = 
REMARK  3 active torsions:
REMARK  status: ('A' for Active; 'I' for Inactive)
REMARK    1  A    between atoms: C_2  and  C_12
REMARK    2  A    between atoms: N_3  and  C_4
REMARK    3  A    between atoms: C_4  and  C_5
REMARK                            x       y       z     vdW  Elec       q    Type
REMARK                         _______ _______ _______ _____ _____    ______ ____
ROOT
ATOM      1  C   UNL     1      -2.483   9.790  17.693  0.00  0.00    +0.000 C 
ATOM      2  C   UNL     1      -2.467   9.750  16.154  0.00  0.00    +0.000 C 
ATOM      3  C   UNL     1      -3.081  11.012  15.549  0.00  0.00    +0.000 C 
ATOM      4  C   UNL     1      -4.414  11.422  16.186  0.00  0.00    +0.000 C 
ATOM      5  N   UNL     1      -4.373  11.340  17.647  0.00  0.00    +0.000 N 
ATOM      6  C   UNL     1      -4.940  12.270  18.519  0.00  0.00    +0.000 A 
ATOM      7  N   UNL     1      -4.438  12.351  19.727  0.00  0.00    +0.000 NA
ATOM      8  C   UNL     1      -5.003  13.220  20.701  0.00  0.00    +0.000 A 
ATOM      9  C   UNL     1      -4.388  13.382  21.942  0.00  0.00    +0.000 A 
ATOM     10  C   UNL     1      -4.991  14.138  22.958  0.00  0.00    +0.000 A 
ATOM     11  C   UNL     1      -6.242  14.721  22.744  0.00  0.00    +0.000 A 
ATOM     12  C   UNL     1      -6.854  14.601  21.502  0.00  0.00    +0.000 A 
ATOM     13  C   UNL     1      -6.214  13.885  20.488  0.00  0.00    +0.000 A 
ATOM     14  N   UNL     1      -6.719  13.819  19.183  0.00  0.00    +0.000 N 
ATOM     15  C   UNL     1      -7.865  14.381  18.672  0.00  0.00    +0.000 A 
ATOM     16  C   UNL     1      -7.916  14.099  17.330  0.00  0.00    +0.000 A 
ATOM     17  C   UNL     1      -6.758  13.364  17.015  0.00  0.00    +0.000 A 
ATOM     18  C   UNL     1      -6.071  13.115  18.191  0.00  0.00    +0.000 A 
ATOM     19  C   UNL     1      -3.918  10.035  18.140  0.00  0.00    +0.000 C 
ENDROOT
BRANCH   1  21
ATOM     20  O   UNL     1      -1.485  11.965  17.890  0.00  0.00    +0.000 OA
ATOM     21  C   UNL     1      -1.427  10.773  18.213  0.00  0.00    +0.000 C 
ATOM     22  N   UNL     1      -0.442  10.299  19.028  0.00  0.00    +0.000 N 
ATOM     23  H   UNL     1      -0.340   9.295  19.171  0.00  0.00    +0.000 HD
BRANCH  22  24
ATOM     24  C   UNL     1       0.561  11.109  19.679  0.00  0.00    +0.000 C 
BRANCH  24  25
ATOM     25  C   UNL     1      -0.036  11.913  20.807  0.00  0.00    +0.000 A 
ATOM     26  C   UNL     1      -0.676  11.261  21.872  0.00  0.00    +0.000 A 
ATOM     27  C   UNL     1      -1.186  11.983  22.949  0.00  0.00    +0.000 A 
ATOM     28  C   UNL     1      -1.060  13.368  22.967  0.00  0.00    +0.000 A 
ATOM     29 CL   UNL     1      -1.644  14.262  24.317  0.00  0.00    +0.000 Cl
ATOM     30  C   UNL     1      -0.441  14.038  21.914  0.00  0.00    +0.000 A 
ATOM     31  C   UNL     1       0.069  13.311  20.835  0.00  0.00    +0.000 A 
ENDBRANCH  24  25
ENDBRANCH  22  24
ENDBRANCH   1  21
TORSDOF 3
ENDMDL
MODEL 8
REMARK VINA RESULT:      -7.0      3.798      5.470
REMARK  Name = 
REMARK  3 active torsions:
REMARK  status: ('A' for Active; 'I' for Inactive)
REMARK    1  A    between atoms: C_2  and  C_12
REMARK    2  A    between atoms: N_3  and  C_4
REMARK    3  A    between atoms: C_4  and  C_5
REMARK                            x       y       z     vdW  Elec       q    Type
REMARK                         _______ _______ _______ _____ _____    ______ ____
ROOT
ATOM      1  C   UNL     1      -1.141  13.363  23.229  0.00  0.00    +0.000 C 
ATOM      2  C   UNL     1      -2.665  13.561  23.326  0.00  0.00    +0.000 C 
ATOM      3  C   UNL     1      -3.257  14.040  22.001  0.00  0.00    +0.000 C 
ATOM      4  C   UNL     1      -2.481  15.192  21.353  0.00  0.00    +0.000 C 
ATOM      5  N   UNL     1      -1.035  14.969  21.389  0.00  0.00    +0.000 N 
ATOM      6  C   UNL     1      -0.152  15.256  20.347  0.00  0.00    +0.000 A 
ATOM      7  N   UNL     1       0.976  14.590  20.308  0.00  0.00    +0.000 NA
ATOM      8  C   UNL     1       1.963  14.872  19.324  0.00  0.00    +0.000 A 
ATOM      9  C   UNL     1       3.104  14.078  19.222  0.00  0.00    +0.000 A 
ATOM     10  C   UNL     1       4.144  14.409  18.341  0.00  0.00    +0.000 A 
ATOM     11  C   UNL     1       4.058  15.568  17.565  0.00  0.00    +0.000 A 
ATOM     12  C   UNL     1       2.912  16.353  17.626  0.00  0.00    +0.000 A 
ATOM     13  C   UNL     1       1.867  15.978  18.474  0.00  0.00    +0.000 A 
ATOM     14  N   UNL     1       0.644  16.658  18.501  0.00  0.00    +0.000 N 
ATOM     15  C   UNL     1       0.250  17.757  17.775  0.00  0.00    +0.000 A 
ATOM     16  C   UNL     1      -1.056  18.033  18.092  0.00  0.00    +0.000 A 
ATOM     17  C   UNL     1      -1.473  17.062  19.020  0.00  0.00    +0.000 A 
ATOM     18  C   UNL     1      -0.381  16.271  19.337  0.00  0.00    +0.000 A 
ATOM     19  C   UNL     1      -0.530  14.667  22.733  0.00  0.00    +0.000 C 
ENDROOT
BRANCH   1  21
ATOM     20  O   UNL     1      -1.420  11.049  22.650  0.00  0.00    +0.000 OA
ATOM     21  C   UNL     1      -0.815  12.103  22.418  0.00  0.00    +0.000 C 
ATOM     22  N   UNL     1       0.144  12.180  21.451  0.00  0.00    +0.000 N 
ATOM     23  H   UNL     1       0.717  13.019  21.371  0.00  0.00    +0.000 HD
BRANCH  22  24
ATOM     24  C   UNL     1       0.492  11.117  20.539  0.00  0.00    +0.000 C 
BRANCH  24  25
ATOM     25  C   UNL     1      -0.483  11.043  19.390  0.00  0.00    +0.000 A 
ATOM     26  C   UNL     1      -1.456  12.041  19.229  0.00  0.00    +0.000 A 
ATOM     27  C   UNL     1      -2.330  12.019  18.144  0.00  0.00    +0.000 A 
ATOM     28  C   UNL     1      -2.238  10.992  17.211  0.00  0.00    +0.000 A 
ATOM     29 CL   UNL     1      -3.282  10.984  15.842  0.00  0.00    +0.000 Cl
ATOM     30  C   UNL     1      -1.289   9.982  17.358  0.00  0.00    +0.000 A 
ATOM     31  C   UNL     1      -0.414  10.008  18.447  0.00  0.00    +0.000 A 
ENDBRANCH  24  25
ENDBRANCH  22  24
ENDBRANCH   1  21
TORSDOF 3
ENDMDL
MODEL 9
REMARK VINA RESULT:      -6.9      2.493      3.888
REMARK  Name = 
REMARK  3 active torsions:
REMARK  status: ('A' for Active; 'I' for Inactive)
REMARK    1  A    between atoms: C_2  and  C_12
REMARK    2  A    between atoms: N_3  and  C_4
REMARK    3  A    between atoms: C_4  and  C_5
REMARK                            x       y       z     vdW  Elec       q    Type
REMARK                         _______ _______ _______ _____ _____    ______ ____
ROOT
ATOM      1  C   UNL     1      -1.847  16.456  20.959  0.00  0.00    +0.000 C 
ATOM      2  C   UNL     1      -1.376  16.891  22.359  0.00  0.00    +0.000 C 
ATOM      3  C   UNL     1      -1.787  15.883  23.432  0.00  0.00    +0.000 C 
ATOM      4  C   UNL     1      -3.250  15.435  23.337  0.00  0.00    +0.000 C 
ATOM      5  N   UNL     1      -3.643  15.133  21.959  0.00  0.00    +0.000 N 
ATOM      6  C   UNL     1      -4.446  14.059  21.571  0.00  0.00    +0.000 A 
ATOM      7  N   UNL     1      -4.324  13.627  20.339  0.00  0.00    +0.000 NA
ATOM      8  C   UNL     1      -5.155  12.587  19.840  0.00  0.00    +0.000 A 
ATOM      9  C   UNL     1      -4.935  12.059  18.569  0.00  0.00    +0.000 A 
ATOM     10  C   UNL     1      -5.814  11.118  18.010  0.00  0.00    +0.000 A 
ATOM     11  C   UNL     1      -6.947  10.716  18.721  0.00  0.00    +0.000 A 
ATOM     12  C   UNL     1      -7.163  11.204  20.005  0.00  0.00    +0.000 A 
ATOM     13  C   UNL     1      -6.250  12.102  20.561  0.00  0.00    +0.000 A 
ATOM     14  N   UNL     1      -6.346  12.544  21.886  0.00  0.00    +0.000 N 
ATOM     15  C   UNL     1      -7.290  12.231  22.835  0.00  0.00    +0.000 A 
ATOM     16  C   UNL     1      -6.941  12.854  24.007  0.00  0.00    +0.000 A 
ATOM     17  C   UNL     1      -5.741  13.546  23.768  0.00  0.00    +0.000 A 
ATOM     18  C   UNL     1      -5.432  13.424  22.423  0.00  0.00    +0.000 A 
ATOM     19  C   UNL     1      -3.351  16.223  21.023  0.00  0.00    +0.000 C 
ENDROOT
BRANCH   1  21
ATOM     20  O   UNL     1       0.195  15.207  20.772  0.00  0.00    +0.000 OA
ATOM     21  C   UNL     1      -0.996  15.288  20.448  0.00  0.00    +0.000 C 
ATOM     22  N   UNL     1      -1.582  14.359  19.639  0.00  0.00    +0.000 N 
ATOM     23  H   UNL     1      -2.523  14.520  19.281  0.00  0.00    +0.000 HD
BRANCH  22  24
ATOM     24  C   UNL     1      -0.948  13.155  19.159  0.00  0.00    +0.000 C 
BRANCH  24  25
ATOM     25  C   UNL     1      -0.715  12.176  20.284  0.00  0.00    +0.000 A 
ATOM     26  C   UNL     1       0.332  11.247  20.201  0.00  0.00    +0.000 A 
ATOM     27  C   UNL     1       0.596  10.372  21.253  0.00  0.00    +0.000 A 
ATOM     28  C   UNL     1      -0.191  10.419  22.398  0.00  0.00    +0.000 A 
ATOM     29 CL   UNL     1       0.159   9.374  23.721  0.00  0.00    +0.000 Cl
ATOM     30  C   UNL     1      -1.247  11.324  22.497  0.00  0.00    +0.000 A 
ATOM     31  C   UNL     1      -1.508  12.200  21.440  0.00  0.00    +0.000 A 
ENDBRANCH  24  25
ENDBRANCH  22  24
ENDBRANCH   1  21
TORSDOF 3
ENDMDL
