MODEL 1
REMARK VINA RESULT:      -6.4      0.000      0.000
REMARK  Name = 
REMARK  13 active torsions:
REMARK  status: ('A' for Active; 'I' for Inactive)
REMARK    1  A    between atoms: C_1  and  C_2
REMARK    2  A    between atoms: C_2  and  C_3
REMARK    3  A    between atoms: C_2  and  C_4
REMARK    4  A    between atoms: C_9  and  O_10
REMARK    5  A    between atoms: O_10  and  C_11
REMARK    6  A    between atoms: C_11  and  C_12
REMARK    7  A    between atoms: C_12  and  O_13
REMARK    8  A    between atoms: C_12  and  C_14
REMARK    9  A    between atoms: C_14  and  N_15
REMARK   10  A    between atoms: N_15  and  C_16
REMARK   11  A    between atoms: N_15  and  C_17
REMARK   12  A    between atoms: C_17  and  C_18
REMARK   13  A    between atoms: C_18  and  O_19
REMARK                            x       y       z     vdW  Elec       q    Type
REMARK                         _______ _______ _______ _____ _____    ______ ____
ROOT
ATOM      1  C   UNL     1       4.513   3.901  16.428  0.00  0.00    +0.000 C 
ENDROOT
BRANCH   1   2
ATOM      2  O   UNL     1       4.367   4.077  17.846  0.00  0.00    +0.000 OA
BRANCH   2   8
ATOM      3  C   UNL     1       2.444   4.678  19.133  0.00  0.00    +0.000 A 
ATOM      4  C   UNL     1       1.250   4.274  19.768  0.00  0.00    +0.000 A 
ATOM      5  C   UNL     1       0.725   2.993  19.597  0.00  0.00    +0.000 A 
ATOM      6  C   UNL     1       1.371   2.094  18.760  0.00  0.00    +0.000 A 
ATOM      7  C   UNL     1       2.565   2.463  18.146  0.00  0.00    +0.000 A 
ATOM      8  C   UNL     1       3.141   3.727  18.358  0.00  0.00    +0.000 A 
BRANCH   3  10
ATOM      9  C   UNL     1       3.105   6.867  18.051  0.00  0.00    +0.000 C 
ATOM     10  C   UNL     1       2.876   6.124  19.369  0.00  0.00    +0.000 C 
ATOM     11  C   UNL     1       1.995   6.945  20.312  0.00  0.00    +0.000 C 
ENDBRANCH   3  10
ENDBRANCH   2   8
ENDBRANCH   1   2
BRANCH   1  12
ATOM     12  C   UNL     1       5.988   4.036  16.010  0.00  0.00    +0.000 C 
BRANCH  12  13
ATOM     13  O   UNL     1       6.207   3.462  14.710  0.00  0.00    +0.000 OA
ATOM     14  H   UNL     1       6.259   4.190  14.067  0.00  0.00    +0.000 HD
ENDBRANCH  12  13
BRANCH  12  15
ATOM     15  C   UNL     1       6.413   5.524  15.935  0.00  0.00    +0.000 C 
BRANCH  15  16
ATOM     16  N   UNL     1       7.499   5.955  16.845  0.00  0.00    +0.000 NA
ATOM     17  C   UNL     1       7.233   7.318  17.337  0.00  0.00    +0.000 C 
BRANCH  16  18
ATOM     18  C   UNL     1       7.610   5.050  18.023  0.00  0.00    +0.000 C 
BRANCH  18  19
ATOM     19  C   UNL     1       7.620   5.772  19.381  0.00  0.00    +0.000 C 
BRANCH  19  20
ATOM     20  O   UNL     1       8.579   5.187  20.259  0.00  0.00    +0.000 OA
ATOM     21  H   UNL     1       8.328   4.247  20.323  0.00  0.00    +0.000 HD
ENDBRANCH  19  20
ENDBRANCH  18  19
ENDBRANCH  16  18
ENDBRANCH  15  16
ENDBRANCH  12  15
ENDBRANCH   1  12
TORSDOF 10
ENDMDL
MODEL 2
REMARK VINA RESULT:      -6.2      2.302      5.495
REMARK  Name = 
REMARK  13 active torsions:
REMARK  status: ('A' for Active; 'I' for Inactive)
REMARK    1  A    between atoms: C_1  and  C_2
REMARK    2  A    between atoms: C_2  and  C_3
REMARK    3  A    between atoms: C_2  and  C_4
REMARK    4  A    between atoms: C_9  and  O_10
REMARK    5  A    between atoms: O_10  and  C_11
REMARK    6  A    between atoms: C_11  and  C_12
REMARK    7  A    between atoms: C_12  and  O_13
REMARK    8  A    between atoms: C_12  and  C_14
REMARK    9  A    between atoms: C_14  and  N_15
REMARK   10  A    between atoms: N_15  and  C_16
REMARK   11  A    between atoms: N_15  and  C_17
REMARK   12  A    between atoms: C_17  and  C_18
REMARK   13  A    between atoms: C_18  and  O_19
REMARK                            x       y       z     vdW  Elec       q    Type
REMARK                         _______ _______ _______ _____ _____    ______ ____
ROOT
ATOM      1  C   UNL     1       3.931   6.090  18.524  0.00  0.00    +0.000 C 
ENDROOT
BRANCH   1   2
ATOM      2  O   UNL     1       5.067   5.214  18.481  0.00  0.00    +0.000 OA
BRANCH   2   8
ATOM      3  C   UNL     1       6.802   5.457  16.853  0.00  0.00    +0.000 A 
ATOM      4  C   UNL     1       7.230   5.279  15.519  0.00  0.00    +0.000 A 
ATOM      5  C   UNL     1       6.476   4.555  14.596  0.00  0.00    +0.000 A 
ATOM      6  C   UNL     1       5.285   3.967  14.996  0.00  0.00    +0.000 A 
ATOM      7  C   UNL     1       4.830   4.152  16.299  0.00  0.00    +0.000 A 
ATOM      8  C   UNL     1       5.546   4.932  17.223  0.00  0.00    +0.000 A 
BRANCH   3  10
ATOM      9  C   UNL     1       7.551   7.740  17.641  0.00  0.00    +0.000 C 
ATOM     10  C   UNL     1       7.750   6.228  17.768  0.00  0.00    +0.000 C 
ATOM     11  C   UNL     1       7.766   5.801  19.237  0.00  0.00    +0.000 C 
ENDBRANCH   3  10
ENDBRANCH   2   8
ENDBRANCH   1   2
BRANCH   1  12
ATOM     12  C   UNL     1       2.940   5.647  19.614  0.00  0.00    +0.000 C 
BRANCH  12  13
ATOM     13  O   UNL     1       2.323   6.786  20.239  0.00  0.00    +0.000 OA
ATOM     14  H   UNL     1       2.118   6.546  21.160  0.00  0.00    +0.000 HD
ENDBRANCH  12  13
BRANCH  12  15
ATOM     15  C   UNL     1       1.805   4.777  19.017  0.00  0.00    +0.000 C 
BRANCH  15  16
ATOM     16  N   UNL     1       1.809   3.339  19.371  0.00  0.00    +0.000 NA
ATOM     17  C   UNL     1       1.947   2.521  18.155  0.00  0.00    +0.000 C 
BRANCH  16  18
ATOM     18  C   UNL     1       2.939   3.009  20.284  0.00  0.00    +0.000 C 
BRANCH  18  19
ATOM     19  C   UNL     1       3.983   2.052  19.683  0.00  0.00    +0.000 C 
BRANCH  19  20
ATOM     20  O   UNL     1       5.281   2.639  19.706  0.00  0.00    +0.000 OA
ATOM     21  H   UNL     1       5.153   3.556  19.396  0.00  0.00    +0.000 HD
ENDBRANCH  19  20
ENDBRANCH  18  19
ENDBRANCH  16  18
ENDBRANCH  15  16
ENDBRANCH  12  15
ENDBRANCH   1  12
TORSDOF 10
ENDMDL
MODEL 3
REMARK VINA RESULT:      -6.2      2.687      5.797
REMARK  Name = 
REMARK  13 active torsions:
REMARK  status: ('A' for Active; 'I' for Inactive)
REMARK    1  A    between atoms: C_1  and  C_2
REMARK    2  A    between atoms: C_2  and  C_3
REMARK    3  A    between atoms: C_2  and  C_4
REMARK    4  A    between atoms: C_9  and  O_10
REMARK    5  A    between atoms: O_10  and  C_11
REMARK    6  A    between atoms: C_11  and  C_12
REMARK    7  A    between atoms: C_12  and  O_13
REMARK    8  A    between atoms: C_12  and  C_14
REMARK    9  A    between atoms: C_14  and  N_15
REMARK   10  A    between atoms: N_15  and  C_16
REMARK   11  A    between atoms: N_15  and  C_17
REMARK   12  A    between atoms: C_17  and  C_18
REMARK   13  A    between atoms: C_18  and  O_19
REMARK                            x       y       z     vdW  Elec       q    Type
REMARK                         _______ _______ _______ _____ _____    ______ ____
ROOT
ATOM      1  C   UNL     1       4.836   4.402  19.504  0.00  0.00    +0.000 C 
ENDROOT
BRANCH   1   2
ATOM      2  O   UNL     1       4.463   5.082  18.296  0.00  0.00    +0.000 OA
BRANCH   2   8
ATOM      3  C   UNL     1       6.472   5.570  17.094  0.00  0.00    +0.000 A 
ATOM      4  C   UNL     1       7.233   5.415  15.914  0.00  0.00    +0.000 A 
ATOM      5  C   UNL     1       6.857   4.524  14.909  0.00  0.00    +0.000 A 
ATOM      6  C   UNL     1       5.722   3.743  15.076  0.00  0.00    +0.000 A 
ATOM      7  C   UNL     1       4.941   3.899  16.219  0.00  0.00    +0.000 A 
ATOM      8  C   UNL     1       5.271   4.838  17.211  0.00  0.00    +0.000 A 
BRANCH   3  10
ATOM      9  C   UNL     1       7.972   5.843  19.112  0.00  0.00    +0.000 C 
ATOM     10  C   UNL     1       7.027   6.543  18.130  0.00  0.00    +0.000 C 
ATOM     11  C   UNL     1       7.660   7.823  17.583  0.00  0.00    +0.000 C 
ENDBRANCH   3  10
ENDBRANCH   2   8
ENDBRANCH   1   2
BRANCH   1  12
ATOM     12  C   UNL     1       4.190   3.006  19.568  0.00  0.00    +0.000 C 
BRANCH  12  13
ATOM     13  O   UNL     1       5.193   1.983  19.683  0.00  0.00    +0.000 OA
ATOM     14  H   UNL     1       5.651   2.107  20.533  0.00  0.00    +0.000 HD
ENDBRANCH  12  13
BRANCH  12  15
ATOM     15  C   UNL     1       3.257   2.879  20.799  0.00  0.00    +0.000 C 
BRANCH  15  16
ATOM     16  N   UNL     1       1.801   2.837  20.531  0.00  0.00    +0.000 NA
ATOM     17  C   UNL     1       1.226   4.187  20.662  0.00  0.00    +0.000 C 
BRANCH  16  18
ATOM     18  C   UNL     1       1.517   2.343  19.155  0.00  0.00    +0.000 C 
BRANCH  18  19
ATOM     19  C   UNL     1       0.890   3.391  18.219  0.00  0.00    +0.000 C 
BRANCH  19  20
ATOM     20  O   UNL     1       1.804   3.764  17.191  0.00  0.00    +0.000 OA
ATOM     21  H   UNL     1       1.297   3.693  16.360  0.00  0.00    +0.000 HD
ENDBRANCH  19  20
ENDBRANCH  18  19
ENDBRANCH  16  18
ENDBRANCH  15  16
ENDBRANCH  12  15
ENDBRANCH   1  12
TORSDOF 10
ENDMDL
MODEL 4
REMARK VINA RESULT:      -6.1      1.089      1.133
REMARK  Name = 
REMARK  13 active torsions:
REMARK  status: ('A' for Active; 'I' for Inactive)
REMARK    1  A    between atoms: C_1  and  C_2
REMARK    2  A    between atoms: C_2  and  C_3
REMARK    3  A    between atoms: C_2  and  C_4
REMARK    4  A    between atoms: C_9  and  O_10
REMARK    5  A    between atoms: O_10  and  C_11
REMARK    6  A    between atoms: C_11  and  C_12
REMARK    7  A    between atoms: C_12  and  O_13
REMARK    8  A    between atoms: C_12  and  C_14
REMARK    9  A    between atoms: C_14  and  N_15
REMARK   10  A    between atoms: N_15  and  C_16
REMARK   11  A    between atoms: N_15  and  C_17
REMARK   12  A    between atoms: C_17  and  C_18
REMARK   13  A    between atoms: C_18  and  O_19
REMARK                            x       y       z     vdW  Elec       q    Type
REMARK                         _______ _______ _______ _____ _____    ______ ____
ROOT
ATOM      1  C   UNL     1       4.771   4.243  16.104  0.00  0.00    +0.000 C 
ENDROOT
BRANCH   1   2
ATOM      2  O   UNL     1       4.003   5.069  16.991  0.00  0.00    +0.000 OA
BRANCH   2   8
ATOM      3  C   UNL     1       2.386   5.110  18.752  0.00  0.00    +0.000 A 
ATOM      4  C   UNL     1       1.476   4.397  19.564  0.00  0.00    +0.000 A 
ATOM      5  C   UNL     1       1.156   3.063  19.311  0.00  0.00    +0.000 A 
ATOM      6  C   UNL     1       1.720   2.419  18.220  0.00  0.00    +0.000 A 
ATOM      7  C   UNL     1       2.641   3.094  17.422  0.00  0.00    +0.000 A 
ATOM      8  C   UNL     1       3.022   4.417  17.701  0.00  0.00    +0.000 A 
BRANCH   3  10
ATOM      9  C   UNL     1       2.188   7.508  17.972  0.00  0.00    +0.000 C 
ATOM     10  C   UNL     1       2.604   6.577  19.114  0.00  0.00    +0.000 C 
ATOM     11  C   UNL     1       2.003   7.040  20.442  0.00  0.00    +0.000 C 
ENDBRANCH   3  10
ENDBRANCH   2   8
ENDBRANCH   1   2
BRANCH   1  12
ATOM     12  C   UNL     1       6.180   4.826  15.895  0.00  0.00    +0.000 C 
BRANCH  12  13
ATOM     13  O   UNL     1       6.412   5.121  14.507  0.00  0.00    +0.000 OA
ATOM     14  H   UNL     1       5.721   5.739  14.213  0.00  0.00    +0.000 HD
ENDBRANCH  12  13
BRANCH  12  15
ATOM     15  C   UNL     1       6.359   6.148  16.684  0.00  0.00    +0.000 C 
BRANCH  15  16
ATOM     16  N   UNL     1       7.644   6.332  17.396  0.00  0.00    +0.000 NA
ATOM     17  C   UNL     1       7.815   7.745  17.772  0.00  0.00    +0.000 C 
BRANCH  16  18
ATOM     18  C   UNL     1       7.697   5.512  18.639  0.00  0.00    +0.000 C 
BRANCH  18  19
ATOM     19  C   UNL     1       6.339   5.325  19.336  0.00  0.00    +0.000 C 
BRANCH  19  20
ATOM     20  O   UNL     1       5.934   3.959  19.299  0.00  0.00    +0.000 OA
ATOM     21  H   UNL     1       6.489   3.546  18.610  0.00  0.00    +0.000 HD
ENDBRANCH  19  20
ENDBRANCH  18  19
ENDBRANCH  16  18
ENDBRANCH  15  16
ENDBRANCH  12  15
ENDBRANCH   1  12
TORSDOF 10
ENDMDL
MODEL 5
REMARK VINA RESULT:      -6.1      2.551      5.575
REMARK  Name = 
REMARK  13 active torsions:
REMARK  status: ('A' for Active; 'I' for Inactive)
REMARK    1  A    between atoms: C_1  and  C_2
REMARK    2  A    between atoms: C_2  and  C_3
REMARK    3  A    between atoms: C_2  and  C_4
REMARK    4  A    between atoms: C_9  and  O_10
REMARK    5  A    between atoms: O_10  and  C_11
REMARK    6  A    between atoms: C_11  and  C_12
REMARK    7  A    between atoms: C_12  and  O_13
REMARK    8  A    between atoms: C_12  and  C_14
REMARK    9  A    between atoms: C_14  and  N_15
REMARK   10  A    between atoms: N_15  and  C_16
REMARK   11  A    between atoms: N_15  and  C_17
REMARK   12  A    between atoms: C_17  and  C_18
REMARK   13  A    between atoms: C_18  and  O_19
REMARK                            x       y       z     vdW  Elec       q    Type
REMARK                         _______ _______ _______ _____ _____    ______ ____
ROOT
ATOM      1  C   UNL     1       3.177   6.631  17.880  0.00  0.00    +0.000 C 
ENDROOT
BRANCH   1   2
ATOM      2  O   UNL     1       4.450   7.046  17.364  0.00  0.00    +0.000 OA
BRANCH   2   8
ATOM      3  C   UNL     1       6.555   5.925  17.184  0.00  0.00    +0.000 A 
ATOM      4  C   UNL     1       7.363   4.992  16.499  0.00  0.00    +0.000 A 
ATOM      5  C   UNL     1       6.846   4.164  15.503  0.00  0.00    +0.000 A 
ATOM      6  C   UNL     1       5.497   4.233  15.188  0.00  0.00    +0.000 A 
ATOM      7  C   UNL     1       4.687   5.166  15.831  0.00  0.00    +0.000 A 
ATOM      8  C   UNL     1       5.206   6.051  16.791  0.00  0.00    +0.000 A 
BRANCH   3  10
ATOM      9  C   UNL     1       8.093   5.836  19.190  0.00  0.00    +0.000 C 
ATOM     10  C   UNL     1       7.241   6.730  18.285  0.00  0.00    +0.000 C 
ATOM     11  C   UNL     1       8.033   7.957  17.830  0.00  0.00    +0.000 C 
ENDBRANCH   3  10
ENDBRANCH   2   8
ENDBRANCH   1   2
BRANCH   1  12
ATOM     12  C   UNL     1       3.353   5.763  19.139  0.00  0.00    +0.000 C 
BRANCH  12  13
ATOM     13  O   UNL     1       2.787   6.410  20.291  0.00  0.00    +0.000 OA
ATOM     14  H   UNL     1       3.430   7.065  20.612  0.00  0.00    +0.000 HD
ENDBRANCH  12  13
BRANCH  12  15
ATOM     15  C   UNL     1       2.640   4.397  18.979  0.00  0.00    +0.000 C 
BRANCH  15  16
ATOM     16  N   UNL     1       2.157   3.746  20.218  0.00  0.00    +0.000 NA
ATOM     17  C   UNL     1       0.853   3.106  19.977  0.00  0.00    +0.000 C 
BRANCH  16  18
ATOM     18  C   UNL     1       3.108   2.700  20.688  0.00  0.00    +0.000 C 
BRANCH  18  19
ATOM     19  C   UNL     1       4.035   2.146  19.593  0.00  0.00    +0.000 C 
BRANCH  19  20
ATOM     20  O   UNL     1       5.257   1.674  20.155  0.00  0.00    +0.000 OA
ATOM     21  H   UNL     1       5.962   2.120  19.647  0.00  0.00    +0.000 HD
ENDBRANCH  19  20
ENDBRANCH  18  19
ENDBRANCH  16  18
ENDBRANCH  15  16
ENDBRANCH  12  15
ENDBRANCH   1  12
TORSDOF 10
ENDMDL
MODEL 6
REMARK VINA RESULT:      -6.0      1.064      2.717
REMARK  Name = 
REMARK  13 active torsions:
REMARK  status: ('A' for Active; 'I' for Inactive)
REMARK    1  A    between atoms: C_1  and  C_2
REMARK    2  A    between atoms: C_2  and  C_3
REMARK    3  A    between atoms: C_2  and  C_4
REMARK    4  A    between atoms: C_9  and  O_10
REMARK    5  A    between atoms: O_10  and  C_11
REMARK    6  A    between atoms: C_11  and  C_12
REMARK    7  A    between atoms: C_12  and  O_13
REMARK    8  A    between atoms: C_12  and  C_14
REMARK    9  A    between atoms: C_14  and  N_15
REMARK   10  A    between atoms: N_15  and  C_16
REMARK   11  A    between atoms: N_15  and  C_17
REMARK   12  A    between atoms: C_17  and  C_18
REMARK   13  A    between atoms: C_18  and  O_19
REMARK                            x       y       z     vdW  Elec       q    Type
REMARK                         _______ _______ _______ _____ _____    ______ ____
ROOT
ATOM      1  C   UNL     1       4.362   3.718  17.264  0.00  0.00    +0.000 C 
ENDROOT
BRANCH   1   2
ATOM      2  O   UNL     1       4.486   3.903  18.682  0.00  0.00    +0.000 OA
BRANCH   2   8
ATOM      3  C   UNL     1       2.523   4.212  20.013  0.00  0.00    +0.000 A 
ATOM      4  C   UNL     1       1.513   5.082  20.478  0.00  0.00    +0.000 A 
ATOM      5  C   UNL     1       1.565   6.457  20.248  0.00  0.00    +0.000 A 
ATOM      6  C   UNL     1       2.647   6.998  19.569  0.00  0.00    +0.000 A 
ATOM      7  C   UNL     1       3.641   6.155  19.078  0.00  0.00    +0.000 A 
ATOM      8  C   UNL     1       3.572   4.761  19.245  0.00  0.00    +0.000 A 
BRANCH   3  10
ATOM      9  C   UNL     1       1.594   2.564  21.691  0.00  0.00    +0.000 C 
ATOM     10  C   UNL     1       2.364   2.739  20.380  0.00  0.00    +0.000 C 
ATOM     11  C   UNL     1       1.797   1.830  19.288  0.00  0.00    +0.000 C 
ENDBRANCH   3  10
ENDBRANCH   2   8
ENDBRANCH   1   2
BRANCH   1  12
ATOM     12  C   UNL     1       5.723   3.898  16.568  0.00  0.00    +0.000 C 
BRANCH  12  13
ATOM     13  O   UNL     1       5.819   3.060  15.404  0.00  0.00    +0.000 OA
ATOM     14  H   UNL     1       4.917   2.903  15.074  0.00  0.00    +0.000 HD
ENDBRANCH  12  13
BRANCH  12  15
ATOM     15  C   UNL     1       5.921   5.362  16.100  0.00  0.00    +0.000 C 
BRANCH  15  16
ATOM     16  N   UNL     1       7.088   6.088  16.653  0.00  0.00    +0.000 NA
ATOM     17  C   UNL     1       6.652   7.361  17.251  0.00  0.00    +0.000 C 
BRANCH  16  18
ATOM     18  C   UNL     1       7.773   5.290  17.707  0.00  0.00    +0.000 C 
BRANCH  18  19
ATOM     19  C   UNL     1       7.692   5.897  19.118  0.00  0.00    +0.000 C 
BRANCH  19  20
ATOM     20  O   UNL     1       6.879   5.093  19.970  0.00  0.00    +0.000 OA
ATOM     21  H   UNL     1       5.960   5.287  19.706  0.00  0.00    +0.000 HD
ENDBRANCH  19  20
ENDBRANCH  18  19
ENDBRANCH  16  18
ENDBRANCH  15  16
ENDBRANCH  12  15
ENDBRANCH   1  12
TORSDOF 10
ENDMDL
MODEL 7
REMARK VINA RESULT:      -6.0      2.432      5.638
REMARK  Name = 
REMARK  13 active torsions:
REMARK  status: ('A' for Active; 'I' for Inactive)
REMARK    1  A    between atoms: C_1  and  C_2
REMARK    2  A    between atoms: C_2  and  C_3
REMARK    3  A    between atoms: C_2  and  C_4
REMARK    4  A    between atoms: C_9  and  O_10
REMARK    5  A    between atoms: O_10  and  C_11
REMARK    6  A    between atoms: C_11  and  C_12
REMARK    7  A    between atoms: C_12  and  O_13
REMARK    8  A    between atoms: C_12  and  C_14
REMARK    9  A    between atoms: C_14  and  N_15
REMARK   10  A    between atoms: N_15  and  C_16
REMARK   11  A    between atoms: N_15  and  C_17
REMARK   12  A    between atoms: C_17  and  C_18
REMARK   13  A    between atoms: C_18  and  O_19
REMARK                            x       y       z     vdW  Elec       q    Type
REMARK                         _______ _______ _______ _____ _____    ______ ____
ROOT
ATOM      1  C   UNL     1       4.877   3.329  18.857  0.00  0.00    +0.000 C 
ENDROOT
BRANCH   1   2
ATOM      2  O   UNL     1       4.709   4.496  18.038  0.00  0.00    +0.000 OA
BRANCH   2   8
ATOM      3  C   UNL     1       6.545   5.490  16.871  0.00  0.00    +0.000 A 
ATOM      4  C   UNL     1       7.268   5.629  15.667  0.00  0.00    +0.000 A 
ATOM      5  C   UNL     1       7.013   4.821  14.559  0.00  0.00    +0.000 A 
ATOM      6  C   UNL     1       6.042   3.833  14.642  0.00  0.00    +0.000 A 
ATOM      7  C   UNL     1       5.297   3.696  15.811  0.00  0.00    +0.000 A 
ATOM      8  C   UNL     1       5.499   4.544  16.914  0.00  0.00    +0.000 A 
BRANCH   3  10
ATOM      9  C   UNL     1       7.793   5.657  19.065  0.00  0.00    +0.000 C 
ATOM     10  C   UNL     1       6.965   6.406  18.018  0.00  0.00    +0.000 C 
ATOM     11  C   UNL     1       7.646   7.717  17.619  0.00  0.00    +0.000 C 
ENDBRANCH   3  10
ENDBRANCH   2   8
ENDBRANCH   1   2
BRANCH   1  12
ATOM     12  C   UNL     1       3.801   2.277  18.537  0.00  0.00    +0.000 C 
BRANCH  12  13
ATOM     13  O   UNL     1       4.357   0.951  18.561  0.00  0.00    +0.000 OA
ATOM     14  H   UNL     1       4.499   0.671  17.640  0.00  0.00    +0.000 HD
ENDBRANCH  12  13
BRANCH  12  15
ATOM     15  C   UNL     1       2.656   2.315  19.581  0.00  0.00    +0.000 C 
BRANCH  15  16
ATOM     16  N   UNL     1       1.700   3.443  19.481  0.00  0.00    +0.000 NA
ATOM     17  C   UNL     1       0.361   2.939  19.132  0.00  0.00    +0.000 C 
BRANCH  16  18
ATOM     18  C   UNL     1       1.596   4.181  20.771  0.00  0.00    +0.000 C 
BRANCH  18  19
ATOM     19  C   UNL     1       1.789   5.702  20.650  0.00  0.00    +0.000 C 
BRANCH  19  20
ATOM     20  O   UNL     1       3.085   6.011  20.144  0.00  0.00    +0.000 OA
ATOM     21  H   UNL     1       3.093   6.980  20.032  0.00  0.00    +0.000 HD
ENDBRANCH  19  20
ENDBRANCH  18  19
ENDBRANCH  16  18
ENDBRANCH  15  16
ENDBRANCH  12  15
ENDBRANCH   1  12
TORSDOF 10
ENDMDL
MODEL 8
REMARK VINA RESULT:      -6.0      2.507      5.645
REMARK  Name = 
REMARK  13 active torsions:
REMARK  status: ('A' for Active; 'I' for Inactive)
REMARK    1  A    between atoms: C_1  and  C_2
REMARK    2  A    between atoms: C_2  and  C_3
REMARK    3  A    between atoms: C_2  and  C_4
REMARK    4  A    between atoms: C_9  and  O_10
REMARK    5  A    between atoms: O_10  and  C_11
REMARK    6  A    between atoms: C_11  and  C_12
REMARK    7  A    between atoms: C_12  and  O_13
REMARK    8  A    between atoms: C_12  and  C_14
REMARK    9  A    between atoms: C_14  and  N_15
REMARK   10  A    between atoms: N_15  and  C_16
REMARK   11  A    between atoms: N_15  and  C_17
REMARK   12  A    between atoms: C_17  and  C_18
REMARK   13  A    between atoms: C_18  and  O_19
REMARK                            x       y       z     vdW  Elec       q    Type
REMARK                         _______ _______ _______ _____ _____    ______ ____
ROOT
ATOM      1  C   UNL     1       4.918   4.432  19.334  0.00  0.00    +0.000 C 
ENDROOT
BRANCH   1   2
ATOM      2  O   UNL     1       4.596   5.231  18.185  0.00  0.00    +0.000 OA
BRANCH   2   8
ATOM      3  C   UNL     1       6.597   5.775  16.995  0.00  0.00    +0.000 A 
ATOM      4  C   UNL     1       7.353   5.672  15.807  0.00  0.00    +0.000 A 
ATOM      5  C   UNL     1       6.976   4.820  14.768  0.00  0.00    +0.000 A 
ATOM      6  C   UNL     1       5.845   4.029  14.908  0.00  0.00    +0.000 A 
ATOM      7  C   UNL     1       5.069   4.135  16.060  0.00  0.00    +0.000 A 
ATOM      8  C   UNL     1       5.400   5.035  17.088  0.00  0.00    +0.000 A 
BRANCH   3  10
ATOM      9  C   UNL     1       8.088   5.968  19.029  0.00  0.00    +0.000 C 
ATOM     10  C   UNL     1       7.153   6.708  18.068  0.00  0.00    +0.000 C 
ATOM     11  C   UNL     1       7.798   8.002  17.568  0.00  0.00    +0.000 C 
ENDBRANCH   3  10
ENDBRANCH   2   8
ENDBRANCH   1   2
BRANCH   1  12
ATOM     12  C   UNL     1       4.518   2.963  19.108  0.00  0.00    +0.000 C 
BRANCH  12  13
ATOM     13  O   UNL     1       4.983   2.134  20.187  0.00  0.00    +0.000 OA
ATOM     14  H   UNL     1       5.222   1.268  19.816  0.00  0.00    +0.000 HD
ENDBRANCH  12  13
BRANCH  12  15
ATOM     15  C   UNL     1       2.978   2.809  19.037  0.00  0.00    +0.000 C 
BRANCH  15  16
ATOM     16  N   UNL     1       2.176   4.045  19.186  0.00  0.00    +0.000 NA
ATOM     17  C   UNL     1       1.138   4.101  18.142  0.00  0.00    +0.000 C 
BRANCH  16  18
ATOM     18  C   UNL     1       1.502   4.098  20.513  0.00  0.00    +0.000 C 
BRANCH  18  19
ATOM     19  C   UNL     1       1.470   2.756  21.264  0.00  0.00    +0.000 C 
BRANCH  19  20
ATOM     20  O   UNL     1       2.558   2.661  22.180  0.00  0.00    +0.000 OA
ATOM     21  H   UNL     1       2.635   3.549  22.579  0.00  0.00    +0.000 HD
ENDBRANCH  19  20
ENDBRANCH  18  19
ENDBRANCH  16  18
ENDBRANCH  15  16
ENDBRANCH  12  15
ENDBRANCH   1  12
TORSDOF 10
ENDMDL
MODEL 9
REMARK VINA RESULT:      -6.0      2.417      5.808
REMARK  Name = 
REMARK  13 active torsions:
REMARK  status: ('A' for Active; 'I' for Inactive)
REMARK    1  A    between atoms: C_1  and  C_2
REMARK    2  A    between atoms: C_2  and  C_3
REMARK    3  A    between atoms: C_2  and  C_4
REMARK    4  A    between atoms: C_9  and  O_10
REMARK    5  A    between atoms: O_10  and  C_11
REMARK    6  A    between atoms: C_11  and  C_12
REMARK    7  A    between atoms: C_12  and  O_13
REMARK    8  A    between atoms: C_12  and  C_14
REMARK    9  A    between atoms: C_14  and  N_15
REMARK   10  A    between atoms: N_15  and  C_16
REMARK   11  A    between atoms: N_15  and  C_17
REMARK   12  A    between atoms: C_17  and  C_18
REMARK   13  A    between atoms: C_18  and  O_19
REMARK                            x       y       z     vdW  Elec       q    Type
REMARK                         _______ _______ _______ _____ _____    ______ ____
ROOT
ATOM      1  C   UNL     1       3.597   5.631  18.122  0.00  0.00    +0.000 C 
ENDROOT
BRANCH   1   2
ATOM      2  O   UNL     1       4.738   6.303  17.568  0.00  0.00    +0.000 OA
BRANCH   2   8
ATOM      3  C   UNL     1       6.826   5.668  16.592  0.00  0.00    +0.000 A 
ATOM      4  C   UNL     1       7.515   5.063  15.518  0.00  0.00    +0.000 A 
ATOM      5  C   UNL     1       6.842   4.367  14.513  0.00  0.00    +0.000 A 
ATOM      6  C   UNL     1       5.463   4.237  14.577  0.00  0.00    +0.000 A 
ATOM      7  C   UNL     1       4.760   4.848  15.612  0.00  0.00    +0.000 A 
ATOM      8  C   UNL     1       5.417   5.606  16.597  0.00  0.00    +0.000 A 
BRANCH   3  10
ATOM      9  C   UNL     1       7.580   7.877  17.565  0.00  0.00    +0.000 C 
ATOM     10  C   UNL     1       7.692   6.352  17.646  0.00  0.00    +0.000 C 
ATOM     11  C   UNL     1       7.511   5.869  19.086  0.00  0.00    +0.000 C 
ENDBRANCH   3  10
ENDBRANCH   2   8
ENDBRANCH   1   2
BRANCH   1  12
ATOM     12  C   UNL     1       3.841   5.260  19.595  0.00  0.00    +0.000 C 
BRANCH  12  13
ATOM     13  O   UNL     1       2.912   5.939  20.456  0.00  0.00    +0.000 OA
ATOM     14  H   UNL     1       3.199   5.800  21.375  0.00  0.00    +0.000 HD
ENDBRANCH  12  13
BRANCH  12  15
ATOM     15  C   UNL     1       3.658   3.738  19.826  0.00  0.00    +0.000 C 
BRANCH  15  16
ATOM     16  N   UNL     1       2.713   3.036  18.927  0.00  0.00    +0.000 NA
ATOM     17  C   UNL     1       3.430   2.022  18.135  0.00  0.00    +0.000 C 
BRANCH  16  18
ATOM     18  C   UNL     1       1.640   2.349  19.698  0.00  0.00    +0.000 C 
BRANCH  18  19
ATOM     19  C   UNL     1       1.241   3.058  21.003  0.00  0.00    +0.000 C 
BRANCH  19  20
ATOM     20  O   UNL     1       1.583   2.263  22.136  0.00  0.00    +0.000 OA
ATOM     21  H   UNL     1       1.521   2.867  22.901  0.00  0.00    +0.000 HD
ENDBRANCH  19  20
ENDBRANCH  18  19
ENDBRANCH  16  18
ENDBRANCH  15  16
ENDBRANCH  12  15
ENDBRANCH   1  12
TORSDOF 10
ENDMDL
