MODEL 1
REMARK VINA RESULT:      -7.8      0.000      0.000
REMARK  Name = 
REMARK  6 active torsions:
REMARK  status: ('A' for Active; 'I' for Inactive)
REMARK    1  A    between atoms: C_1  and  S_2
REMARK    2  A    between atoms: S_2  and  C_3
REMARK    3  A    between atoms: N_5  and  C_6
REMARK    4  A    between atoms: N_17  and  N_18
REMARK    5  A    between atoms: C_19  and  C_20
REMARK    6  A    between atoms: C_23  and  O_24
REMARK                            x       y       z     vdW  Elec       q    Type
REMARK                         _______ _______ _______ _____ _____    ______ ____
ROOT
ATOM      1  C   UNL     1      -0.739  11.204  19.979  0.00  0.00    +0.000 A 
ATOM      2  N   UNL     1      -1.549  12.072  20.586  0.00  0.00    +0.000 NA
ATOM      3  N   UNL     1      -1.347  11.853  21.923  0.00  0.00    +0.000 N 
ATOM      4  C   UNL     1      -0.428  10.824  22.130  0.00  0.00    +0.000 A 
ATOM      5  N   UNL     1      -0.014  10.307  23.306  0.00  0.00    +0.000 NA
ATOM      6  C   UNL     1       0.860   9.308  23.150  0.00  0.00    +0.000 A 
ATOM      7  N   UNL     1       1.336   8.814  22.001  0.00  0.00    +0.000 NA
ATOM      8  C   UNL     1       0.921   9.350  20.821  0.00  0.00    +0.000 A 
ATOM      9  N   UNL     1       1.433   8.866  19.602  0.00  0.00    +0.000 N 
ATOM     10  C   UNL     1      -0.013  10.399  20.880  0.00  0.00    +0.000 A 
ATOM     11  H   UNL     1       1.021   9.308  18.781  0.00  0.00    +0.000 HD
ENDROOT
BRANCH   3  12
ATOM     12  C   UNL     1      -2.050  12.629  22.896  0.00  0.00    +0.000 A 
ATOM     13  C   UNL     1      -1.468  13.801  23.404  0.00  0.00    +0.000 A 
ATOM     14  C   UNL     1      -2.151  14.584  24.343  0.00  0.00    +0.000 A 
ATOM     15  C   UNL     1      -3.415  14.202  24.789  0.00  0.00    +0.000 A 
ATOM     16  C   UNL     1      -3.996  13.036  24.303  0.00  0.00    +0.000 A 
ATOM     17  C   UNL     1      -3.320  12.253  23.362  0.00  0.00    +0.000 A 
ENDBRANCH   3  12
BRANCH   1  19
ATOM     18  C   UNL     1      -2.057  10.086  17.802  0.00  0.00    +0.000 C 
ATOM     19  S   UNL     1      -0.616  11.080  18.235  0.00  0.00    +0.000 S 
ENDBRANCH   1  19
BRANCH   9  20
ATOM     20  N   UNL     1       1.786   7.554  19.556  0.00  0.00    +0.000 NA
ATOM     21  C   UNL     1       2.520   7.217  18.545  0.00  0.00    +0.000 C 
BRANCH  21  22
ATOM     22  C   UNL     1       2.966   5.823  18.348  0.00  0.00    +0.000 A 
ATOM     23  C   UNL     1       4.294   5.459  18.597  0.00  0.00    +0.000 A 
ATOM     24  C   UNL     1       4.704   4.139  18.408  0.00  0.00    +0.000 A 
ATOM     25  C   UNL     1       3.779   3.194  17.971  0.00  0.00    +0.000 A 
ATOM     26  C   UNL     1       2.457   3.548  17.719  0.00  0.00    +0.000 A 
ATOM     27  C   UNL     1       2.043   4.868  17.910  0.00  0.00    +0.000 A 
BRANCH  25  28
ATOM     28  O   UNL     1       4.135   1.892  17.776  0.00  0.00    +0.000 OA
ATOM     29  H   UNL     1       3.333   1.377  17.588  0.00  0.00    +0.000 HD
ENDBRANCH  25  28
ENDBRANCH  21  22
ENDBRANCH   9  20
TORSDOF 5
ENDMDL
MODEL 2
REMARK VINA RESULT:      -7.8      0.128      1.321
REMARK  Name = 
REMARK  6 active torsions:
REMARK  status: ('A' for Active; 'I' for Inactive)
REMARK    1  A    between atoms: C_1  and  S_2
REMARK    2  A    between atoms: S_2  and  C_3
REMARK    3  A    between atoms: N_5  and  C_6
REMARK    4  A    between atoms: N_17  and  N_18
REMARK    5  A    between atoms: C_19  and  C_20
REMARK    6  A    between atoms: C_23  and  O_24
REMARK                            x       y       z     vdW  Elec       q    Type
REMARK                         _______ _______ _______ _____ _____    ______ ____
ROOT
ATOM      1  C   UNL     1      -0.648  11.314  20.045  0.00  0.00    +0.000 A 
ATOM      2  N   UNL     1      -1.454  12.194  20.640  0.00  0.00    +0.000 NA
ATOM      3  N   UNL     1      -1.314  11.935  21.978  0.00  0.00    +0.000 N 
ATOM      4  C   UNL     1      -0.440  10.870  22.196  0.00  0.00    +0.000 A 
ATOM      5  N   UNL     1      -0.094  10.310  23.375  0.00  0.00    +0.000 NA
ATOM      6  C   UNL     1       0.752   9.286  23.228  0.00  0.00    +0.000 A 
ATOM      7  N   UNL     1       1.259   8.804  22.087  0.00  0.00    +0.000 NA
ATOM      8  C   UNL     1       0.912   9.384  20.905  0.00  0.00    +0.000 A 
ATOM      9  N   UNL     1       1.459   8.913  19.696  0.00  0.00    +0.000 N 
ATOM     10  C   UNL     1       0.012  10.463  20.953  0.00  0.00    +0.000 A 
ATOM     11  H   UNL     1       1.097   9.388  18.871  0.00  0.00    +0.000 HD
ENDROOT
BRANCH   3  12
ATOM     12  C   UNL     1      -2.032  12.711  22.942  0.00  0.00    +0.000 A 
ATOM     13  C   UNL     1      -3.283  12.269  23.398  0.00  0.00    +0.000 A 
ATOM     14  C   UNL     1      -3.990  13.006  24.356  0.00  0.00    +0.000 A 
ATOM     15  C   UNL     1      -3.462  14.193  24.860  0.00  0.00    +0.000 A 
ATOM     16  C   UNL     1      -2.229  14.647  24.405  0.00  0.00    +0.000 A 
ATOM     17  C   UNL     1      -1.517  13.913  23.453  0.00  0.00    +0.000 A 
ENDBRANCH   3  12
BRANCH   1  19
ATOM     18  C   UNL     1      -1.797  10.130  17.808  0.00  0.00    +0.000 C 
ATOM     19  S   UNL     1      -0.456  11.229  18.304  0.00  0.00    +0.000 S 
ENDBRANCH   1  19
BRANCH   9  20
ATOM     20  N   UNL     1       1.769   7.590  19.630  0.00  0.00    +0.000 NA
ATOM     21  C   UNL     1       2.483   7.243  18.608  0.00  0.00    +0.000 C 
BRANCH  21  22
ATOM     22  C   UNL     1       2.882   5.839  18.390  0.00  0.00    +0.000 A 
ATOM     23  C   UNL     1       1.973   4.916  17.860  0.00  0.00    +0.000 A 
ATOM     24  C   UNL     1       2.361   3.590  17.658  0.00  0.00    +0.000 A 
ATOM     25  C   UNL     1       3.656   3.202  17.988  0.00  0.00    +0.000 A 
ATOM     26  C   UNL     1       4.566   4.113  18.518  0.00  0.00    +0.000 A 
ATOM     27  C   UNL     1       4.181   5.440  18.718  0.00  0.00    +0.000 A 
BRANCH  25  28
ATOM     28  O   UNL     1       4.079   1.918  17.805  0.00  0.00    +0.000 OA
ATOM     29  H   UNL     1       3.445   1.463  17.226  0.00  0.00    +0.000 HD
ENDBRANCH  25  28
ENDBRANCH  21  22
ENDBRANCH   9  20
TORSDOF 5
ENDMDL
MODEL 3
REMARK VINA RESULT:      -7.4      0.663      1.242
REMARK  Name = 
REMARK  6 active torsions:
REMARK  status: ('A' for Active; 'I' for Inactive)
REMARK    1  A    between atoms: C_1  and  S_2
REMARK    2  A    between atoms: S_2  and  C_3
REMARK    3  A    between atoms: N_5  and  C_6
REMARK    4  A    between atoms: N_17  and  N_18
REMARK    5  A    between atoms: C_19  and  C_20
REMARK    6  A    between atoms: C_23  and  O_24
REMARK                            x       y       z     vdW  Elec       q    Type
REMARK                         _______ _______ _______ _____ _____    ______ ____
ROOT
ATOM      1  C   UNL     1      -0.552  11.464  20.198  0.00  0.00    +0.000 A 
ATOM      2  N   UNL     1      -1.368  12.335  20.792  0.00  0.00    +0.000 NA
ATOM      3  N   UNL     1      -1.319  12.000  22.120  0.00  0.00    +0.000 N 
ATOM      4  C   UNL     1      -0.491  10.898  22.331  0.00  0.00    +0.000 A 
ATOM      5  N   UNL     1      -0.234  10.265  23.495  0.00  0.00    +0.000 NA
ATOM      6  C   UNL     1       0.590   9.223  23.343  0.00  0.00    +0.000 A 
ATOM      7  N   UNL     1       1.153   8.788  22.210  0.00  0.00    +0.000 NA
ATOM      8  C   UNL     1       0.897   9.441  21.043  0.00  0.00    +0.000 A 
ATOM      9  N   UNL     1       1.504   9.019  19.845  0.00  0.00    +0.000 N 
ATOM     10  C   UNL     1       0.027  10.544  21.097  0.00  0.00    +0.000 A 
ATOM     11  H   UNL     1       1.208   9.550  19.027  0.00  0.00    +0.000 HD
ENDROOT
BRANCH   3  12
ATOM     12  C   UNL     1      -2.073  12.745  23.080  0.00  0.00    +0.000 A 
ATOM     13  C   UNL     1      -1.579  13.971  23.553  0.00  0.00    +0.000 A 
ATOM     14  C   UNL     1      -2.313  14.723  24.477  0.00  0.00    +0.000 A 
ATOM     15  C   UNL     1      -3.540  14.257  24.946  0.00  0.00    +0.000 A 
ATOM     16  C   UNL     1      -4.034  13.038  24.494  0.00  0.00    +0.000 A 
ATOM     17  C   UNL     1      -3.307  12.285  23.568  0.00  0.00    +0.000 A 
ENDBRANCH   3  12
BRANCH   1  19
ATOM     18  C   UNL     1       0.760  12.940  18.243  0.00  0.00    +0.000 C 
ATOM     19  S   UNL     1      -0.254  11.467  18.471  0.00  0.00    +0.000 S 
ENDBRANCH   1  19
BRANCH   9  20
ATOM     20  N   UNL     1       1.781   7.693  19.725  0.00  0.00    +0.000 NA
ATOM     21  C   UNL     1       2.551   7.380  18.733  0.00  0.00    +0.000 C 
BRANCH  21  22
ATOM     22  C   UNL     1       2.924   5.977  18.462  0.00  0.00    +0.000 A 
ATOM     23  C   UNL     1       1.993   5.088  17.912  0.00  0.00    +0.000 A 
ATOM     24  C   UNL     1       2.356   3.764  17.660  0.00  0.00    +0.000 A 
ATOM     25  C   UNL     1       3.649   3.343  17.961  0.00  0.00    +0.000 A 
ATOM     26  C   UNL     1       4.580   4.221  18.510  0.00  0.00    +0.000 A 
ATOM     27  C   UNL     1       4.220   5.546  18.760  0.00  0.00    +0.000 A 
BRANCH  25  28
ATOM     28  O   UNL     1       4.048   2.060  17.728  0.00  0.00    +0.000 OA
ATOM     29  H   UNL     1       3.390   1.630  17.156  0.00  0.00    +0.000 HD
ENDBRANCH  25  28
ENDBRANCH  21  22
ENDBRANCH   9  20
TORSDOF 5
ENDMDL
MODEL 4
REMARK VINA RESULT:      -7.4      0.752      1.161
REMARK  Name = 
REMARK  6 active torsions:
REMARK  status: ('A' for Active; 'I' for Inactive)
REMARK    1  A    between atoms: C_1  and  S_2
REMARK    2  A    between atoms: S_2  and  C_3
REMARK    3  A    between atoms: N_5  and  C_6
REMARK    4  A    between atoms: N_17  and  N_18
REMARK    5  A    between atoms: C_19  and  C_20
REMARK    6  A    between atoms: C_23  and  O_24
REMARK                            x       y       z     vdW  Elec       q    Type
REMARK                         _______ _______ _______ _____ _____    ______ ____
ROOT
ATOM      1  C   UNL     1      -0.813  10.892  19.891  0.00  0.00    +0.000 A 
ATOM      2  N   UNL     1      -1.686  11.796  20.337  0.00  0.00    +0.000 NA
ATOM      3  N   UNL     1      -1.562  11.748  21.701  0.00  0.00    +0.000 N 
ATOM      4  C   UNL     1      -0.628  10.787  22.088  0.00  0.00    +0.000 A 
ATOM      5  N   UNL     1      -0.275  10.432  23.341  0.00  0.00    +0.000 NA
ATOM      6  C   UNL     1       0.637   9.454  23.361  0.00  0.00    +0.000 A 
ATOM      7  N   UNL     1       1.200   8.844  22.312  0.00  0.00    +0.000 NA
ATOM      8  C   UNL     1       0.845   9.217  21.052  0.00  0.00    +0.000 A 
ATOM      9  N   UNL     1       1.448   8.609  19.935  0.00  0.00    +0.000 N 
ATOM     10  C   UNL     1      -0.122  10.230  20.926  0.00  0.00    +0.000 A 
ATOM     11  H   UNL     1       1.076   8.932  19.043  0.00  0.00    +0.000 HD
ENDROOT
BRANCH   3  12
ATOM     12  C   UNL     1      -2.350  12.609  22.528  0.00  0.00    +0.000 A 
ATOM     13  C   UNL     1      -3.750  12.531  22.478  0.00  0.00    +0.000 A 
ATOM     14  C   UNL     1      -4.536  13.353  23.295  0.00  0.00    +0.000 A 
ATOM     15  C   UNL     1      -3.934  14.265  24.161  0.00  0.00    +0.000 A 
ATOM     16  C   UNL     1      -2.548  14.360  24.208  0.00  0.00    +0.000 A 
ATOM     17  C   UNL     1      -1.759  13.539  23.398  0.00  0.00    +0.000 A 
ENDBRANCH   3  12
BRANCH   1  19
ATOM     18  C   UNL     1      -2.238  10.148  17.624  0.00  0.00    +0.000 C 
ATOM     19  S   UNL     1      -0.575  10.563  18.186  0.00  0.00    +0.000 S 
ENDBRANCH   1  19
BRANCH   9  20
ATOM     20  N   UNL     1       1.842   7.315  20.072  0.00  0.00    +0.000 NA
ATOM     21  C   UNL     1       2.616   6.873  19.133  0.00  0.00    +0.000 C 
BRANCH  21  22
ATOM     22  C   UNL     1       3.110   5.482  19.134  0.00  0.00    +0.000 A 
ATOM     23  C   UNL     1       4.484   5.215  19.111  0.00  0.00    +0.000 A 
ATOM     24  C   UNL     1       4.939   3.896  19.112  0.00  0.00    +0.000 A 
ATOM     25  C   UNL     1       4.014   2.856  19.136  0.00  0.00    +0.000 A 
ATOM     26  C   UNL     1       2.646   3.113  19.156  0.00  0.00    +0.000 A 
ATOM     27  C   UNL     1       2.188   4.432  19.158  0.00  0.00    +0.000 A 
BRANCH  25  28
ATOM     28  O   UNL     1       4.414   1.552  19.141  0.00  0.00    +0.000 OA
ATOM     29  H   UNL     1       3.892   1.071  19.804  0.00  0.00    +0.000 HD
ENDBRANCH  25  28
ENDBRANCH  21  22
ENDBRANCH   9  20
TORSDOF 5
ENDMDL
MODEL 5
REMARK VINA RESULT:      -7.2      2.480      2.995
REMARK  Name = 
REMARK  6 active torsions:
REMARK  status: ('A' for Active; 'I' for Inactive)
REMARK    1  A    between atoms: C_1  and  S_2
REMARK    2  A    between atoms: S_2  and  C_3
REMARK    3  A    between atoms: N_5  and  C_6
REMARK    4  A    between atoms: N_17  and  N_18
REMARK    5  A    between atoms: C_19  and  C_20
REMARK    6  A    between atoms: C_23  and  O_24
REMARK                            x       y       z     vdW  Elec       q    Type
REMARK                         _______ _______ _______ _____ _____    ______ ____
ROOT
ATOM      1  C   UNL     1      -2.246  11.004  18.132  0.00  0.00    +0.000 A 
ATOM      2  N   UNL     1      -3.361  11.582  18.578  0.00  0.00    +0.000 NA
ATOM      3  N   UNL     1      -2.972  12.251  19.709  0.00  0.00    +0.000 N 
ATOM      4  C   UNL     1      -1.616  12.053  19.968  0.00  0.00    +0.000 A 
ATOM      5  N   UNL     1      -0.895  12.519  21.010  0.00  0.00    +0.000 NA
ATOM      6  C   UNL     1       0.381  12.123  20.971  0.00  0.00    +0.000 A 
ATOM      7  N   UNL     1       0.969  11.361  20.041  0.00  0.00    +0.000 NA
ATOM      8  C   UNL     1       0.236  10.906  18.988  0.00  0.00    +0.000 A 
ATOM      9  N   UNL     1       0.844  10.130  17.983  0.00  0.00    +0.000 N 
ATOM     10  C   UNL     1      -1.124  11.257  18.948  0.00  0.00    +0.000 A 
ATOM     11  H   UNL     1       0.194   9.806  17.268  0.00  0.00    +0.000 HD
ENDROOT
BRANCH   3  12
ATOM     12  C   UNL     1      -3.921  13.013  20.459  0.00  0.00    +0.000 A 
ATOM     13  C   UNL     1      -5.146  12.433  20.824  0.00  0.00    +0.000 A 
ATOM     14  C   UNL     1      -6.079  13.158  21.576  0.00  0.00    +0.000 A 
ATOM     15  C   UNL     1      -5.804  14.469  21.962  0.00  0.00    +0.000 A 
ATOM     16  C   UNL     1      -4.599  15.058  21.594  0.00  0.00    +0.000 A 
ATOM     17  C   UNL     1      -3.662  14.337  20.848  0.00  0.00    +0.000 A 
ENDBRANCH   3  12
BRANCH   1  19
ATOM     18  C   UNL     1      -3.359  10.864  15.589  0.00  0.00    +0.000 C 
ATOM     19  S   UNL     1      -2.201  10.018  16.683  0.00  0.00    +0.000 S 
ENDBRANCH   1  19
BRANCH   9  20
ATOM     20  N   UNL     1       1.884   9.338  18.355  0.00  0.00    +0.000 NA
ATOM     21  C   UNL     1       1.875   8.145  17.853  0.00  0.00    +0.000 C 
BRANCH  21  22
ATOM     22  C   UNL     1       2.930   7.165  18.181  0.00  0.00    +0.000 A 
ATOM     23  C   UNL     1       2.788   6.311  19.282  0.00  0.00    +0.000 A 
ATOM     24  C   UNL     1       3.791   5.388  19.583  0.00  0.00    +0.000 A 
ATOM     25  C   UNL     1       4.926   5.328  18.778  0.00  0.00    +0.000 A 
ATOM     26  C   UNL     1       5.075   6.175  17.683  0.00  0.00    +0.000 A 
ATOM     27  C   UNL     1       4.072   7.098  17.379  0.00  0.00    +0.000 A 
BRANCH  25  28
ATOM     28  O   UNL     1       5.928   4.440  19.033  0.00  0.00    +0.000 OA
ATOM     29  H   UNL     1       6.698   4.676  18.488  0.00  0.00    +0.000 HD
ENDBRANCH  25  28
ENDBRANCH  21  22
ENDBRANCH   9  20
TORSDOF 5
ENDMDL
MODEL 6
REMARK VINA RESULT:      -7.2      1.051      1.118
REMARK  Name = 
REMARK  6 active torsions:
REMARK  status: ('A' for Active; 'I' for Inactive)
REMARK    1  A    between atoms: C_1  and  S_2
REMARK    2  A    between atoms: S_2  and  C_3
REMARK    3  A    between atoms: N_5  and  C_6
REMARK    4  A    between atoms: N_17  and  N_18
REMARK    5  A    between atoms: C_19  and  C_20
REMARK    6  A    between atoms: C_23  and  O_24
REMARK                            x       y       z     vdW  Elec       q    Type
REMARK                         _______ _______ _______ _____ _____    ______ ____
ROOT
ATOM      1  C   UNL     1      -1.354  11.742  19.538  0.00  0.00    +0.000 A 
ATOM      2  N   UNL     1      -2.103  12.497  20.342  0.00  0.00    +0.000 NA
ATOM      3  N   UNL     1      -1.668  12.191  21.604  0.00  0.00    +0.000 N 
ATOM      4  C   UNL     1      -0.667  11.220  21.570  0.00  0.00    +0.000 A 
ATOM      5  N   UNL     1      -0.033  10.646  22.614  0.00  0.00    +0.000 NA
ATOM      6  C   UNL     1       0.862   9.730  22.232  0.00  0.00    +0.000 A 
ATOM      7  N   UNL     1       1.169   9.363  20.982  0.00  0.00    +0.000 NA
ATOM      8  C   UNL     1       0.532   9.957  19.936  0.00  0.00    +0.000 A 
ATOM      9  N   UNL     1       0.864   9.608  18.612  0.00  0.00    +0.000 N 
ATOM     10  C   UNL     1      -0.440  10.926  20.236  0.00  0.00    +0.000 A 
ATOM     11  H   UNL     1       0.295  10.080  17.911  0.00  0.00    +0.000 HD
ENDROOT
BRANCH   3  12
ATOM     12  C   UNL     1      -2.246  12.836  22.743  0.00  0.00    +0.000 A 
ATOM     13  C   UNL     1      -1.617  13.961  23.299  0.00  0.00    +0.000 A 
ATOM     14  C   UNL     1      -2.180  14.616  24.401  0.00  0.00    +0.000 A 
ATOM     15  C   UNL     1      -3.367  14.151  24.964  0.00  0.00    +0.000 A 
ATOM     16  C   UNL     1      -3.992  13.029  24.429  0.00  0.00    +0.000 A 
ATOM     17  C   UNL     1      -3.437  12.374  23.326  0.00  0.00    +0.000 A 
ENDBRANCH   3  12
BRANCH   1  19
ATOM     18  C   UNL     1      -3.280  11.486  17.551  0.00  0.00    +0.000 C 
ATOM     19  S   UNL     1      -1.515  11.763  17.793  0.00  0.00    +0.000 S 
ENDBRANCH   1  19
BRANCH   9  20
ATOM     20  N   UNL     1       1.283   8.333  18.394  0.00  0.00    +0.000 NA
ATOM     21  C   UNL     1       2.542   8.207  18.120  0.00  0.00    +0.000 C 
BRANCH  21  22
ATOM     22  C   UNL     1       3.139   6.886  17.840  0.00  0.00    +0.000 A 
ATOM     23  C   UNL     1       4.391   6.790  17.219  0.00  0.00    +0.000 A 
ATOM     24  C   UNL     1       4.946   5.536  16.959  0.00  0.00    +0.000 A 
ATOM     25  C   UNL     1       4.243   4.391  17.323  0.00  0.00    +0.000 A 
ATOM     26  C   UNL     1       2.997   4.478  17.938  0.00  0.00    +0.000 A 
ATOM     27  C   UNL     1       2.440   5.731  18.202  0.00  0.00    +0.000 A 
BRANCH  25  28
ATOM     28  O   UNL     1       4.749   3.146  17.091  0.00  0.00    +0.000 OA
ATOM     29  H   UNL     1       5.430   2.959  17.758  0.00  0.00    +0.000 HD
ENDBRANCH  25  28
ENDBRANCH  21  22
ENDBRANCH   9  20
TORSDOF 5
ENDMDL
MODEL 7
REMARK VINA RESULT:      -7.2      3.851      9.896
REMARK  Name = 
REMARK  6 active torsions:
REMARK  status: ('A' for Active; 'I' for Inactive)
REMARK    1  A    between atoms: C_1  and  S_2
REMARK    2  A    between atoms: S_2  and  C_3
REMARK    3  A    between atoms: N_5  and  C_6
REMARK    4  A    between atoms: N_17  and  N_18
REMARK    5  A    between atoms: C_19  and  C_20
REMARK    6  A    between atoms: C_23  and  O_24
REMARK                            x       y       z     vdW  Elec       q    Type
REMARK                         _______ _______ _______ _____ _____    ______ ____
ROOT
ATOM      1  C   UNL     1       2.855   5.262  19.797  0.00  0.00    +0.000 A 
ATOM      2  N   UNL     1       3.584   4.571  18.921  0.00  0.00    +0.000 NA
ATOM      3  N   UNL     1       3.865   5.469  17.925  0.00  0.00    +0.000 N 
ATOM      4  C   UNL     1       3.276   6.707  18.183  0.00  0.00    +0.000 A 
ATOM      5  N   UNL     1       3.301   7.813  17.411  0.00  0.00    +0.000 NA
ATOM      6  C   UNL     1       2.612   8.828  17.943  0.00  0.00    +0.000 A 
ATOM      7  N   UNL     1       1.951   8.842  19.106  0.00  0.00    +0.000 NA
ATOM      8  C   UNL     1       1.942   7.724  19.883  0.00  0.00    +0.000 A 
ATOM      9  N   UNL     1       1.278   7.728  21.125  0.00  0.00    +0.000 N 
ATOM     10  C   UNL     1       2.627   6.596  19.401  0.00  0.00    +0.000 A 
ATOM     11  H   UNL     1       1.297   6.828  21.602  0.00  0.00    +0.000 HD
ENDROOT
BRANCH   3  12
ATOM     12  C   UNL     1       4.658   5.076  16.802  0.00  0.00    +0.000 A 
ATOM     13  C   UNL     1       4.919   3.715  16.576  0.00  0.00    +0.000 A 
ATOM     14  C   UNL     1       5.677   3.312  15.471  0.00  0.00    +0.000 A 
ATOM     15  C   UNL     1       6.189   4.259  14.587  0.00  0.00    +0.000 A 
ATOM     16  C   UNL     1       5.949   5.611  14.808  0.00  0.00    +0.000 A 
ATOM     17  C   UNL     1       5.189   6.019  15.907  0.00  0.00    +0.000 A 
ENDBRANCH   3  12
BRANCH   1  19
ATOM     18  C   UNL     1       1.265   3.162  20.685  0.00  0.00    +0.000 C 
ATOM     19  S   UNL     1       2.236   4.561  21.280  0.00  0.00    +0.000 S 
ENDBRANCH   1  19
BRANCH   9  20
ATOM     20  N   UNL     1       0.186   8.530  21.241  0.00  0.00    +0.000 NA
ATOM     21  C   UNL     1       0.425   9.726  21.672  0.00  0.00    +0.000 C 
BRANCH  21  22
ATOM     22  C   UNL     1      -0.663  10.705  21.869  0.00  0.00    +0.000 A 
ATOM     23  C   UNL     1      -1.122  11.483  20.799  0.00  0.00    +0.000 A 
ATOM     24  C   UNL     1      -2.151  12.404  20.996  0.00  0.00    +0.000 A 
ATOM     25  C   UNL     1      -2.712  12.538  22.263  0.00  0.00    +0.000 A 
ATOM     26  C   UNL     1      -2.260  11.770  23.333  0.00  0.00    +0.000 A 
ATOM     27  C   UNL     1      -1.232  10.845  23.138  0.00  0.00    +0.000 A 
BRANCH  25  28
ATOM     28  O   UNL     1      -3.721  13.423  22.501  0.00  0.00    +0.000 OA
ATOM     29  H   UNL     1      -4.510  13.132  22.013  0.00  0.00    +0.000 HD
ENDBRANCH  25  28
ENDBRANCH  21  22
ENDBRANCH   9  20
TORSDOF 5
ENDMDL
MODEL 8
REMARK VINA RESULT:      -7.2      2.423      2.620
REMARK  Name = 
REMARK  6 active torsions:
REMARK  status: ('A' for Active; 'I' for Inactive)
REMARK    1  A    between atoms: C_1  and  S_2
REMARK    2  A    between atoms: S_2  and  C_3
REMARK    3  A    between atoms: N_5  and  C_6
REMARK    4  A    between atoms: N_17  and  N_18
REMARK    5  A    between atoms: C_19  and  C_20
REMARK    6  A    between atoms: C_23  and  O_24
REMARK                            x       y       z     vdW  Elec       q    Type
REMARK                         _______ _______ _______ _____ _____    ______ ____
ROOT
ATOM      1  C   UNL     1      -2.018  11.097  18.348  0.00  0.00    +0.000 A 
ATOM      2  N   UNL     1      -3.052  11.704  18.931  0.00  0.00    +0.000 NA
ATOM      3  N   UNL     1      -2.495  12.422  19.956  0.00  0.00    +0.000 N 
ATOM      4  C   UNL     1      -1.115  12.227  20.014  0.00  0.00    +0.000 A 
ATOM      5  N   UNL     1      -0.243  12.735  20.911  0.00  0.00    +0.000 NA
ATOM      6  C   UNL     1       1.012  12.329  20.696  0.00  0.00    +0.000 A 
ATOM      7  N   UNL     1       1.451  11.519  19.724  0.00  0.00    +0.000 NA
ATOM      8  C   UNL     1       0.565  11.021  18.819  0.00  0.00    +0.000 A 
ATOM      9  N   UNL     1       1.012  10.194  17.771  0.00  0.00    +0.000 N 
ATOM     10  C   UNL     1      -0.785  11.380  18.970  0.00  0.00    +0.000 A 
ATOM     11  H   UNL     1       0.260   9.842  17.179  0.00  0.00    +0.000 HD
ENDROOT
BRANCH   3  12
ATOM     12  C   UNL     1      -3.318  13.226  20.805  0.00  0.00    +0.000 A 
ATOM     13  C   UNL     1      -3.211  14.624  20.756  0.00  0.00    +0.000 A 
ATOM     14  C   UNL     1      -4.024  15.427  21.566  0.00  0.00    +0.000 A 
ATOM     15  C   UNL     1      -4.942  14.844  22.437  0.00  0.00    +0.000 A 
ATOM     16  C   UNL     1      -5.047  13.459  22.504  0.00  0.00    +0.000 A 
ATOM     17  C   UNL     1      -4.242  12.653  21.694  0.00  0.00    +0.000 A 
ENDBRANCH   3  12
BRANCH   1  19
ATOM     18  C   UNL     1      -3.146  11.057  15.807  0.00  0.00    +0.000 C 
ATOM     19  S   UNL     1      -2.196  10.044  16.957  0.00  0.00    +0.000 S 
ENDBRANCH   1  19
BRANCH   9  20
ATOM     20  N   UNL     1       2.097   9.413  18.017  0.00  0.00    +0.000 NA
ATOM     21  C   UNL     1       1.881   8.138  17.966  0.00  0.00    +0.000 C 
BRANCH  21  22
ATOM     22  C   UNL     1       2.958   7.163  18.231  0.00  0.00    +0.000 A 
ATOM     23  C   UNL     1       4.071   7.087  17.385  0.00  0.00    +0.000 A 
ATOM     24  C   UNL     1       5.083   6.162  17.646  0.00  0.00    +0.000 A 
ATOM     25  C   UNL     1       4.971   5.322  18.750  0.00  0.00    +0.000 A 
ATOM     26  C   UNL     1       3.866   5.390  19.594  0.00  0.00    +0.000 A 
ATOM     27  C   UNL     1       2.854   6.316  19.338  0.00  0.00    +0.000 A 
BRANCH  25  28
ATOM     28  O   UNL     1       5.938   4.406  19.044  0.00  0.00    +0.000 OA
ATOM     29  H   UNL     1       5.639   3.871  19.798  0.00  0.00    +0.000 HD
ENDBRANCH  25  28
ENDBRANCH  21  22
ENDBRANCH   9  20
TORSDOF 5
ENDMDL
MODEL 9
REMARK VINA RESULT:      -7.1      1.072      1.287
REMARK  Name = 
REMARK  6 active torsions:
REMARK  status: ('A' for Active; 'I' for Inactive)
REMARK    1  A    between atoms: C_1  and  S_2
REMARK    2  A    between atoms: S_2  and  C_3
REMARK    3  A    between atoms: N_5  and  C_6
REMARK    4  A    between atoms: N_17  and  N_18
REMARK    5  A    between atoms: C_19  and  C_20
REMARK    6  A    between atoms: C_23  and  O_24
REMARK                            x       y       z     vdW  Elec       q    Type
REMARK                         _______ _______ _______ _____ _____    ______ ____
ROOT
ATOM      1  C   UNL     1      -0.030  11.772  20.184  0.00  0.00    +0.000 A 
ATOM      2  N   UNL     1      -0.767  12.758  20.696  0.00  0.00    +0.000 NA
ATOM      3  N   UNL     1      -0.983  12.384  21.997  0.00  0.00    +0.000 N 
ATOM      4  C   UNL     1      -0.397  11.148  22.269  0.00  0.00    +0.000 A 
ATOM      5  N   UNL     1      -0.436  10.449  23.423  0.00  0.00    +0.000 NA
ATOM      6  C   UNL     1       0.212   9.282  23.339  0.00  0.00    +0.000 A 
ATOM      7  N   UNL     1       0.861   8.785  22.280  0.00  0.00    +0.000 NA
ATOM      8  C   UNL     1       0.904   9.504  21.125  0.00  0.00    +0.000 A 
ATOM      9  N   UNL     1       1.608   9.012  20.009  0.00  0.00    +0.000 N 
ATOM     10  C   UNL     1       0.237  10.741  21.108  0.00  0.00    +0.000 A 
ATOM     11  H   UNL     1       1.536   9.609  19.185  0.00  0.00    +0.000 HD
ENDROOT
BRANCH   3  12
ATOM     12  C   UNL     1      -1.738  13.226  22.873  0.00  0.00    +0.000 A 
ATOM     13  C   UNL     1      -1.090  14.247  23.585  0.00  0.00    +0.000 A 
ATOM     14  C   UNL     1      -1.817  15.093  24.432  0.00  0.00    +0.000 A 
ATOM     15  C   UNL     1      -3.192  14.922  24.584  0.00  0.00    +0.000 A 
ATOM     16  C   UNL     1      -3.841  13.904  23.894  0.00  0.00    +0.000 A 
ATOM     17  C   UNL     1      -3.122  13.060  23.044  0.00  0.00    +0.000 A 
ENDBRANCH   3  12
BRANCH   1  19
ATOM     18  C   UNL     1       2.038  12.748  18.605  0.00  0.00    +0.000 C 
ATOM     19  S   UNL     1       0.527  11.768  18.522  0.00  0.00    +0.000 S 
ENDBRANCH   1  19
BRANCH   9  20
ATOM     20  N   UNL     1       1.669   7.662  19.860  0.00  0.00    +0.000 NA
ATOM     21  C   UNL     1       2.388   7.251  18.865  0.00  0.00    +0.000 C 
BRANCH  21  22
ATOM     22  C   UNL     1       2.534   5.812  18.565  0.00  0.00    +0.000 A 
ATOM     23  C   UNL     1       3.476   5.374  17.627  0.00  0.00    +0.000 A 
ATOM     24  C   UNL     1       3.605   4.012  17.351  0.00  0.00    +0.000 A 
ATOM     25  C   UNL     1       2.788   3.102  18.017  0.00  0.00    +0.000 A 
ATOM     26  C   UNL     1       1.847   3.530  18.949  0.00  0.00    +0.000 A 
ATOM     27  C   UNL     1       1.718   4.892  19.229  0.00  0.00    +0.000 A 
BRANCH  25  28
ATOM     28  O   UNL     1       2.882   1.762  17.780  0.00  0.00    +0.000 OA
ATOM     29  H   UNL     1       2.609   1.286  18.582  0.00  0.00    +0.000 HD
ENDBRANCH  25  28
ENDBRANCH  21  22
ENDBRANCH   9  20
TORSDOF 5
ENDMDL
