MODEL 1
REMARK VINA RESULT:      -7.2      0.000      0.000
REMARK  Name = 
REMARK  10 active torsions:
REMARK  status: ('A' for Active; 'I' for Inactive)
REMARK    1  A    between atoms: C_1  and  O_2
REMARK    2  A    between atoms: O_2  and  C_3
REMARK    3  A    between atoms: C_6  and  C_7
REMARK    4  A    between atoms: C_8  and  C_9
REMARK    5  A    between atoms: C_11  and  O_12
REMARK    6  A    between atoms: C_13  and  O_14
REMARK    7  A    between atoms: O_14  and  C_15
REMARK    8  A    between atoms: C_16  and  O_17
REMARK    9  A    between atoms: O_17  and  C_18
REMARK   10  A    between atoms: C_21  and  N_22
REMARK                            x       y       z     vdW  Elec       q    Type
REMARK                         _______ _______ _______ _____ _____    ______ ____
ROOT
ATOM      1  C   UNL     1       2.192   3.188  18.191  0.00  0.00    +0.000 C 
ATOM      2  C   UNL     1       3.352   2.923  17.540  0.00  0.00    +0.000 C 
ENDROOT
BRANCH   1   6
ATOM      3  C   UNL     1       1.796   6.996  20.104  0.00  0.00    +0.000 A 
ATOM      4  C   UNL     1       1.588   5.807  20.839  0.00  0.00    +0.000 A 
ATOM      5  C   UNL     1       1.639   4.561  20.208  0.00  0.00    +0.000 A 
ATOM      6  C   UNL     1       1.943   4.486  18.844  0.00  0.00    +0.000 A 
ATOM      7  C   UNL     1       2.116   5.661  18.102  0.00  0.00    +0.000 A 
ATOM      8  C   UNL     1       2.029   6.916  18.717  0.00  0.00    +0.000 A 
BRANCH   8   9
ATOM      9  N   UNL     1       2.226   8.089  17.941  0.00  0.00    +0.000 N 
ATOM     10  H   UNL     1       2.949   8.776  18.203  0.00  0.00    +0.000 HD
ATOM     11  H   UNL     1       1.660   8.278  17.102  0.00  0.00    +0.000 HD
ENDBRANCH   8   9
BRANCH   3  13
ATOM     12  C   UNL     1       0.688   8.907  21.129  0.00  0.00    +0.000 C 
ATOM     13  O   UNL     1       1.802   8.220  20.694  0.00  0.00    +0.000 OA
ENDBRANCH   3  13
ENDBRANCH   1   6
BRANCH   2  14
ATOM     14  C   UNL     1       4.570   3.803  17.523  0.00  0.00    +0.000 A 
ATOM     15  C   UNL     1       5.268   4.153  18.693  0.00  0.00    +0.000 A 
ATOM     16  C   UNL     1       6.372   4.999  18.671  0.00  0.00    +0.000 A 
ATOM     17  C   UNL     1       6.819   5.536  17.443  0.00  0.00    +0.000 A 
ATOM     18  C   UNL     1       6.165   5.159  16.254  0.00  0.00    +0.000 A 
ATOM     19  C   UNL     1       5.052   4.287  16.302  0.00  0.00    +0.000 A 
BRANCH  16  20
ATOM     20  O   UNL     1       6.987   5.301  19.836  0.00  0.00    +0.000 OA
ATOM     21  H   UNL     1       6.815   6.122  20.321  0.00  0.00    +0.000 HD
ENDBRANCH  16  20
BRANCH  17  22
ATOM     22  O   UNL     1       7.859   6.411  17.345  0.00  0.00    +0.000 OA
ATOM     23  C   UNL     1       7.838   7.770  17.598  0.00  0.00    +0.000 C 
ENDBRANCH  17  22
BRANCH  18  24
ATOM     24  O   UNL     1       6.623   5.676  15.083  0.00  0.00    +0.000 OA
ATOM     25  C   UNL     1       7.143   4.953  14.031  0.00  0.00    +0.000 C 
ENDBRANCH  18  24
ENDBRANCH   2  14
TORSDOF 7
ENDMDL
MODEL 2
REMARK VINA RESULT:      -7.0      2.267      5.954
REMARK  Name = 
REMARK  10 active torsions:
REMARK  status: ('A' for Active; 'I' for Inactive)
REMARK    1  A    between atoms: C_1  and  O_2
REMARK    2  A    between atoms: O_2  and  C_3
REMARK    3  A    between atoms: C_6  and  C_7
REMARK    4  A    between atoms: C_8  and  C_9
REMARK    5  A    between atoms: C_11  and  O_12
REMARK    6  A    between atoms: C_13  and  O_14
REMARK    7  A    between atoms: O_14  and  C_15
REMARK    8  A    between atoms: C_16  and  O_17
REMARK    9  A    between atoms: O_17  and  C_18
REMARK   10  A    between atoms: C_21  and  N_22
REMARK                            x       y       z     vdW  Elec       q    Type
REMARK                         _______ _______ _______ _____ _____    ______ ____
ROOT
ATOM      1  C   UNL     1       5.345   4.012  16.405  0.00  0.00    +0.000 C 
ATOM      2  C   UNL     1       4.087   3.882  16.894  0.00  0.00    +0.000 C 
ENDROOT
BRANCH   1   6
ATOM      3  C   UNL     1       7.859   6.989  18.177  0.00  0.00    +0.000 A 
ATOM      4  C   UNL     1       7.278   7.213  16.908  0.00  0.00    +0.000 A 
ATOM      5  C   UNL     1       6.519   6.218  16.285  0.00  0.00    +0.000 A 
ATOM      6  C   UNL     1       6.293   5.005  16.943  0.00  0.00    +0.000 A 
ATOM      7  C   UNL     1       6.892   4.762  18.187  0.00  0.00    +0.000 A 
ATOM      8  C   UNL     1       7.686   5.738  18.800  0.00  0.00    +0.000 A 
BRANCH   8   9
ATOM      9  N   UNL     1       8.268   5.469  20.068  0.00  0.00    +0.000 N 
ATOM     10  H   UNL     1       9.290   5.516  20.197  0.00  0.00    +0.000 HD
ATOM     11  H   UNL     1       7.687   5.228  20.884  0.00  0.00    +0.000 HD
ENDBRANCH   8   9
BRANCH   3  13
ATOM     12  C   UNL     1       8.630   9.280  18.468  0.00  0.00    +0.000 C 
ATOM     13  O   UNL     1       8.561   7.951  18.831  0.00  0.00    +0.000 OA
ENDBRANCH   3  13
ENDBRANCH   1   6
BRANCH   2  14
ATOM     14  C   UNL     1       3.437   4.792  17.898  0.00  0.00    +0.000 A 
ATOM     15  C   UNL     1       3.227   6.161  17.655  0.00  0.00    +0.000 A 
ATOM     16  C   UNL     1       2.659   7.002  18.606  0.00  0.00    +0.000 A 
ATOM     17  C   UNL     1       2.276   6.483  19.863  0.00  0.00    +0.000 A 
ATOM     18  C   UNL     1       2.431   5.105  20.108  0.00  0.00    +0.000 A 
ATOM     19  C   UNL     1       3.001   4.267  19.120  0.00  0.00    +0.000 A 
BRANCH  16  20
ATOM     20  O   UNL     1       2.498   8.311  18.308  0.00  0.00    +0.000 OA
ATOM     21  H   UNL     1       1.728   8.647  17.825  0.00  0.00    +0.000 HD
ENDBRANCH  16  20
BRANCH  17  22
ATOM     22  O   UNL     1       1.761   7.251  20.864  0.00  0.00    +0.000 OA
ATOM     23  C   UNL     1       1.003   8.400  20.733  0.00  0.00    +0.000 C 
ENDBRANCH  17  22
BRANCH  18  24
ATOM     24  O   UNL     1       2.042   4.625  21.320  0.00  0.00    +0.000 OA
ATOM     25  C   UNL     1       2.122   3.311  21.729  0.00  0.00    +0.000 C 
ENDBRANCH  18  24
ENDBRANCH   2  14
TORSDOF 7
ENDMDL
MODEL 3
REMARK VINA RESULT:      -6.8      2.259      5.753
REMARK  Name = 
REMARK  10 active torsions:
REMARK  status: ('A' for Active; 'I' for Inactive)
REMARK    1  A    between atoms: C_1  and  O_2
REMARK    2  A    between atoms: O_2  and  C_3
REMARK    3  A    between atoms: C_6  and  C_7
REMARK    4  A    between atoms: C_8  and  C_9
REMARK    5  A    between atoms: C_11  and  O_12
REMARK    6  A    between atoms: C_13  and  O_14
REMARK    7  A    between atoms: O_14  and  C_15
REMARK    8  A    between atoms: C_16  and  O_17
REMARK    9  A    between atoms: O_17  and  C_18
REMARK   10  A    between atoms: C_21  and  N_22
REMARK                            x       y       z     vdW  Elec       q    Type
REMARK                         _______ _______ _______ _____ _____    ______ ____
ROOT
ATOM      1  C   UNL     1       4.957   4.215  16.470  0.00  0.00    +0.000 C 
ATOM      2  C   UNL     1       3.745   4.111  17.068  0.00  0.00    +0.000 C 
ENDROOT
BRANCH   1   6
ATOM      3  C   UNL     1       7.738   7.025  18.109  0.00  0.00    +0.000 A 
ATOM      4  C   UNL     1       7.068   7.313  16.898  0.00  0.00    +0.000 A 
ATOM      5  C   UNL     1       6.216   6.371  16.314  0.00  0.00    +0.000 A 
ATOM      6  C   UNL     1       5.990   5.149  16.955  0.00  0.00    +0.000 A 
ATOM      7  C   UNL     1       6.676   4.843  18.138  0.00  0.00    +0.000 A 
ATOM      8  C   UNL     1       7.561   5.765  18.710  0.00  0.00    +0.000 A 
BRANCH   8   9
ATOM      9  N   UNL     1       8.230   5.432  19.918  0.00  0.00    +0.000 N 
ATOM     10  H   UNL     1       8.088   5.998  20.769  0.00  0.00    +0.000 HD
ATOM     11  H   UNL     1       8.863   4.623  19.975  0.00  0.00    +0.000 HD
ENDBRANCH   8   9
BRANCH   3  13
ATOM     12  C   UNL     1       8.590   9.283  18.436  0.00  0.00    +0.000 C 
ATOM     13  O   UNL     1       8.534   7.936  18.729  0.00  0.00    +0.000 OA
ENDBRANCH   3  13
ENDBRANCH   1   6
BRANCH   2  14
ATOM     14  C   UNL     1       3.226   5.002  18.162  0.00  0.00    +0.000 A 
ATOM     15  C   UNL     1       2.944   4.528  19.456  0.00  0.00    +0.000 A 
ATOM     16  C   UNL     1       2.428   5.353  20.450  0.00  0.00    +0.000 A 
ATOM     17  C   UNL     1       2.171   6.714  20.168  0.00  0.00    +0.000 A 
ATOM     18  C   UNL     1       2.493   7.220  18.894  0.00  0.00    +0.000 A 
ATOM     19  C   UNL     1       3.029   6.363  17.904  0.00  0.00    +0.000 A 
BRANCH  16  20
ATOM     20  O   UNL     1       2.169   4.827  21.668  0.00  0.00    +0.000 OA
ATOM     21  H   UNL     1       1.281   4.553  21.941  0.00  0.00    +0.000 HD
ENDBRANCH  16  20
BRANCH  17  22
ATOM     22  O   UNL     1       1.619   7.572  21.071  0.00  0.00    +0.000 OA
ATOM     23  C   UNL     1       0.276   7.844  21.256  0.00  0.00    +0.000 C 
ENDBRANCH  17  22
BRANCH  18  24
ATOM     24  O   UNL     1       2.251   8.536  18.650  0.00  0.00    +0.000 OA
ATOM     25  C   UNL     1       1.457   9.036  17.640  0.00  0.00    +0.000 C 
ENDBRANCH  18  24
ENDBRANCH   2  14
TORSDOF 7
ENDMDL
MODEL 4
REMARK VINA RESULT:      -6.3      0.916      2.167
REMARK  Name = 
REMARK  10 active torsions:
REMARK  status: ('A' for Active; 'I' for Inactive)
REMARK    1  A    between atoms: C_1  and  O_2
REMARK    2  A    between atoms: O_2  and  C_3
REMARK    3  A    between atoms: C_6  and  C_7
REMARK    4  A    between atoms: C_8  and  C_9
REMARK    5  A    between atoms: C_11  and  O_12
REMARK    6  A    between atoms: C_13  and  O_14
REMARK    7  A    between atoms: O_14  and  C_15
REMARK    8  A    between atoms: C_16  and  O_17
REMARK    9  A    between atoms: O_17  and  C_18
REMARK   10  A    between atoms: C_21  and  N_22
REMARK                            x       y       z     vdW  Elec       q    Type
REMARK                         _______ _______ _______ _____ _____    ______ ____
ROOT
ATOM      1  C   UNL     1       2.436   3.082  18.232  0.00  0.00    +0.000 C 
ATOM      2  C   UNL     1       3.523   2.981  17.427  0.00  0.00    +0.000 C 
ENDROOT
BRANCH   1   6
ATOM      3  C   UNL     1       1.760   6.786  20.268  0.00  0.00    +0.000 A 
ATOM      4  C   UNL     1       1.609   5.560  20.954  0.00  0.00    +0.000 A 
ATOM      5  C   UNL     1       1.751   4.343  20.281  0.00  0.00    +0.000 A 
ATOM      6  C   UNL     1       2.092   4.337  18.925  0.00  0.00    +0.000 A 
ATOM      7  C   UNL     1       2.211   5.548  18.229  0.00  0.00    +0.000 A 
ATOM      8  C   UNL     1       2.032   6.771  18.886  0.00  0.00    +0.000 A 
BRANCH   8   9
ATOM      9  N   UNL     1       2.175   7.982  18.158  0.00  0.00    +0.000 N 
ATOM     10  H   UNL     1       1.345   8.481  17.803  0.00  0.00    +0.000 HD
ATOM     11  H   UNL     1       3.102   8.389  17.972  0.00  0.00    +0.000 HD
ENDBRANCH   8   9
BRANCH   3  13
ATOM     12  C   UNL     1       0.517   8.566  21.368  0.00  0.00    +0.000 C 
ATOM     13  O   UNL     1       1.677   7.985  20.902  0.00  0.00    +0.000 OA
ENDBRANCH   3  13
ENDBRANCH   1   6
BRANCH   2  14
ATOM     14  C   UNL     1       4.587   4.029  17.253  0.00  0.00    +0.000 A 
ATOM     15  C   UNL     1       4.504   5.036  16.275  0.00  0.00    +0.000 A 
ATOM     16  C   UNL     1       5.512   5.978  16.097  0.00  0.00    +0.000 A 
ATOM     17  C   UNL     1       6.664   5.936  16.914  0.00  0.00    +0.000 A 
ATOM     18  C   UNL     1       6.744   4.966  17.932  0.00  0.00    +0.000 A 
ATOM     19  C   UNL     1       5.699   4.027  18.101  0.00  0.00    +0.000 A 
BRANCH  16  20
ATOM     20  O   UNL     1       5.372   6.911  15.128  0.00  0.00    +0.000 OA
ATOM     21  H   UNL     1       5.027   7.799  15.304  0.00  0.00    +0.000 HD
ENDBRANCH  16  20
BRANCH  17  22
ATOM     22  O   UNL     1       7.716   6.790  16.768  0.00  0.00    +0.000 OA
ATOM     23  C   UNL     1       7.881   8.026  17.363  0.00  0.00    +0.000 C 
ENDBRANCH  17  22
BRANCH  18  24
ATOM     24  O   UNL     1       7.855   4.954  18.716  0.00  0.00    +0.000 OA
ATOM     25  C   UNL     1       7.964   5.521  19.968  0.00  0.00    +0.000 C 
ENDBRANCH  18  24
ENDBRANCH   2  14
TORSDOF 7
ENDMDL
MODEL 5
REMARK VINA RESULT:      -6.2      1.476      1.991
REMARK  Name = 
REMARK  10 active torsions:
REMARK  status: ('A' for Active; 'I' for Inactive)
REMARK    1  A    between atoms: C_1  and  O_2
REMARK    2  A    between atoms: O_2  and  C_3
REMARK    3  A    between atoms: C_6  and  C_7
REMARK    4  A    between atoms: C_8  and  C_9
REMARK    5  A    between atoms: C_11  and  O_12
REMARK    6  A    between atoms: C_13  and  O_14
REMARK    7  A    between atoms: O_14  and  C_15
REMARK    8  A    between atoms: C_16  and  O_17
REMARK    9  A    between atoms: O_17  and  C_18
REMARK   10  A    between atoms: C_21  and  N_22
REMARK                            x       y       z     vdW  Elec       q    Type
REMARK                         _______ _______ _______ _____ _____    ______ ____
ROOT
ATOM      1  C   UNL     1       1.955   4.643  19.330  0.00  0.00    +0.000 C 
ATOM      2  C   UNL     1       3.038   3.981  18.853  0.00  0.00    +0.000 C 
ENDROOT
BRANCH   1   6
ATOM      3  C   UNL     1       1.504   8.892  19.595  0.00  0.00    +0.000 A 
ATOM      4  C   UNL     1       1.733   8.278  18.342  0.00  0.00    +0.000 A 
ATOM      5  C   UNL     1       1.959   6.902  18.253  0.00  0.00    +0.000 A 
ATOM      6  C   UNL     1       1.912   6.115  19.409  0.00  0.00    +0.000 A 
ATOM      7  C   UNL     1       1.719   6.720  20.658  0.00  0.00    +0.000 A 
ATOM      8  C   UNL     1       1.531   8.103  20.761  0.00  0.00    +0.000 A 
BRANCH   8   9
ATOM      9  N   UNL     1       1.321   8.685  22.040  0.00  0.00    +0.000 N 
ATOM     10  H   UNL     1       0.370   8.929  22.356  0.00  0.00    +0.000 HD
ATOM     11  H   UNL     1       2.106   8.872  22.679  0.00  0.00    +0.000 HD
ENDBRANCH   8   9
BRANCH   3  13
ATOM     12  C   UNL     1       0.182  10.878  19.108  0.00  0.00    +0.000 C 
ATOM     13  O   UNL     1       1.233  10.218  19.712  0.00  0.00    +0.000 OA
ENDBRANCH   3  13
ENDBRANCH   1   6
BRANCH   2  14
ATOM     14  C   UNL     1       4.361   4.600  18.501  0.00  0.00    +0.000 A 
ATOM     15  C   UNL     1       5.353   4.866  19.462  0.00  0.00    +0.000 A 
ATOM     16  C   UNL     1       6.559   5.475  19.132  0.00  0.00    +0.000 A 
ATOM     17  C   UNL     1       6.813   5.847  17.793  0.00  0.00    +0.000 A 
ATOM     18  C   UNL     1       5.855   5.544  16.806  0.00  0.00    +0.000 A 
ATOM     19  C   UNL     1       4.640   4.913  17.166  0.00  0.00    +0.000 A 
BRANCH  16  20
ATOM     20  O   UNL     1       7.462   5.711  20.110  0.00  0.00    +0.000 OA
ATOM     21  H   UNL     1       7.210   5.816  21.040  0.00  0.00    +0.000 HD
ENDBRANCH  16  20
BRANCH  17  22
ATOM     22  O   UNL     1       7.947   6.492  17.399  0.00  0.00    +0.000 OA
ATOM     23  C   UNL     1       8.210   7.847  17.477  0.00  0.00    +0.000 C 
ENDBRANCH  17  22
BRANCH  18  24
ATOM     24  O   UNL     1       6.128   5.898  15.522  0.00  0.00    +0.000 OA
ATOM     25  C   UNL     1       6.604   5.058  14.538  0.00  0.00    +0.000 C 
ENDBRANCH  18  24
ENDBRANCH   2  14
TORSDOF 7
ENDMDL
MODEL 6
REMARK VINA RESULT:      -6.2      1.972      6.194
REMARK  Name = 
REMARK  10 active torsions:
REMARK  status: ('A' for Active; 'I' for Inactive)
REMARK    1  A    between atoms: C_1  and  O_2
REMARK    2  A    between atoms: O_2  and  C_3
REMARK    3  A    between atoms: C_6  and  C_7
REMARK    4  A    between atoms: C_8  and  C_9
REMARK    5  A    between atoms: C_11  and  O_12
REMARK    6  A    between atoms: C_13  and  O_14
REMARK    7  A    between atoms: O_14  and  C_15
REMARK    8  A    between atoms: C_16  and  O_17
REMARK    9  A    between atoms: O_17  and  C_18
REMARK   10  A    between atoms: C_21  and  N_22
REMARK                            x       y       z     vdW  Elec       q    Type
REMARK                         _______ _______ _______ _____ _____    ______ ____
ROOT
ATOM      1  C   UNL     1       3.506   3.742  18.636  0.00  0.00    +0.000 C 
ATOM      2  C   UNL     1       2.421   4.346  19.182  0.00  0.00    +0.000 C 
ENDROOT
BRANCH   1   6
ATOM      3  C   UNL     1       6.791   6.225  17.470  0.00  0.00    +0.000 A 
ATOM      4  C   UNL     1       5.737   5.970  16.564  0.00  0.00    +0.000 A 
ATOM      5  C   UNL     1       4.698   5.099  16.906  0.00  0.00    +0.000 A 
ATOM      6  C   UNL     1       4.676   4.509  18.174  0.00  0.00    +0.000 A 
ATOM      7  C   UNL     1       5.735   4.731  19.065  0.00  0.00    +0.000 A 
ATOM      8  C   UNL     1       6.799   5.570  18.717  0.00  0.00    +0.000 A 
BRANCH   8   9
ATOM      9  N   UNL     1       7.850   5.788  19.648  0.00  0.00    +0.000 N 
ATOM     10  H   UNL     1       8.319   4.992  20.105  0.00  0.00    +0.000 HD
ATOM     11  H   UNL     1       8.169   6.738  19.884  0.00  0.00    +0.000 HD
ENDBRANCH   8   9
BRANCH   3  13
ATOM     12  C   UNL     1       7.832   8.423  17.587  0.00  0.00    +0.000 C 
ATOM     13  O   UNL     1       7.790   7.103  17.190  0.00  0.00    +0.000 OA
ENDBRANCH   3  13
ENDBRANCH   1   6
BRANCH   2  14
ATOM     14  C   UNL     1       2.182   5.828  19.248  0.00  0.00    +0.000 A 
ATOM     15  C   UNL     1       2.363   6.675  18.139  0.00  0.00    +0.000 A 
ATOM     16  C   UNL     1       2.175   8.051  18.221  0.00  0.00    +0.000 A 
ATOM     17  C   UNL     1       1.794   8.635  19.450  0.00  0.00    +0.000 A 
ATOM     18  C   UNL     1       1.560   7.800  20.559  0.00  0.00    +0.000 A 
ATOM     19  C   UNL     1       1.745   6.402  20.447  0.00  0.00    +0.000 A 
BRANCH  16  20
ATOM     20  O   UNL     1       2.379   8.805  17.117  0.00  0.00    +0.000 OA
ATOM     21  H   UNL     1       1.945   8.620  16.271  0.00  0.00    +0.000 HD
ENDBRANCH  16  20
BRANCH  17  22
ATOM     22  O   UNL     1       1.642   9.978  19.623  0.00  0.00    +0.000 OA
ATOM     23  C   UNL     1       0.604  10.769  19.167  0.00  0.00    +0.000 C 
ENDBRANCH  17  22
BRANCH  18  24
ATOM     24  O   UNL     1       1.179   8.383  21.727  0.00  0.00    +0.000 OA
ATOM     25  C   UNL     1      -0.115   8.688  22.091  0.00  0.00    +0.000 C 
ENDBRANCH  18  24
ENDBRANCH   2  14
TORSDOF 7
ENDMDL
MODEL 7
REMARK VINA RESULT:      -6.1      2.281      5.876
REMARK  Name = 
REMARK  10 active torsions:
REMARK  status: ('A' for Active; 'I' for Inactive)
REMARK    1  A    between atoms: C_1  and  O_2
REMARK    2  A    between atoms: O_2  and  C_3
REMARK    3  A    between atoms: C_6  and  C_7
REMARK    4  A    between atoms: C_8  and  C_9
REMARK    5  A    between atoms: C_11  and  O_12
REMARK    6  A    between atoms: C_13  and  O_14
REMARK    7  A    between atoms: O_14  and  C_15
REMARK    8  A    between atoms: C_16  and  O_17
REMARK    9  A    between atoms: O_17  and  C_18
REMARK   10  A    between atoms: C_21  and  N_22
REMARK                            x       y       z     vdW  Elec       q    Type
REMARK                         _______ _______ _______ _____ _____    ______ ____
ROOT
ATOM      1  C   UNL     1       3.913   4.410  17.364  0.00  0.00    +0.000 C 
ATOM      2  C   UNL     1       2.716   4.797  17.869  0.00  0.00    +0.000 C 
ENDROOT
BRANCH   1   6
ATOM      3  C   UNL     1       7.287   6.949  18.066  0.00  0.00    +0.000 A 
ATOM      4  C   UNL     1       6.440   7.182  16.959  0.00  0.00    +0.000 A 
ATOM      5  C   UNL     1       5.382   6.315  16.675  0.00  0.00    +0.000 A 
ATOM      6  C   UNL     1       5.128   5.230  17.521  0.00  0.00    +0.000 A 
ATOM      7  C   UNL     1       5.983   4.973  18.602  0.00  0.00    +0.000 A 
ATOM      8  C   UNL     1       7.069   5.815  18.871  0.00  0.00    +0.000 A 
BRANCH   8   9
ATOM      9  N   UNL     1       7.907   5.537  19.983  0.00  0.00    +0.000 N 
ATOM     10  H   UNL     1       8.907   5.791  19.962  0.00  0.00    +0.000 HD
ATOM     11  H   UNL     1       7.540   5.085  20.832  0.00  0.00    +0.000 HD
ENDBRANCH   8   9
BRANCH   3  13
ATOM     12  C   UNL     1       8.294   9.163  18.190  0.00  0.00    +0.000 C 
ATOM     13  O   UNL     1       8.293   7.799  18.399  0.00  0.00    +0.000 OA
ENDBRANCH   3  13
ENDBRANCH   1   6
BRANCH   2  14
ATOM     14  C   UNL     1       2.416   6.131  18.493  0.00  0.00    +0.000 A 
ATOM     15  C   UNL     1       2.214   6.293  19.876  0.00  0.00    +0.000 A 
ATOM     16  C   UNL     1       1.899   7.526  20.438  0.00  0.00    +0.000 A 
ATOM     17  C   UNL     1       1.771   8.662  19.609  0.00  0.00    +0.000 A 
ATOM     18  C   UNL     1       2.018   8.532  18.228  0.00  0.00    +0.000 A 
ATOM     19  C   UNL     1       2.349   7.269  17.682  0.00  0.00    +0.000 A 
BRANCH  16  20
ATOM     20  O   UNL     1       1.707   7.605  21.774  0.00  0.00    +0.000 OA
ATOM     21  H   UNL     1       1.589   6.822  22.333  0.00  0.00    +0.000 HD
ENDBRANCH  16  20
BRANCH  17  22
ATOM     22  O   UNL     1       1.415   9.892  20.076  0.00  0.00    +0.000 OA
ATOM     23  C   UNL     1       0.169  10.289  20.526  0.00  0.00    +0.000 C 
ENDBRANCH  17  22
BRANCH  18  24
ATOM     24  O   UNL     1       1.903   9.643  17.452  0.00  0.00    +0.000 OA
ATOM     25  C   UNL     1       2.340  10.907  17.785  0.00  0.00    +0.000 C 
ENDBRANCH  18  24
ENDBRANCH   2  14
TORSDOF 7
ENDMDL
MODEL 8
REMARK VINA RESULT:      -5.9      1.531      2.894
REMARK  Name = 
REMARK  10 active torsions:
REMARK  status: ('A' for Active; 'I' for Inactive)
REMARK    1  A    between atoms: C_1  and  O_2
REMARK    2  A    between atoms: O_2  and  C_3
REMARK    3  A    between atoms: C_6  and  C_7
REMARK    4  A    between atoms: C_8  and  C_9
REMARK    5  A    between atoms: C_11  and  O_12
REMARK    6  A    between atoms: C_13  and  O_14
REMARK    7  A    between atoms: O_14  and  C_15
REMARK    8  A    between atoms: C_16  and  O_17
REMARK    9  A    between atoms: O_17  and  C_18
REMARK   10  A    between atoms: C_21  and  N_22
REMARK                            x       y       z     vdW  Elec       q    Type
REMARK                         _______ _______ _______ _____ _____    ______ ____
ROOT
ATOM      1  C   UNL     1       2.173   4.012  19.712  0.00  0.00    +0.000 C 
ATOM      2  C   UNL     1       3.034   3.202  19.049  0.00  0.00    +0.000 C 
ENDROOT
BRANCH   1   6
ATOM      3  C   UNL     1       1.845   8.247  19.186  0.00  0.00    +0.000 A 
ATOM      4  C   UNL     1       2.107   7.411  18.076  0.00  0.00    +0.000 A 
ATOM      5  C   UNL     1       2.293   6.037  18.248  0.00  0.00    +0.000 A 
ATOM      6  C   UNL     1       2.173   5.474  19.522  0.00  0.00    +0.000 A 
ATOM      7  C   UNL     1       1.947   6.300  20.632  0.00  0.00    +0.000 A 
ATOM      8  C   UNL     1       1.799   7.683  20.475  0.00  0.00    +0.000 A 
BRANCH   8   9
ATOM      9  N   UNL     1       1.554   8.492  21.617  0.00  0.00    +0.000 N 
ATOM     10  H   UNL     1       1.988   9.424  21.702  0.00  0.00    +0.000 HD
ATOM     11  H   UNL     1       0.938   8.174  22.378  0.00  0.00    +0.000 HD
ENDBRANCH   8   9
BRANCH   3  13
ATOM     12  C   UNL     1       0.426  10.146  18.628  0.00  0.00    +0.000 C 
ATOM     13  O   UNL     1       1.611   9.579  19.049  0.00  0.00    +0.000 OA
ENDBRANCH   3  13
ENDBRANCH   1   6
BRANCH   2  14
ATOM     14  C   UNL     1       4.178   3.655  18.185  0.00  0.00    +0.000 A 
ATOM     15  C   UNL     1       4.107   3.668  16.781  0.00  0.00    +0.000 A 
ATOM     16  C   UNL     1       5.184   4.053  15.990  0.00  0.00    +0.000 A 
ATOM     17  C   UNL     1       6.397   4.445  16.599  0.00  0.00    +0.000 A 
ATOM     18  C   UNL     1       6.473   4.488  18.005  0.00  0.00    +0.000 A 
ATOM     19  C   UNL     1       5.359   4.103  18.788  0.00  0.00    +0.000 A 
BRANCH  16  20
ATOM     20  O   UNL     1       5.049   4.029  14.645  0.00  0.00    +0.000 OA
ATOM     21  H   UNL     1       5.391   4.732  14.072  0.00  0.00    +0.000 HD
ENDBRANCH  16  20
BRANCH  17  22
ATOM     22  O   UNL     1       7.512   4.786  15.893  0.00  0.00    +0.000 OA
ATOM     23  C   UNL     1       7.571   5.256  14.594  0.00  0.00    +0.000 C 
ENDBRANCH  17  22
BRANCH  18  24
ATOM     24  O   UNL     1       7.645   4.883  18.569  0.00  0.00    +0.000 OA
ATOM     25  C   UNL     1       7.932   6.151  19.027  0.00  0.00    +0.000 C 
ENDBRANCH  18  24
ENDBRANCH   2  14
TORSDOF 7
ENDMDL
MODEL 9
REMARK VINA RESULT:      -5.9      1.937      5.610
REMARK  Name = 
REMARK  10 active torsions:
REMARK  status: ('A' for Active; 'I' for Inactive)
REMARK    1  A    between atoms: C_1  and  O_2
REMARK    2  A    between atoms: O_2  and  C_3
REMARK    3  A    between atoms: C_6  and  C_7
REMARK    4  A    between atoms: C_8  and  C_9
REMARK    5  A    between atoms: C_11  and  O_12
REMARK    6  A    between atoms: C_13  and  O_14
REMARK    7  A    between atoms: O_14  and  C_15
REMARK    8  A    between atoms: C_16  and  O_17
REMARK    9  A    between atoms: O_17  and  C_18
REMARK   10  A    between atoms: C_21  and  N_22
REMARK                            x       y       z     vdW  Elec       q    Type
REMARK                         _______ _______ _______ _____ _____    ______ ____
ROOT
ATOM      1  C   UNL     1       3.839   3.550  16.345  0.00  0.00    +0.000 C 
ATOM      2  C   UNL     1       2.799   3.638  17.211  0.00  0.00    +0.000 C 
ENDROOT
BRANCH   1   6
ATOM      3  C   UNL     1       7.092   6.281  16.871  0.00  0.00    +0.000 A 
ATOM      4  C   UNL     1       6.220   6.419  15.768  0.00  0.00    +0.000 A 
ATOM      5  C   UNL     1       5.202   5.488  15.543  0.00  0.00    +0.000 A 
ATOM      6  C   UNL     1       5.014   4.435  16.443  0.00  0.00    +0.000 A 
ATOM      7  C   UNL     1       5.895   4.272  17.521  0.00  0.00    +0.000 A 
ATOM      8  C   UNL     1       6.941   5.178  17.733  0.00  0.00    +0.000 A 
BRANCH   8   9
ATOM      9  N   UNL     1       7.808   4.996  18.843  0.00  0.00    +0.000 N 
ATOM     10  H   UNL     1       7.775   4.126  19.397  0.00  0.00    +0.000 HD
ATOM     11  H   UNL     1       8.487   5.719  19.117  0.00  0.00    +0.000 HD
ENDBRANCH   8   9
BRANCH   3  13
ATOM     12  C   UNL     1       7.848   8.462  17.647  0.00  0.00    +0.000 C 
ATOM     13  O   UNL     1       8.060   7.194  17.147  0.00  0.00    +0.000 OA
ENDBRANCH   3  13
ENDBRANCH   1   6
BRANCH   2  14
ATOM     14  C   UNL     1       2.613   4.705  18.253  0.00  0.00    +0.000 A 
ATOM     15  C   UNL     1       2.492   4.412  19.624  0.00  0.00    +0.000 A 
ATOM     16  C   UNL     1       2.281   5.404  20.576  0.00  0.00    +0.000 A 
ATOM     17  C   UNL     1       2.181   6.754  20.172  0.00  0.00    +0.000 A 
ATOM     18  C   UNL     1       2.349   7.074  18.811  0.00  0.00    +0.000 A 
ATOM     19  C   UNL     1       2.575   6.048  17.863  0.00  0.00    +0.000 A 
BRANCH  16  20
ATOM     20  O   UNL     1       2.162   5.049  21.875  0.00  0.00    +0.000 OA
ATOM     21  H   UNL     1       1.592   5.525  22.497  0.00  0.00    +0.000 HD
ENDBRANCH  16  20
BRANCH  17  22
ATOM     22  O   UNL     1       1.924   7.776  21.036  0.00  0.00    +0.000 OA
ATOM     23  C   UNL     1       0.691   8.311  21.359  0.00  0.00    +0.000 C 
ENDBRANCH  17  22
BRANCH  18  24
ATOM     24  O   UNL     1       2.264   8.382  18.447  0.00  0.00    +0.000 OA
ATOM     25  C   UNL     1       1.295   8.930  17.634  0.00  0.00    +0.000 C 
ENDBRANCH  18  24
ENDBRANCH   2  14
TORSDOF 7
ENDMDL
