MODEL 1
REMARK VINA RESULT:      -9.2      0.000      0.000
REMARK  Name = 
REMARK  5 active torsions:
REMARK  status: ('A' for Active; 'I' for Inactive)
REMARK    1  A    between atoms: C_1  and  N_2
REMARK    2  A    between atoms: N_2  and  C_3
REMARK    3  A    between atoms: N_2  and  S_17
REMARK    4  A    between atoms: N_10  and  N_11
REMARK    5  A    between atoms: S_17  and  C_20
REMARK                            x       y       z     vdW  Elec       q    Type
REMARK                         _______ _______ _______ _____ _____    ______ ____
ROOT
ATOM      1  C   UNL     1       2.990   5.958  19.072  0.00  0.00    +0.000 A 
ATOM      2  C   UNL     1       3.593   6.401  17.877  0.00  0.00    +0.000 A 
ATOM      3  C   UNL     1       3.328   7.692  17.392  0.00  0.00    +0.000 A 
ATOM      4  C   UNL     1       2.460   8.514  18.119  0.00  0.00    +0.000 A 
ATOM      5  C   UNL     1       1.877   8.065  19.272  0.00  0.00    +0.000 A 
ATOM      6  C   UNL     1       2.115   6.792  19.776  0.00  0.00    +0.000 A 
ATOM      7  C   UNL     1       1.035   9.087  19.823  0.00  0.00    +0.000 C 
ATOM      8  N   UNL     1       0.345   8.916  20.897  0.00  0.00    +0.000 NA
ATOM      9  C   UNL     1       1.049  10.293  18.926  0.00  0.00    +0.000 C 
ATOM     10  C   UNL     1       2.080   9.932  17.828  0.00  0.00    +0.000 C 
ENDROOT
BRANCH   8  11
ATOM     11  N   UNL     1      -0.498   9.866  21.426  0.00  0.00    +0.000 N 
ATOM     12  C   UNL     1      -0.436  10.201  22.804  0.00  0.00    +0.000 C 
ATOM     13  N   UNL     1       0.418   9.642  23.594  0.00  0.00    +0.000 NA
ATOM     14  N   UNL     1      -1.312  11.181  23.330  0.00  0.00    +0.000 N 
ATOM     15  H   UNL     1      -1.196  10.336  20.829  0.00  0.00    +0.000 HD
ATOM     16  H   UNL     1       1.087   8.927  23.271  0.00  0.00    +0.000 HD
ATOM     17  H   UNL     1      -2.000  11.645  22.716  0.00  0.00    +0.000 HD
ATOM     18  H   UNL     1      -1.277  11.441  24.325  0.00  0.00    +0.000 HD
ENDBRANCH   8  11
BRANCH   1  20
ATOM     19  C   UNL     1       2.691   4.267  20.836  0.00  0.00    +0.000 C 
ATOM     20  N   UNL     1       3.277   4.676  19.585  0.00  0.00    +0.000 N 
BRANCH  20  21
ATOM     21  S   UNL     1       4.521   3.696  18.807  0.00  0.00    +0.000 S 
ATOM     22  O   UNL     1       5.200   2.943  19.963  0.00  0.00    +0.000 OA
ATOM     23  O   UNL     1       3.758   2.551  18.127  0.00  0.00    +0.000 OA
BRANCH  21  24
ATOM     24  C   UNL     1       5.767   4.440  17.748  0.00  0.00    +0.000 A 
ATOM     25  C   UNL     1       6.881   5.175  18.150  0.00  0.00    +0.000 A 
ATOM     26 CL   UNL     1       7.323   5.571  19.797  0.00  0.00    +0.000 Cl
ATOM     27  N   UNL     1       7.615   5.536  17.063  0.00  0.00    +0.000 NA
ATOM     28  C   UNL     1       6.917   5.004  16.044  0.00  0.00    +0.000 A 
ATOM     29  S   UNL     1       7.167   4.989  14.388  0.00  0.00    +0.000 S 
ATOM     30  C   UNL     1       5.742   4.063  14.153  0.00  0.00    +0.000 A 
ATOM     31  C   UNL     1       5.134   3.805  15.392  0.00  0.00    +0.000 A 
ATOM     32  N   UNL     1       5.831   4.353  16.412  0.00  0.00    +0.000 N 
ENDBRANCH  21  24
ENDBRANCH  20  21
ENDBRANCH   1  20
TORSDOF 4
ENDMDL
MODEL 2
REMARK VINA RESULT:      -8.3      4.286      8.429
REMARK  Name = 
REMARK  5 active torsions:
REMARK  status: ('A' for Active; 'I' for Inactive)
REMARK    1  A    between atoms: C_1  and  N_2
REMARK    2  A    between atoms: N_2  and  C_3
REMARK    3  A    between atoms: N_2  and  S_17
REMARK    4  A    between atoms: N_10  and  N_11
REMARK    5  A    between atoms: S_17  and  C_20
REMARK                            x       y       z     vdW  Elec       q    Type
REMARK                         _______ _______ _______ _____ _____    ______ ____
ROOT
ATOM      1  C   UNL     1       1.879   7.366  19.915  0.00  0.00    +0.000 A 
ATOM      2  C   UNL     1       1.423   6.315  20.737  0.00  0.00    +0.000 A 
ATOM      3  C   UNL     1       1.845   4.997  20.493  0.00  0.00    +0.000 A 
ATOM      4  C   UNL     1       2.719   4.762  19.426  0.00  0.00    +0.000 A 
ATOM      5  C   UNL     1       3.145   5.792  18.633  0.00  0.00    +0.000 A 
ATOM      6  C   UNL     1       2.742   7.105  18.845  0.00  0.00    +0.000 A 
ATOM      7  C   UNL     1       4.024   5.294  17.616  0.00  0.00    +0.000 C 
ATOM      8  N   UNL     1       4.549   6.052  16.717  0.00  0.00    +0.000 NA
ATOM      9  C   UNL     1       4.151   3.802  17.743  0.00  0.00    +0.000 C 
ATOM     10  C   UNL     1       3.340   3.463  19.018  0.00  0.00    +0.000 C 
ENDROOT
BRANCH   8  11
ATOM     11  N   UNL     1       5.365   5.594  15.709  0.00  0.00    +0.000 N 
ATOM     12  C   UNL     1       6.772   5.780  15.778  0.00  0.00    +0.000 C 
ATOM     13  N   UNL     1       7.324   6.364  16.786  0.00  0.00    +0.000 NA
ATOM     14  N   UNL     1       7.596   5.301  14.731  0.00  0.00    +0.000 N 
ATOM     15  H   UNL     1       4.964   5.123  14.885  0.00  0.00    +0.000 HD
ATOM     16  H   UNL     1       6.780   6.728  17.583  0.00  0.00    +0.000 HD
ATOM     17  H   UNL     1       7.177   4.827  13.916  0.00  0.00    +0.000 HD
ATOM     18  H   UNL     1       8.618   5.421  14.766  0.00  0.00    +0.000 HD
ENDBRANCH   8  11
BRANCH   1  20
ATOM     19  C   UNL     1       1.347   9.140  21.536  0.00  0.00    +0.000 C 
ATOM     20  N   UNL     1       1.488   8.696  20.173  0.00  0.00    +0.000 N 
BRANCH  20  21
ATOM     21  S   UNL     1       0.961   9.714  18.832  0.00  0.00    +0.000 S 
ATOM     22  O   UNL     1       2.138  10.671  18.585  0.00  0.00    +0.000 OA
ATOM     23  O   UNL     1       1.056   8.816  17.589  0.00  0.00    +0.000 OA
BRANCH  21  24
ATOM     24  C   UNL     1      -0.575  10.642  18.914  0.00  0.00    +0.000 A 
ATOM     25  C   UNL     1      -0.895  11.659  19.812  0.00  0.00    +0.000 A 
ATOM     26 CL   UNL     1       0.126  12.263  21.100  0.00  0.00    +0.000 Cl
ATOM     27  N   UNL     1      -2.132  12.151  19.534  0.00  0.00    +0.000 NA
ATOM     28  C   UNL     1      -2.513  11.414  18.476  0.00  0.00    +0.000 A 
ATOM     29  S   UNL     1      -3.900  11.416  17.538  0.00  0.00    +0.000 S 
ATOM     30  C   UNL     1      -3.274  10.154  16.558  0.00  0.00    +0.000 A 
ATOM     31  C   UNL     1      -1.997   9.788  17.015  0.00  0.00    +0.000 A 
ATOM     32  N   UNL     1      -1.623  10.522  18.087  0.00  0.00    +0.000 N 
ENDBRANCH  21  24
ENDBRANCH  20  21
ENDBRANCH   1  20
TORSDOF 4
ENDMDL
MODEL 3
REMARK VINA RESULT:      -8.2      6.606      9.793
REMARK  Name = 
REMARK  5 active torsions:
REMARK  status: ('A' for Active; 'I' for Inactive)
REMARK    1  A    between atoms: C_1  and  N_2
REMARK    2  A    between atoms: N_2  and  C_3
REMARK    3  A    between atoms: N_2  and  S_17
REMARK    4  A    between atoms: N_10  and  N_11
REMARK    5  A    between atoms: S_17  and  C_20
REMARK                            x       y       z     vdW  Elec       q    Type
REMARK                         _______ _______ _______ _____ _____    ______ ____
ROOT
ATOM      1  C   UNL     1      -3.935  13.145  21.511  0.00  0.00    +0.000 A 
ATOM      2  C   UNL     1      -5.137  13.181  22.246  0.00  0.00    +0.000 A 
ATOM      3  C   UNL     1      -6.323  12.684  21.682  0.00  0.00    +0.000 A 
ATOM      4  C   UNL     1      -6.277  12.158  20.385  0.00  0.00    +0.000 A 
ATOM      5  C   UNL     1      -5.103  12.139  19.682  0.00  0.00    +0.000 A 
ATOM      6  C   UNL     1      -3.915  12.628  20.210  0.00  0.00    +0.000 A 
ATOM      7  C   UNL     1      -5.319  11.558  18.389  0.00  0.00    +0.000 C 
ATOM      8  N   UNL     1      -4.382  11.442  17.513  0.00  0.00    +0.000 NA
ATOM      9  C   UNL     1      -6.770  11.202  18.230  0.00  0.00    +0.000 C 
ATOM     10  C   UNL     1      -7.390  11.527  19.611  0.00  0.00    +0.000 C 
ENDROOT
BRANCH   8  11
ATOM     11  N   UNL     1      -4.571  10.924  16.253  0.00  0.00    +0.000 N 
ATOM     12  C   UNL     1      -3.475  10.774  15.362  0.00  0.00    +0.000 C 
ATOM     13  N   UNL     1      -2.277  11.101  15.709  0.00  0.00    +0.000 NA
ATOM     14  N   UNL     1      -3.689  10.238  14.068  0.00  0.00    +0.000 N 
ATOM     15  H   UNL     1      -5.513  10.651  15.936  0.00  0.00    +0.000 HD
ATOM     16  H   UNL     1      -2.055  11.490  16.638  0.00  0.00    +0.000 HD
ATOM     17  H   UNL     1      -4.639   9.966  13.771  0.00  0.00    +0.000 HD
ATOM     18  H   UNL     1      -2.906  10.117  13.411  0.00  0.00    +0.000 HD
ENDBRANCH   8  11
BRANCH   1  20
ATOM     19  C   UNL     1      -2.519  15.027  22.225  0.00  0.00    +0.000 C 
ATOM     20  N   UNL     1      -2.732  13.610  22.082  0.00  0.00    +0.000 N 
BRANCH  20  21
ATOM     21  S   UNL     1      -1.428  12.463  22.395  0.00  0.00    +0.000 S 
ATOM     22  O   UNL     1      -0.470  13.214  23.335  0.00  0.00    +0.000 OA
ATOM     23  O   UNL     1      -2.028  11.432  23.361  0.00  0.00    +0.000 OA
BRANCH  21  24
ATOM     24  C   UNL     1      -0.503  11.715  21.050  0.00  0.00    +0.000 A 
ATOM     25  C   UNL     1      -0.177  12.298  19.827  0.00  0.00    +0.000 A 
ATOM     26 CL   UNL     1      -0.619  13.908  19.297  0.00  0.00    +0.000 Cl
ATOM     27  N   UNL     1       0.569  11.436  19.085  0.00  0.00    +0.000 NA
ATOM     28  C   UNL     1       0.669  10.364  19.890  0.00  0.00    +0.000 A 
ATOM     29  S   UNL     1       1.441   8.888  19.716  0.00  0.00    +0.000 S 
ATOM     30  C   UNL     1       0.923   8.400  21.277  0.00  0.00    +0.000 A 
ATOM     31  C   UNL     1       0.165   9.424  21.866  0.00  0.00    +0.000 A 
ATOM     32  N   UNL     1       0.055  10.496  21.049  0.00  0.00    +0.000 N 
ENDBRANCH  21  24
ENDBRANCH  20  21
ENDBRANCH   1  20
TORSDOF 4
ENDMDL
MODEL 4
REMARK VINA RESULT:      -8.2      7.349     10.115
REMARK  Name = 
REMARK  5 active torsions:
REMARK  status: ('A' for Active; 'I' for Inactive)
REMARK    1  A    between atoms: C_1  and  N_2
REMARK    2  A    between atoms: N_2  and  C_3
REMARK    3  A    between atoms: N_2  and  S_17
REMARK    4  A    between atoms: N_10  and  N_11
REMARK    5  A    between atoms: S_17  and  C_20
REMARK                            x       y       z     vdW  Elec       q    Type
REMARK                         _______ _______ _______ _____ _____    ______ ____
ROOT
ATOM      1  C   UNL     1      -4.100  13.349  21.549  0.00  0.00    +0.000 A 
ATOM      2  C   UNL     1      -5.298  13.311  22.291  0.00  0.00    +0.000 A 
ATOM      3  C   UNL     1      -6.447  12.716  21.744  0.00  0.00    +0.000 A 
ATOM      4  C   UNL     1      -6.368  12.170  20.457  0.00  0.00    +0.000 A 
ATOM      5  C   UNL     1      -5.200  12.224  19.748  0.00  0.00    +0.000 A 
ATOM      6  C   UNL     1      -4.048  12.809  20.259  0.00  0.00    +0.000 A 
ATOM      7  C   UNL     1      -5.378  11.603  18.467  0.00  0.00    +0.000 C 
ATOM      8  N   UNL     1      -4.439  11.539  17.588  0.00  0.00    +0.000 NA
ATOM      9  C   UNL     1      -6.800  11.137  18.324  0.00  0.00    +0.000 C 
ATOM     10  C   UNL     1      -7.436  11.443  19.703  0.00  0.00    +0.000 C 
ENDROOT
BRANCH   8  11
ATOM     11  N   UNL     1      -4.596  10.983  16.339  0.00  0.00    +0.000 N 
ATOM     12  C   UNL     1      -3.475  10.796  15.487  0.00  0.00    +0.000 C 
ATOM     13  N   UNL     1      -2.285  11.122  15.860  0.00  0.00    +0.000 NA
ATOM     14  N   UNL     1      -3.655  10.221  14.205  0.00  0.00    +0.000 N 
ATOM     15  H   UNL     1      -5.531  10.710  16.002  0.00  0.00    +0.000 HD
ATOM     16  H   UNL     1      -2.087  11.537  16.783  0.00  0.00    +0.000 HD
ATOM     17  H   UNL     1      -4.598   9.949  13.887  0.00  0.00    +0.000 HD
ATOM     18  H   UNL     1      -2.854  10.072  13.576  0.00  0.00    +0.000 HD
ENDBRANCH   8  11
BRANCH   1  20
ATOM     19  C   UNL     1      -2.676  15.321  21.932  0.00  0.00    +0.000 C 
ATOM     20  N   UNL     1      -2.933  13.913  22.103  0.00  0.00    +0.000 N 
BRANCH  20  21
ATOM     21  S   UNL     1      -1.705  12.849  22.792  0.00  0.00    +0.000 S 
ATOM     22  O   UNL     1      -0.991  13.711  23.845  0.00  0.00    +0.000 OA
ATOM     23  O   UNL     1      -2.481  11.878  23.694  0.00  0.00    +0.000 OA
BRANCH  21  24
ATOM     24  C   UNL     1      -0.494  12.028  21.750  0.00  0.00    +0.000 A 
ATOM     25  C   UNL     1       0.053  10.759  21.937  0.00  0.00    +0.000 A 
ATOM     26 CL   UNL     1      -0.298   9.664  23.257  0.00  0.00    +0.000 Cl
ATOM     27  N   UNL     1       0.904  10.466  20.916  0.00  0.00    +0.000 NA
ATOM     28  C   UNL     1       0.837  11.568  20.150  0.00  0.00    +0.000 A 
ATOM     29  S   UNL     1       1.575  11.987  18.706  0.00  0.00    +0.000 S 
ATOM     30  C   UNL     1       0.764  13.499  18.697  0.00  0.00    +0.000 A 
ATOM     31  C   UNL     1      -0.053  13.605  19.833  0.00  0.00    +0.000 A 
ATOM     32  N   UNL     1       0.026  12.501  20.609  0.00  0.00    +0.000 N 
ENDBRANCH  21  24
ENDBRANCH  20  21
ENDBRANCH   1  20
TORSDOF 4
ENDMDL
MODEL 5
REMARK VINA RESULT:      -8.1      4.249      8.672
REMARK  Name = 
REMARK  5 active torsions:
REMARK  status: ('A' for Active; 'I' for Inactive)
REMARK    1  A    between atoms: C_1  and  N_2
REMARK    2  A    between atoms: N_2  and  C_3
REMARK    3  A    between atoms: N_2  and  S_17
REMARK    4  A    between atoms: N_10  and  N_11
REMARK    5  A    between atoms: S_17  and  C_20
REMARK                            x       y       z     vdW  Elec       q    Type
REMARK                         _______ _______ _______ _____ _____    ______ ____
ROOT
ATOM      1  C   UNL     1       1.969   7.217  19.805  0.00  0.00    +0.000 A 
ATOM      2  C   UNL     1       1.511   6.160  20.616  0.00  0.00    +0.000 A 
ATOM      3  C   UNL     1       1.925   4.843  20.356  0.00  0.00    +0.000 A 
ATOM      4  C   UNL     1       2.794   4.615  19.283  0.00  0.00    +0.000 A 
ATOM      5  C   UNL     1       3.222   5.652  18.500  0.00  0.00    +0.000 A 
ATOM      6  C   UNL     1       2.827   6.964  18.728  0.00  0.00    +0.000 A 
ATOM      7  C   UNL     1       4.094   5.160  17.474  0.00  0.00    +0.000 C 
ATOM      8  N   UNL     1       4.620   5.926  16.582  0.00  0.00    +0.000 NA
ATOM      9  C   UNL     1       4.214   3.666  17.583  0.00  0.00    +0.000 C 
ATOM     10  C   UNL     1       3.406   3.318  18.858  0.00  0.00    +0.000 C 
ENDROOT
BRANCH   8  11
ATOM     11  N   UNL     1       5.430   5.475  15.565  0.00  0.00    +0.000 N 
ATOM     12  C   UNL     1       6.833   5.690  15.610  0.00  0.00    +0.000 C 
ATOM     13  N   UNL     1       7.389   6.295  16.604  0.00  0.00    +0.000 NA
ATOM     14  N   UNL     1       7.651   5.219  14.555  0.00  0.00    +0.000 N 
ATOM     15  H   UNL     1       5.025   4.988  14.752  0.00  0.00    +0.000 HD
ATOM     16  H   UNL     1       6.850   6.656  17.406  0.00  0.00    +0.000 HD
ATOM     17  H   UNL     1       7.228   4.728  13.751  0.00  0.00    +0.000 HD
ATOM     18  H   UNL     1       8.670   5.360  14.573  0.00  0.00    +0.000 HD
ENDBRANCH   8  11
BRANCH   1  20
ATOM     19  C   UNL     1       1.392   8.959  21.446  0.00  0.00    +0.000 C 
ATOM     20  N   UNL     1       1.587   8.546  20.079  0.00  0.00    +0.000 N 
BRANCH  20  21
ATOM     21  S   UNL     1       1.133   9.605  18.742  0.00  0.00    +0.000 S 
ATOM     22  O   UNL     1       2.456  10.242  18.287  0.00  0.00    +0.000 OA
ATOM     23  O   UNL     1       0.848   8.661  17.565  0.00  0.00    +0.000 OA
BRANCH  21  24
ATOM     24  C   UNL     1      -0.119  10.877  18.945  0.00  0.00    +0.000 A 
ATOM     25  C   UNL     1      -1.357  10.946  18.308  0.00  0.00    +0.000 A 
ATOM     26 CL   UNL     1      -1.981   9.810  17.131  0.00  0.00    +0.000 Cl
ATOM     27  N   UNL     1      -2.047  12.032  18.751  0.00  0.00    +0.000 NA
ATOM     28  C   UNL     1      -1.199  12.578  19.641  0.00  0.00    +0.000 A 
ATOM     29  S   UNL     1      -1.311  13.925  20.629  0.00  0.00    +0.000 S 
ATOM     30  C   UNL     1       0.248  13.616  21.276  0.00  0.00    +0.000 A 
ATOM     31  C   UNL     1       0.786  12.463  20.684  0.00  0.00    +0.000 A 
ATOM     32  N   UNL     1      -0.062  11.924  19.780  0.00  0.00    +0.000 N 
ENDBRANCH  21  24
ENDBRANCH  20  21
ENDBRANCH   1  20
TORSDOF 4
ENDMDL
MODEL 6
REMARK VINA RESULT:      -8.0      5.681      9.194
REMARK  Name = 
REMARK  5 active torsions:
REMARK  status: ('A' for Active; 'I' for Inactive)
REMARK    1  A    between atoms: C_1  and  N_2
REMARK    2  A    between atoms: N_2  and  C_3
REMARK    3  A    between atoms: N_2  and  S_17
REMARK    4  A    between atoms: N_10  and  N_11
REMARK    5  A    between atoms: S_17  and  C_20
REMARK                            x       y       z     vdW  Elec       q    Type
REMARK                         _______ _______ _______ _____ _____    ______ ____
ROOT
ATOM      1  C   UNL     1       0.647  10.179  19.723  0.00  0.00    +0.000 A 
ATOM      2  C   UNL     1       1.207  10.614  18.504  0.00  0.00    +0.000 A 
ATOM      3  C   UNL     1       2.072   9.771  17.786  0.00  0.00    +0.000 A 
ATOM      4  C   UNL     1       2.358   8.505  18.310  0.00  0.00    +0.000 A 
ATOM      5  C   UNL     1       1.813   8.104  19.499  0.00  0.00    +0.000 A 
ATOM      6  C   UNL     1       0.959   8.915  20.234  0.00  0.00    +0.000 A 
ATOM      7  C   UNL     1       2.261   6.779  19.817  0.00  0.00    +0.000 C 
ATOM      8  N   UNL     1       1.917   6.169  20.898  0.00  0.00    +0.000 NA
ATOM      9  C   UNL     1       3.206   6.295  18.754  0.00  0.00    +0.000 C 
ATOM     10  C   UNL     1       3.197   7.428  17.698  0.00  0.00    +0.000 C 
ENDROOT
BRANCH   8  11
ATOM     11  N   UNL     1       2.361   4.914  21.244  0.00  0.00    +0.000 N 
ATOM     12  C   UNL     1       1.591   3.763  20.930  0.00  0.00    +0.000 C 
ATOM     13  N   UNL     1       0.469   3.856  20.302  0.00  0.00    +0.000 NA
ATOM     14  N   UNL     1       2.064   2.479  21.294  0.00  0.00    +0.000 N 
ATOM     15  H   UNL     1       3.253   4.795  21.748  0.00  0.00    +0.000 HD
ATOM     16  H   UNL     1       0.073   4.760  20.004  0.00  0.00    +0.000 HD
ATOM     17  H   UNL     1       2.962   2.380  21.794  0.00  0.00    +0.000 HD
ATOM     18  H   UNL     1       1.522   1.633  21.070  0.00  0.00    +0.000 HD
ENDBRANCH   8  11
BRANCH   1  20
ATOM     19  C   UNL     1      -0.443  10.790  21.844  0.00  0.00    +0.000 C 
ATOM     20  N   UNL     1      -0.249  11.005  20.432  0.00  0.00    +0.000 N 
BRANCH  20  21
ATOM     21  S   UNL     1      -1.280  12.124  19.539  0.00  0.00    +0.000 S 
ATOM     22  O   UNL     1      -1.591  13.248  20.541  0.00  0.00    +0.000 OA
ATOM     23  O   UNL     1      -0.334  12.853  18.574  0.00  0.00    +0.000 OA
BRANCH  21  24
ATOM     24  C   UNL     1      -2.797  11.569  18.754  0.00  0.00    +0.000 A 
ATOM     25  C   UNL     1      -2.920  10.623  17.737  0.00  0.00    +0.000 A 
ATOM     26 CL   UNL     1      -1.608   9.760  16.961  0.00  0.00    +0.000 Cl
ATOM     27  N   UNL     1      -4.232  10.436  17.433  0.00  0.00    +0.000 NA
ATOM     28  C   UNL     1      -4.854  11.275  18.280  0.00  0.00    +0.000 A 
ATOM     29  S   UNL     1      -6.471  11.621  18.544  0.00  0.00    +0.000 S 
ATOM     30  C   UNL     1      -6.061  12.737  19.780  0.00  0.00    +0.000 A 
ATOM     31  C   UNL     1      -4.666  12.786  19.930  0.00  0.00    +0.000 A 
ATOM     32  N   UNL     1      -4.042  11.952  19.068  0.00  0.00    +0.000 N 
ENDBRANCH  21  24
ENDBRANCH  20  21
ENDBRANCH   1  20
TORSDOF 4
ENDMDL
MODEL 7
REMARK VINA RESULT:      -7.9      5.175      9.263
REMARK  Name = 
REMARK  5 active torsions:
REMARK  status: ('A' for Active; 'I' for Inactive)
REMARK    1  A    between atoms: C_1  and  N_2
REMARK    2  A    between atoms: N_2  and  C_3
REMARK    3  A    between atoms: N_2  and  S_17
REMARK    4  A    between atoms: N_10  and  N_11
REMARK    5  A    between atoms: S_17  and  C_20
REMARK                            x       y       z     vdW  Elec       q    Type
REMARK                         _______ _______ _______ _____ _____    ______ ____
ROOT
ATOM      1  C   UNL     1       0.930   9.566  19.061  0.00  0.00    +0.000 A 
ATOM      2  C   UNL     1       1.682   9.865  17.907  0.00  0.00    +0.000 A 
ATOM      3  C   UNL     1       2.661   8.966  17.453  0.00  0.00    +0.000 A 
ATOM      4  C   UNL     1       2.865   7.781  18.170  0.00  0.00    +0.000 A 
ATOM      5  C   UNL     1       2.132   7.511  19.293  0.00  0.00    +0.000 A 
ATOM      6  C   UNL     1       1.160   8.382  19.770  0.00  0.00    +0.000 A 
ATOM      7  C   UNL     1       2.529   6.248  19.842  0.00  0.00    +0.000 C 
ATOM      8  N   UNL     1       2.013   5.764  20.919  0.00  0.00    +0.000 NA
ATOM      9  C   UNL     1       3.643   5.665  19.019  0.00  0.00    +0.000 C 
ATOM     10  C   UNL     1       3.802   6.661  17.844  0.00  0.00    +0.000 C 
ENDROOT
BRANCH   8  11
ATOM     11  N   UNL     1       2.402   4.573  21.487  0.00  0.00    +0.000 N 
ATOM     12  C   UNL     1       1.657   3.386  21.257  0.00  0.00    +0.000 C 
ATOM     13  N   UNL     1       0.612   3.384  20.501  0.00  0.00    +0.000 NA
ATOM     14  N   UNL     1       2.073   2.169  21.850  0.00  0.00    +0.000 N 
ATOM     15  H   UNL     1       3.231   4.532  22.099  0.00  0.00    +0.000 HD
ATOM     16  H   UNL     1       0.263   4.234  20.035  0.00  0.00    +0.000 HD
ATOM     17  H   UNL     1       2.909   2.146  22.455  0.00  0.00    +0.000 HD
ATOM     18  H   UNL     1       1.550   1.297  21.690  0.00  0.00    +0.000 HD
ENDBRANCH   8  11
BRANCH   1  20
ATOM     19  C   UNL     1      -1.362  10.440  18.848  0.00  0.00    +0.000 C 
ATOM     20  N   UNL     1      -0.079  10.446  19.504  0.00  0.00    +0.000 N 
BRANCH  20  21
ATOM     21  S   UNL     1       0.322  11.687  20.693  0.00  0.00    +0.000 S 
ATOM     22  O   UNL     1       0.757  10.902  21.941  0.00  0.00    +0.000 OA
ATOM     23  O   UNL     1       1.669  12.261  20.230  0.00  0.00    +0.000 OA
BRANCH  21  24
ATOM     24  C   UNL     1      -0.864  12.955  21.152  0.00  0.00    +0.000 A 
ATOM     25  C   UNL     1      -1.015  14.213  20.572  0.00  0.00    +0.000 A 
ATOM     26 CL   UNL     1      -0.060  14.872  19.261  0.00  0.00    +0.000 Cl
ATOM     27  N   UNL     1      -2.048  14.875  21.161  0.00  0.00    +0.000 NA
ATOM     28  C   UNL     1      -2.484  13.989  22.074  0.00  0.00    +0.000 A 
ATOM     29  S   UNL     1      -3.732  14.038  23.190  0.00  0.00    +0.000 S 
ATOM     30  C   UNL     1      -3.351  12.453  23.727  0.00  0.00    +0.000 A 
ATOM     31  C   UNL     1      -2.258  11.956  23.001  0.00  0.00    +0.000 A 
ATOM     32  N   UNL     1      -1.813  12.854  22.093  0.00  0.00    +0.000 N 
ENDBRANCH  21  24
ENDBRANCH  20  21
ENDBRANCH   1  20
TORSDOF 4
ENDMDL
MODEL 8
REMARK VINA RESULT:      -7.9      4.932      9.191
REMARK  Name = 
REMARK  5 active torsions:
REMARK  status: ('A' for Active; 'I' for Inactive)
REMARK    1  A    between atoms: C_1  and  N_2
REMARK    2  A    between atoms: N_2  and  C_3
REMARK    3  A    between atoms: N_2  and  S_17
REMARK    4  A    between atoms: N_10  and  N_11
REMARK    5  A    between atoms: S_17  and  C_20
REMARK                            x       y       z     vdW  Elec       q    Type
REMARK                         _______ _______ _______ _____ _____    ______ ____
ROOT
ATOM      1  C   UNL     1       0.816   9.479  19.375  0.00  0.00    +0.000 A 
ATOM      2  C   UNL     1       1.473   9.829  18.177  0.00  0.00    +0.000 A 
ATOM      3  C   UNL     1       2.422   8.960  17.616  0.00  0.00    +0.000 A 
ATOM      4  C   UNL     1       2.693   7.753  18.271  0.00  0.00    +0.000 A 
ATOM      5  C   UNL     1       2.053   7.434  19.437  0.00  0.00    +0.000 A 
ATOM      6  C   UNL     1       1.113   8.274  20.020  0.00  0.00    +0.000 A 
ATOM      7  C   UNL     1       2.505   6.156  19.907  0.00  0.00    +0.000 C 
ATOM      8  N   UNL     1       2.080   5.628  21.002  0.00  0.00    +0.000 NA
ATOM      9  C   UNL     1       3.556   5.618  18.978  0.00  0.00    +0.000 C 
ATOM     10  C   UNL     1       3.613   6.658  17.832  0.00  0.00    +0.000 C 
ENDROOT
BRANCH   8  11
ATOM     11  N   UNL     1       2.525   4.423  21.494  0.00  0.00    +0.000 N 
ATOM     12  C   UNL     1       1.761   3.240  21.306  0.00  0.00    +0.000 C 
ATOM     13  N   UNL     1       0.645   3.256  20.659  0.00  0.00    +0.000 NA
ATOM     14  N   UNL     1       2.234   2.008  21.819  0.00  0.00    +0.000 N 
ATOM     15  H   UNL     1       3.411   4.367  22.018  0.00  0.00    +0.000 HD
ATOM     16  H   UNL     1       0.250   4.119  20.256  0.00  0.00    +0.000 HD
ATOM     17  H   UNL     1       3.127   1.971  22.336  0.00  0.00    +0.000 HD
ATOM     18  H   UNL     1       1.698   1.140  21.688  0.00  0.00    +0.000 HD
ENDBRANCH   8  11
BRANCH   1  20
ATOM     19  C   UNL     1      -1.131  10.953  19.061  0.00  0.00    +0.000 C 
ATOM     20  N   UNL     1      -0.163  10.330  19.928  0.00  0.00    +0.000 N 
BRANCH  20  21
ATOM     21  S   UNL     1      -0.043  10.793  21.626  0.00  0.00    +0.000 S 
ATOM     22  O   UNL     1      -0.787   9.682  22.384  0.00  0.00    +0.000 OA
ATOM     23  O   UNL     1       1.409  10.486  22.020  0.00  0.00    +0.000 OA
BRANCH  21  24
ATOM     24  C   UNL     1      -0.602  12.401  22.196  0.00  0.00    +0.000 A 
ATOM     25  C   UNL     1       0.018  13.631  21.983  0.00  0.00    +0.000 A 
ATOM     26 CL   UNL     1       1.519  13.898  21.120  0.00  0.00    +0.000 Cl
ATOM     27  N   UNL     1      -0.727  14.629  22.529  0.00  0.00    +0.000 NA
ATOM     28  C   UNL     1      -1.773  13.964  23.051  0.00  0.00    +0.000 A 
ATOM     29  S   UNL     1      -3.138  14.473  23.877  0.00  0.00    +0.000 S 
ATOM     30  C   UNL     1      -3.702  12.858  24.000  0.00  0.00    +0.000 A 
ATOM     31  C   UNL     1      -2.788  11.989  23.383  0.00  0.00    +0.000 A 
ATOM     32  N   UNL     1      -1.731  12.658  22.871  0.00  0.00    +0.000 N 
ENDBRANCH  21  24
ENDBRANCH  20  21
ENDBRANCH   1  20
TORSDOF 4
ENDMDL
MODEL 9
REMARK VINA RESULT:      -7.8      4.446      8.467
REMARK  Name = 
REMARK  5 active torsions:
REMARK  status: ('A' for Active; 'I' for Inactive)
REMARK    1  A    between atoms: C_1  and  N_2
REMARK    2  A    between atoms: N_2  and  C_3
REMARK    3  A    between atoms: N_2  and  S_17
REMARK    4  A    between atoms: N_10  and  N_11
REMARK    5  A    between atoms: S_17  and  C_20
REMARK                            x       y       z     vdW  Elec       q    Type
REMARK                         _______ _______ _______ _____ _____    ______ ____
ROOT
ATOM      1  C   UNL     1       1.897   7.657  19.749  0.00  0.00    +0.000 A 
ATOM      2  C   UNL     1       1.442   6.664  20.640  0.00  0.00    +0.000 A 
ATOM      3  C   UNL     1       1.864   5.333  20.486  0.00  0.00    +0.000 A 
ATOM      4  C   UNL     1       2.737   5.026  19.436  0.00  0.00    +0.000 A 
ATOM      5  C   UNL     1       3.162   6.000  18.576  0.00  0.00    +0.000 A 
ATOM      6  C   UNL     1       2.759   7.325  18.698  0.00  0.00    +0.000 A 
ATOM      7  C   UNL     1       4.040   5.435  17.593  0.00  0.00    +0.000 C 
ATOM      8  N   UNL     1       4.564   6.131  16.645  0.00  0.00    +0.000 NA
ATOM      9  C   UNL     1       4.167   3.955  17.820  0.00  0.00    +0.000 C 
ATOM     10  C   UNL     1       3.357   3.703  19.116  0.00  0.00    +0.000 C 
ENDROOT
BRANCH   8  11
ATOM     11  N   UNL     1       5.380   5.606  15.669  0.00  0.00    +0.000 N 
ATOM     12  C   UNL     1       6.786   5.793  15.726  0.00  0.00    +0.000 C 
ATOM     13  N   UNL     1       7.340   6.441  16.693  0.00  0.00    +0.000 NA
ATOM     14  N   UNL     1       7.610   5.245  14.712  0.00  0.00    +0.000 N 
ATOM     15  H   UNL     1       4.977   5.082  14.878  0.00  0.00    +0.000 HD
ATOM     16  H   UNL     1       6.797   6.858  17.464  0.00  0.00    +0.000 HD
ATOM     17  H   UNL     1       7.189   4.718  13.931  0.00  0.00    +0.000 HD
ATOM     18  H   UNL     1       8.632   5.365  14.740  0.00  0.00    +0.000 HD
ENDBRANCH   8  11
BRANCH   1  20
ATOM     19  C   UNL     1       1.262   9.506  21.245  0.00  0.00    +0.000 C 
ATOM     20  N   UNL     1       1.507   9.001  19.918  0.00  0.00    +0.000 N 
BRANCH  20  21
ATOM     21  S   UNL     1       1.105   9.965  18.496  0.00  0.00    +0.000 S 
ATOM     22  O   UNL     1       2.354   9.878  17.603  0.00  0.00    +0.000 OA
ATOM     23  O   UNL     1       0.119   9.103  17.695  0.00  0.00    +0.000 OA
BRANCH  21  24
ATOM     24  C   UNL     1       0.583  11.677  18.648  0.00  0.00    +0.000 A 
ATOM     25  C   UNL     1      -0.721  12.147  18.797  0.00  0.00    +0.000 A 
ATOM     26 CL   UNL     1      -2.175  11.172  18.849  0.00  0.00    +0.000 Cl
ATOM     27  N   UNL     1      -0.714  13.502  18.924  0.00  0.00    +0.000 NA
ATOM     28  C   UNL     1       0.595  13.799  18.848  0.00  0.00    +0.000 A 
ATOM     29  S   UNL     1       1.432  15.247  18.934  0.00  0.00    +0.000 S 
ATOM     30  C   UNL     1       2.927  14.427  18.747  0.00  0.00    +0.000 A 
ATOM     31  C   UNL     1       2.699  13.047  18.626  0.00  0.00    +0.000 A 
ATOM     32  N   UNL     1       1.381  12.753  18.689  0.00  0.00    +0.000 N 
ENDBRANCH  21  24
ENDBRANCH  20  21
ENDBRANCH   1  20
TORSDOF 4
ENDMDL
