MODEL 1
REMARK VINA RESULT:      -7.8      0.000      0.000
REMARK  Name = 
REMARK  2 active torsions:
REMARK  status: ('A' for Active; 'I' for Inactive)
REMARK    1  A    between atoms: C_2  and  C_3
REMARK    2  A    between atoms: C_13  and  N_14
REMARK                            x       y       z     vdW  Elec       q    Type
REMARK                         _______ _______ _______ _____ _____    ______ ____
ROOT
ATOM      1  O   UNL     1       8.120   4.437  16.942  0.00  0.00    +0.000 OA
ATOM      2  C   UNL     1       7.019   4.433  16.384  0.00  0.00    +0.000 C 
ATOM      3  N   UNL     1       5.805   4.382  17.088  0.00  0.00    +0.000 N 
ATOM      4  C   UNL     1       4.472   4.300  16.500  0.00  0.00    +0.000 C 
ATOM      5  C   UNL     1       3.456   5.169  17.222  0.00  0.00    +0.000 C 
ATOM      6  C   UNL     1       3.387   4.903  18.737  0.00  0.00    +0.000 C 
ATOM      7  C   UNL     1       4.836   5.030  19.274  0.00  0.00    +0.000 C 
ATOM      8  C   UNL     1       5.847   4.156  18.531  0.00  0.00    +0.000 C 
ENDROOT
BRANCH   2   9
ATOM      9  C   UNL     1       7.023   4.562  14.899  0.00  0.00    +0.000 A 
ATOM     10  C   UNL     1       7.811   5.510  14.234  0.00  0.00    +0.000 A 
ATOM     11  C   UNL     1       7.917   5.487  12.843  0.00  0.00    +0.000 A 
ATOM     12  C   UNL     1       7.150   4.588  12.105  0.00  0.00    +0.000 A 
ATOM     13  C   UNL     1       6.266   3.730  12.761  0.00  0.00    +0.000 A 
ATOM     14 BR   UNL     1       5.154   2.588  11.744  0.00  0.00    +0.000 Br
ATOM     15  C   UNL     1       6.203   3.705  14.154  0.00  0.00    +0.000 A 
ENDBRANCH   2   9
BRANCH   6  16
ATOM     16  N   UNL     1       2.739   3.617  19.094  0.00  0.00    +0.000 NA
ATOM     17  C   UNL     1       3.187   3.126  20.427  0.00  0.00    +0.000 C 
ATOM     18  C   UNL     1       1.974   3.052  21.283  0.00  0.00    +0.000 C 
ATOM     19  C   UNL     1       0.890   3.376  20.585  0.00  0.00    +0.000 C 
ATOM     20  C   UNL     1       1.256   3.706  19.183  0.00  0.00    +0.000 C 
ENDBRANCH   6  16
TORSDOF 2
ENDMDL
MODEL 2
REMARK VINA RESULT:      -7.2      4.443      7.192
REMARK  Name = 
REMARK  2 active torsions:
REMARK  status: ('A' for Active; 'I' for Inactive)
REMARK    1  A    between atoms: C_2  and  C_3
REMARK    2  A    between atoms: C_13  and  N_14
REMARK                            x       y       z     vdW  Elec       q    Type
REMARK                         _______ _______ _______ _____ _____    ______ ____
ROOT
ATOM      1  O   UNL     1       2.370   5.256  19.747  0.00  0.00    +0.000 OA
ATOM      2  C   UNL     1       2.860   6.170  19.079  0.00  0.00    +0.000 C 
ATOM      3  N   UNL     1       3.975   5.991  18.243  0.00  0.00    +0.000 N 
ATOM      4  C   UNL     1       4.655   7.033  17.481  0.00  0.00    +0.000 C 
ATOM      5  C   UNL     1       5.062   6.576  16.090  0.00  0.00    +0.000 C 
ATOM      6  C   UNL     1       5.900   5.283  16.090  0.00  0.00    +0.000 C 
ATOM      7  C   UNL     1       5.094   4.235  16.900  0.00  0.00    +0.000 C 
ATOM      8  C   UNL     1       4.685   4.714  18.293  0.00  0.00    +0.000 C 
ENDROOT
BRANCH   2   9
ATOM      9  C   UNL     1       2.166   7.486  19.134  0.00  0.00    +0.000 A 
ATOM     10  C   UNL     1       1.988   8.285  17.998  0.00  0.00    +0.000 A 
ATOM     11  C   UNL     1       1.188   9.427  18.056  0.00  0.00    +0.000 A 
ATOM     12  C   UNL     1       0.651   9.834  19.276  0.00  0.00    +0.000 A 
ATOM     13  C   UNL     1       0.935   9.109  20.434  0.00  0.00    +0.000 A 
ATOM     14 BR   UNL     1       0.289   9.729  22.099  0.00  0.00    +0.000 Br
ATOM     15  C   UNL     1       1.682   7.933  20.371  0.00  0.00    +0.000 A 
ENDBRANCH   2   9
BRANCH   6  16
ATOM     16  N   UNL     1       7.288   5.465  16.582  0.00  0.00    +0.000 NA
ATOM     17  C   UNL     1       7.534   6.863  17.031  0.00  0.00    +0.000 C 
ATOM     18  C   UNL     1       7.886   6.793  18.474  0.00  0.00    +0.000 C 
ATOM     19  C   UNL     1       7.933   5.528  18.881  0.00  0.00    +0.000 C 
ATOM     20  C   UNL     1       7.615   4.609  17.756  0.00  0.00    +0.000 C 
ENDBRANCH   6  16
TORSDOF 2
ENDMDL
MODEL 3
REMARK VINA RESULT:      -7.0      3.040      7.083
REMARK  Name = 
REMARK  2 active torsions:
REMARK  status: ('A' for Active; 'I' for Inactive)
REMARK    1  A    between atoms: C_2  and  C_3
REMARK    2  A    between atoms: C_13  and  N_14
REMARK                            x       y       z     vdW  Elec       q    Type
REMARK                         _______ _______ _______ _____ _____    ______ ____
ROOT
ATOM      1  O   UNL     1       3.531   6.869  18.763  0.00  0.00    +0.000 OA
ATOM      2  C   UNL     1       3.513   5.794  18.158  0.00  0.00    +0.000 C 
ATOM      3  N   UNL     1       4.414   5.481  17.128  0.00  0.00    +0.000 N 
ATOM      4  C   UNL     1       4.409   4.266  16.319  0.00  0.00    +0.000 C 
ATOM      5  C   UNL     1       5.806   3.727  16.057  0.00  0.00    +0.000 C 
ATOM      6  C   UNL     1       6.761   4.770  15.445  0.00  0.00    +0.000 C 
ATOM      7  C   UNL     1       6.715   6.009  16.376  0.00  0.00    +0.000 C 
ATOM      8  C   UNL     1       5.303   6.533  16.637  0.00  0.00    +0.000 C 
ENDROOT
BRANCH   2   9
ATOM      9  C   UNL     1       2.521   4.783  18.622  0.00  0.00    +0.000 A 
ATOM     10  C   UNL     1       1.494   4.311  17.795  0.00  0.00    +0.000 A 
ATOM     11  C   UNL     1       0.692   3.245  18.206  0.00  0.00    +0.000 A 
ATOM     12  C   UNL     1       0.842   2.720  19.488  0.00  0.00    +0.000 A 
ATOM     13  C   UNL     1       1.778   3.277  20.359  0.00  0.00    +0.000 A 
ATOM     14 BR   UNL     1       1.900   2.627  22.130  0.00  0.00    +0.000 Br
ATOM     15  C   UNL     1       2.625   4.300  19.933  0.00  0.00    +0.000 A 
ENDBRANCH   2   9
BRANCH   6  16
ATOM     16  N   UNL     1       6.473   5.091  14.026  0.00  0.00    +0.000 NA
ATOM     17  C   UNL     1       7.708   5.074  13.195  0.00  0.00    +0.000 C 
ATOM     18  C   UNL     1       7.514   4.023  12.162  0.00  0.00    +0.000 C 
ATOM     19  C   UNL     1       6.299   3.490  12.262  0.00  0.00    +0.000 C 
ATOM     20  C   UNL     1       5.547   4.123  13.378  0.00  0.00    +0.000 C 
ENDBRANCH   6  16
TORSDOF 2
ENDMDL
MODEL 4
REMARK VINA RESULT:      -6.9      0.910      1.394
REMARK  Name = 
REMARK  2 active torsions:
REMARK  status: ('A' for Active; 'I' for Inactive)
REMARK    1  A    between atoms: C_2  and  C_3
REMARK    2  A    between atoms: C_13  and  N_14
REMARK                            x       y       z     vdW  Elec       q    Type
REMARK                         _______ _______ _______ _____ _____    ______ ____
ROOT
ATOM      1  O   UNL     1       8.105   4.232  16.961  0.00  0.00    +0.000 OA
ATOM      2  C   UNL     1       7.017   4.423  16.411  0.00  0.00    +0.000 C 
ATOM      3  N   UNL     1       5.816   4.574  17.124  0.00  0.00    +0.000 N 
ATOM      4  C   UNL     1       4.485   4.728  16.545  0.00  0.00    +0.000 C 
ATOM      5  C   UNL     1       3.638   5.752  17.283  0.00  0.00    +0.000 C 
ATOM      6  C   UNL     1       3.533   5.485  18.797  0.00  0.00    +0.000 C 
ATOM      7  C   UNL     1       4.986   5.356  19.323  0.00  0.00    +0.000 C 
ATOM      8  C   UNL     1       5.827   4.329  18.565  0.00  0.00    +0.000 C 
ENDROOT
BRANCH   2   9
ATOM      9  C   UNL     1       7.034   4.566  14.928  0.00  0.00    +0.000 A 
ATOM     10  C   UNL     1       7.832   5.515  14.278  0.00  0.00    +0.000 A 
ATOM     11  C   UNL     1       7.950   5.505  12.888  0.00  0.00    +0.000 A 
ATOM     12  C   UNL     1       7.185   4.616  12.135  0.00  0.00    +0.000 A 
ATOM     13  C   UNL     1       6.291   3.757  12.775  0.00  0.00    +0.000 A 
ATOM     14 BR   UNL     1       5.182   2.629  11.739  0.00  0.00    +0.000 Br
ATOM     15  C   UNL     1       6.216   3.719  14.168  0.00  0.00    +0.000 A 
ENDBRANCH   2   9
BRANCH   6  16
ATOM     16  N   UNL     1       2.677   4.325  19.146  0.00  0.00    +0.000 NA
ATOM     17  C   UNL     1       1.926   3.819  17.964  0.00  0.00    +0.000 C 
ATOM     18  C   UNL     1       2.359   2.414  17.752  0.00  0.00    +0.000 C 
ATOM     19  C   UNL     1       3.211   2.040  18.703  0.00  0.00    +0.000 C 
ATOM     20  C   UNL     1       3.445   3.157  19.657  0.00  0.00    +0.000 C 
ENDBRANCH   6  16
TORSDOF 2
ENDMDL
MODEL 5
REMARK VINA RESULT:      -6.9      1.628      1.823
REMARK  Name = 
REMARK  2 active torsions:
REMARK  status: ('A' for Active; 'I' for Inactive)
REMARK    1  A    between atoms: C_2  and  C_3
REMARK    2  A    between atoms: C_13  and  N_14
REMARK                            x       y       z     vdW  Elec       q    Type
REMARK                         _______ _______ _______ _____ _____    ______ ____
ROOT
ATOM      1  O   UNL     1       5.513   7.121  15.611  0.00  0.00    +0.000 OA
ATOM      2  C   UNL     1       5.258   5.913  15.613  0.00  0.00    +0.000 C 
ATOM      3  N   UNL     1       4.485   5.297  16.610  0.00  0.00    +0.000 N 
ATOM      4  C   UNL     1       4.203   3.869  16.721  0.00  0.00    +0.000 C 
ATOM      5  C   UNL     1       2.769   3.583  17.135  0.00  0.00    +0.000 C 
ATOM      6  C   UNL     1       2.345   4.312  18.424  0.00  0.00    +0.000 C 
ATOM      7  C   UNL     1       2.662   5.814  18.206  0.00  0.00    +0.000 C 
ATOM      8  C   UNL     1       4.106   6.084  17.782  0.00  0.00    +0.000 C 
ENDROOT
BRANCH   2   9
ATOM      9  C   UNL     1       5.751   5.125  14.449  0.00  0.00    +0.000 A 
ATOM     10  C   UNL     1       7.116   4.901  14.223  0.00  0.00    +0.000 A 
ATOM     11  C   UNL     1       7.529   4.019  13.224  0.00  0.00    +0.000 A 
ATOM     12  C   UNL     1       6.586   3.443  12.375  0.00  0.00    +0.000 A 
ATOM     13  C   UNL     1       5.237   3.767  12.517  0.00  0.00    +0.000 A 
ATOM     14 BR   UNL     1       3.979   3.063  11.295  0.00  0.00    +0.000 Br
ATOM     15  C   UNL     1       4.811   4.598  13.554  0.00  0.00    +0.000 A 
ENDBRANCH   2   9
BRANCH   6  16
ATOM     16  N   UNL     1       2.953   3.756  19.658  0.00  0.00    +0.000 NA
ATOM     17  C   UNL     1       2.464   4.457  20.877  0.00  0.00    +0.000 C 
ATOM     18  C   UNL     1       1.782   3.434  21.713  0.00  0.00    +0.000 C 
ATOM     19  C   UNL     1       1.882   2.232  21.152  0.00  0.00    +0.000 C 
ATOM     20  C   UNL     1       2.638   2.318  19.875  0.00  0.00    +0.000 C 
ENDBRANCH   6  16
TORSDOF 2
ENDMDL
MODEL 6
REMARK VINA RESULT:      -6.7      5.704      7.252
REMARK  Name = 
REMARK  2 active torsions:
REMARK  status: ('A' for Active; 'I' for Inactive)
REMARK    1  A    between atoms: C_2  and  C_3
REMARK    2  A    between atoms: C_13  and  N_14
REMARK                            x       y       z     vdW  Elec       q    Type
REMARK                         _______ _______ _______ _____ _____    ______ ____
ROOT
ATOM      1  O   UNL     1       2.908   8.184  17.123  0.00  0.00    +0.000 OA
ATOM      2  C   UNL     1       2.612   7.710  18.223  0.00  0.00    +0.000 C 
ATOM      3  N   UNL     1       1.791   8.377  19.147  0.00  0.00    +0.000 N 
ATOM      4  C   UNL     1       1.458   7.916  20.491  0.00  0.00    +0.000 C 
ATOM      5  C   UNL     1       0.004   8.167  20.855  0.00  0.00    +0.000 C 
ATOM      6  C   UNL     1      -0.431   9.634  20.671  0.00  0.00    +0.000 C 
ATOM      7  C   UNL     1      -0.056  10.025  19.219  0.00  0.00    +0.000 C 
ATOM      8  C   UNL     1       1.407   9.759  18.865  0.00  0.00    +0.000 C 
ENDROOT
BRANCH   2   9
ATOM      9  C   UNL     1       3.110   6.336  18.513  0.00  0.00    +0.000 A 
ATOM     10  C   UNL     1       4.433   6.088  18.900  0.00  0.00    +0.000 A 
ATOM     11  C   UNL     1       4.816   4.816  19.327  0.00  0.00    +0.000 A 
ATOM     12  C   UNL     1       3.907   3.762  19.265  0.00  0.00    +0.000 A 
ATOM     13  C   UNL     1       2.626   3.981  18.757  0.00  0.00    +0.000 A 
ATOM     14 BR   UNL     1       1.436   2.523  18.578  0.00  0.00    +0.000 Br
ATOM     15  C   UNL     1       2.218   5.263  18.388  0.00  0.00    +0.000 A 
ENDBRANCH   2   9
BRANCH   6  16
ATOM     16  N   UNL     1       0.124  10.558  21.690  0.00  0.00    +0.000 NA
ATOM     17  C   UNL     1       0.178  11.960  21.191  0.00  0.00    +0.000 C 
ATOM     18  C   UNL     1      -0.686  12.768  22.092  0.00  0.00    +0.000 C 
ATOM     19  C   UNL     1      -1.168  12.013  23.075  0.00  0.00    +0.000 C 
ATOM     20  C   UNL     1      -0.683  10.614  22.939  0.00  0.00    +0.000 C 
ENDBRANCH   6  16
TORSDOF 2
ENDMDL
MODEL 7
REMARK VINA RESULT:      -6.5      6.068      8.384
REMARK  Name = 
REMARK  2 active torsions:
REMARK  status: ('A' for Active; 'I' for Inactive)
REMARK    1  A    between atoms: C_2  and  C_3
REMARK    2  A    between atoms: C_13  and  N_14
REMARK                            x       y       z     vdW  Elec       q    Type
REMARK                         _______ _______ _______ _____ _____    ______ ____
ROOT
ATOM      1  O   UNL     1       0.330   8.893  21.595  0.00  0.00    +0.000 OA
ATOM      2  C   UNL     1       0.724   9.157  20.456  0.00  0.00    +0.000 C 
ATOM      3  N   UNL     1       1.586   8.317  19.732  0.00  0.00    +0.000 N 
ATOM      4  C   UNL     1       2.153   8.594  18.416  0.00  0.00    +0.000 C 
ATOM      5  C   UNL     1       2.174   7.371  17.515  0.00  0.00    +0.000 C 
ATOM      6  C   UNL     1       2.872   6.153  18.149  0.00  0.00    +0.000 C 
ATOM      7  C   UNL     1       2.195   5.925  19.526  0.00  0.00    +0.000 C 
ATOM      8  C   UNL     1       2.175   7.167  20.416  0.00  0.00    +0.000 C 
ENDROOT
BRANCH   2   9
ATOM      9  C   UNL     1       0.180  10.394  19.831  0.00  0.00    +0.000 A 
ATOM     10  C   UNL     1       0.813  11.637  19.962  0.00  0.00    +0.000 A 
ATOM     11  C   UNL     1       0.368  12.736  19.225  0.00  0.00    +0.000 A 
ATOM     12  C   UNL     1      -0.777  12.624  18.439  0.00  0.00    +0.000 A 
ATOM     13  C   UNL     1      -1.483  11.421  18.410  0.00  0.00    +0.000 A 
ATOM     14 BR   UNL     1      -3.092  11.312  17.424  0.00  0.00    +0.000 Br
ATOM     15  C   UNL     1      -1.008  10.302  19.094  0.00  0.00    +0.000 A 
ENDBRANCH   2   9
BRANCH   6  16
ATOM     16  N   UNL     1       4.348   6.282  18.235  0.00  0.00    +0.000 NA
ATOM     17  C   UNL     1       4.988   5.006  18.658  0.00  0.00    +0.000 C 
ATOM     18  C   UNL     1       5.891   4.594  17.551  0.00  0.00    +0.000 C 
ATOM     19  C   UNL     1       5.892   5.509  16.586  0.00  0.00    +0.000 C 
ATOM     20  C   UNL     1       4.986   6.634  16.937  0.00  0.00    +0.000 C 
ENDBRANCH   6  16
TORSDOF 2
ENDMDL
MODEL 8
REMARK VINA RESULT:      -6.5      5.945      8.621
REMARK  Name = 
REMARK  2 active torsions:
REMARK  status: ('A' for Active; 'I' for Inactive)
REMARK    1  A    between atoms: C_2  and  C_3
REMARK    2  A    between atoms: C_13  and  N_14
REMARK                            x       y       z     vdW  Elec       q    Type
REMARK                         _______ _______ _______ _____ _____    ______ ____
ROOT
ATOM      1  O   UNL     1       1.696  10.219  18.841  0.00  0.00    +0.000 OA
ATOM      2  C   UNL     1       1.361   9.292  19.582  0.00  0.00    +0.000 C 
ATOM      3  N   UNL     1       1.730   7.957  19.351  0.00  0.00    +0.000 N 
ATOM      4  C   UNL     1       1.313   6.800  20.137  0.00  0.00    +0.000 C 
ATOM      5  C   UNL     1       2.437   5.801  20.356  0.00  0.00    +0.000 C 
ATOM      6  C   UNL     1       3.114   5.342  19.050  0.00  0.00    +0.000 C 
ATOM      7  C   UNL     1       3.538   6.630  18.298  0.00  0.00    +0.000 C 
ATOM      8  C   UNL     1       2.397   7.627  18.093  0.00  0.00    +0.000 C 
ENDROOT
BRANCH   2   9
ATOM      9  C   UNL     1       0.591   9.658  20.804  0.00  0.00    +0.000 A 
ATOM     10  C   UNL     1       0.779   9.004  22.029  0.00  0.00    +0.000 A 
ATOM     11  C   UNL     1       0.166   9.485  23.186  0.00  0.00    +0.000 A 
ATOM     12  C   UNL     1      -0.723  10.555  23.105  0.00  0.00    +0.000 A 
ATOM     13  C   UNL     1      -1.010  11.125  21.865  0.00  0.00    +0.000 A 
ATOM     14 BR   UNL     1      -2.296  12.506  21.752  0.00  0.00    +0.000 Br
ATOM     15  C   UNL     1      -0.353  10.689  20.714  0.00  0.00    +0.000 A 
ENDBRANCH   2   9
BRANCH   6  16
ATOM     16  N   UNL     1       2.282   4.429  18.229  0.00  0.00    +0.000 NA
ATOM     17  C   UNL     1       3.117   3.564  17.350  0.00  0.00    +0.000 C 
ATOM     18  C   UNL     1       2.843   2.159  17.748  0.00  0.00    +0.000 C 
ATOM     19  C   UNL     1       1.911   2.116  18.696  0.00  0.00    +0.000 C 
ATOM     20  C   UNL     1       1.460   3.490  19.040  0.00  0.00    +0.000 C 
ENDBRANCH   6  16
TORSDOF 2
ENDMDL
MODEL 9
REMARK VINA RESULT:      -6.4      5.394      7.630
REMARK  Name = 
REMARK  2 active torsions:
REMARK  status: ('A' for Active; 'I' for Inactive)
REMARK    1  A    between atoms: C_2  and  C_3
REMARK    2  A    between atoms: C_13  and  N_14
REMARK                            x       y       z     vdW  Elec       q    Type
REMARK                         _______ _______ _______ _____ _____    ______ ____
ROOT
ATOM      1  O   UNL     1       2.623   9.907  17.419  0.00  0.00    +0.000 OA
ATOM      2  C   UNL     1       2.015   9.141  18.171  0.00  0.00    +0.000 C 
ATOM      3  N   UNL     1       2.355   7.786  18.318  0.00  0.00    +0.000 N 
ATOM      4  C   UNL     1       1.641   6.803  19.127  0.00  0.00    +0.000 C 
ATOM      5  C   UNL     1       2.576   5.865  19.874  0.00  0.00    +0.000 C 
ATOM      6  C   UNL     1       3.598   5.162  18.961  0.00  0.00    +0.000 C 
ATOM      7  C   UNL     1       4.315   6.280  18.160  0.00  0.00    +0.000 C 
ATOM      8  C   UNL     1       3.361   7.219  17.422  0.00  0.00    +0.000 C 
ENDROOT
BRANCH   2   9
ATOM      9  C   UNL     1       0.925   9.737  18.993  0.00  0.00    +0.000 A 
ATOM     10  C   UNL     1       1.026   9.868  20.384  0.00  0.00    +0.000 A 
ATOM     11  C   UNL     1       0.062  10.582  21.096  0.00  0.00    +0.000 A 
ATOM     12  C   UNL     1      -1.063  11.074  20.437  0.00  0.00    +0.000 A 
ATOM     13  C   UNL     1      -1.228  10.831  19.073  0.00  0.00    +0.000 A 
ATOM     14 BR   UNL     1      -2.807  11.411  18.211  0.00  0.00    +0.000 Br
ATOM     15  C   UNL     1      -0.238  10.173  18.344  0.00  0.00    +0.000 A 
ENDBRANCH   2   9
BRANCH   6  16
ATOM     16  N   UNL     1       3.011   4.108  18.099  0.00  0.00    +0.000 NA
ATOM     17  C   UNL     1       4.019   3.079  17.722  0.00  0.00    +0.000 C 
ATOM     18  C   UNL     1       3.532   1.784  18.265  0.00  0.00    +0.000 C 
ATOM     19  C   UNL     1       2.344   1.938  18.843  0.00  0.00    +0.000 C 
ATOM     20  C   UNL     1       1.906   3.356  18.755  0.00  0.00    +0.000 C 
ENDBRANCH   6  16
TORSDOF 2
ENDMDL
