MODEL 1
REMARK VINA RESULT:      -7.2      0.000      0.000
REMARK  Name = 
REMARK  5 active torsions:
REMARK  status: ('A' for Active; 'I' for Inactive)
REMARK    1  A    between atoms: C_1  and  O_2
REMARK    2  A    between atoms: O_2  and  C_3
REMARK    3  A    between atoms: C_7  and  O_8
REMARK    4  A    between atoms: O_8  and  C_9
REMARK    5  A    between atoms: C_9  and  C_10
REMARK                            x       y       z     vdW  Elec       q    Type
REMARK                         _______ _______ _______ _____ _____    ______ ____
ROOT
ATOM      1  C   UNL     1       4.363   3.748  16.902  0.00  0.00    +0.000 C 
ATOM      2  O   UNL     1       4.487   2.532  17.046  0.00  0.00    +0.000 OA
ATOM      3  N   UNL     1       3.603   4.571  17.751  0.00  0.00    +0.000 N 
ATOM      4  C   UNL     1       3.501   6.027  17.567  0.00  0.00    +0.000 C 
ATOM      5  C   UNL     1       3.365   6.743  18.898  0.00  0.00    +0.000 C 
ATOM      6  O   UNL     1       2.196   6.321  19.592  0.00  0.00    +0.000 OA
ATOM      7  C   UNL     1       2.096   4.950  19.664  0.00  0.00    +0.000 A 
ATOM      8  C   UNL     1       1.243   4.490  20.665  0.00  0.00    +0.000 A 
ATOM      9  C   UNL     1       1.082   3.127  20.806  0.00  0.00    +0.000 A 
ATOM     10  N   UNL     1       1.699   2.226  20.018  0.00  0.00    +0.000 NA
ATOM     11  C   UNL     1       2.518   2.707  19.042  0.00  0.00    +0.000 A 
ATOM     12  C   UNL     1       2.763   4.060  18.805  0.00  0.00    +0.000 A 
ENDROOT
BRANCH   1  13
ATOM     13  C   UNL     1       5.113   4.461  15.767  0.00  0.00    +0.000 C 
BRANCH  13  14
ATOM     14  O   UNL     1       6.524   4.439  15.944  0.00  0.00    +0.000 OA
BRANCH  14  19
ATOM     15  C   UNL     1       7.589   7.557  17.663  0.00  0.00    +0.000 A 
ATOM     16  C   UNL     1       8.132   6.980  18.813  0.00  0.00    +0.000 A 
ATOM     17  C   UNL     1       8.129   5.596  18.980  0.00  0.00    +0.000 A 
ATOM     18  C   UNL     1       7.583   4.781  17.990  0.00  0.00    +0.000 A 
ATOM     19  C   UNL     1       7.038   5.343  16.836  0.00  0.00    +0.000 A 
ATOM     20  C   UNL     1       7.041   6.735  16.676  0.00  0.00    +0.000 A 
BRANCH  15  22
ATOM     21  C   UNL     1       8.636   9.551  18.437  0.00  0.00    +0.000 C 
ATOM     22  O   UNL     1       7.656   8.925  17.618  0.00  0.00    +0.000 OA
ENDBRANCH  15  22
ENDBRANCH  14  19
ENDBRANCH  13  14
ENDBRANCH   1  13
TORSDOF 4
ENDMDL
MODEL 2
REMARK VINA RESULT:      -7.0      2.472      4.223
REMARK  Name = 
REMARK  5 active torsions:
REMARK  status: ('A' for Active; 'I' for Inactive)
REMARK    1  A    between atoms: C_1  and  O_2
REMARK    2  A    between atoms: O_2  and  C_3
REMARK    3  A    between atoms: C_7  and  O_8
REMARK    4  A    between atoms: O_8  and  C_9
REMARK    5  A    between atoms: C_9  and  C_10
REMARK                            x       y       z     vdW  Elec       q    Type
REMARK                         _______ _______ _______ _____ _____    ______ ____
ROOT
ATOM      1  C   UNL     1       5.495   4.803  17.713  0.00  0.00    +0.000 C 
ATOM      2  O   UNL     1       6.226   3.872  18.049  0.00  0.00    +0.000 OA
ATOM      3  N   UNL     1       4.293   5.139  18.360  0.00  0.00    +0.000 N 
ATOM      4  C   UNL     1       3.457   6.278  17.949  0.00  0.00    +0.000 C 
ATOM      5  C   UNL     1       2.758   6.906  19.140  0.00  0.00    +0.000 C 
ATOM      6  O   UNL     1       1.905   5.969  19.790  0.00  0.00    +0.000 OA
ATOM      7  C   UNL     1       2.544   4.780  20.060  0.00  0.00    +0.000 A 
ATOM      8  C   UNL     1       1.929   4.009  21.044  0.00  0.00    +0.000 A 
ATOM      9  C   UNL     1       2.503   2.800  21.376  0.00  0.00    +0.000 A 
ATOM     10  N   UNL     1       3.618   2.326  20.789  0.00  0.00    +0.000 NA
ATOM     11  C   UNL     1       4.190   3.097  19.823  0.00  0.00    +0.000 A 
ATOM     12  C   UNL     1       3.707   4.337  19.405  0.00  0.00    +0.000 A 
ENDROOT
BRANCH   1  13
ATOM     13  C   UNL     1       5.911   5.717  16.549  0.00  0.00    +0.000 C 
BRANCH  13  14
ATOM     14  O   UNL     1       7.123   5.302  15.933  0.00  0.00    +0.000 OA
BRANCH  14  19
ATOM     15  C   UNL     1       6.149   3.598  12.777  0.00  0.00    +0.000 A 
ATOM     16  C   UNL     1       7.023   4.257  11.911  0.00  0.00    +0.000 A 
ATOM     17  C   UNL     1       7.897   5.230  12.393  0.00  0.00    +0.000 A 
ATOM     18  C   UNL     1       7.899   5.547  13.751  0.00  0.00    +0.000 A 
ATOM     19  C   UNL     1       7.032   4.896  14.627  0.00  0.00    +0.000 A 
ATOM     20  C   UNL     1       6.155   3.921  14.136  0.00  0.00    +0.000 A 
BRANCH  15  22
ATOM     21  C   UNL     1       4.292   3.144  11.356  0.00  0.00    +0.000 C 
ATOM     22  O   UNL     1       5.345   2.661  12.182  0.00  0.00    +0.000 OA
ENDBRANCH  15  22
ENDBRANCH  14  19
ENDBRANCH  13  14
ENDBRANCH   1  13
TORSDOF 4
ENDMDL
MODEL 3
REMARK VINA RESULT:      -6.9      2.702      4.712
REMARK  Name = 
REMARK  5 active torsions:
REMARK  status: ('A' for Active; 'I' for Inactive)
REMARK    1  A    between atoms: C_1  and  O_2
REMARK    2  A    between atoms: O_2  and  C_3
REMARK    3  A    between atoms: C_7  and  O_8
REMARK    4  A    between atoms: O_8  and  C_9
REMARK    5  A    between atoms: C_9  and  C_10
REMARK                            x       y       z     vdW  Elec       q    Type
REMARK                         _______ _______ _______ _____ _____    ______ ____
ROOT
ATOM      1  C   UNL     1       5.254   5.055  17.481  0.00  0.00    +0.000 C 
ATOM      2  O   UNL     1       5.217   6.282  17.389  0.00  0.00    +0.000 OA
ATOM      3  N   UNL     1       4.321   4.288  18.200  0.00  0.00    +0.000 N 
ATOM      4  C   UNL     1       4.378   2.820  18.267  0.00  0.00    +0.000 C 
ATOM      5  C   UNL     1       2.988   2.218  18.355  0.00  0.00    +0.000 C 
ATOM      6  O   UNL     1       2.305   2.667  19.520  0.00  0.00    +0.000 OA
ATOM      7  C   UNL     1       2.348   4.036  19.657  0.00  0.00    +0.000 A 
ATOM      8  C   UNL     1       1.371   4.559  20.501  0.00  0.00    +0.000 A 
ATOM      9  C   UNL     1       1.343   5.924  20.696  0.00  0.00    +0.000 A 
ATOM     10  N   UNL     1       2.218   6.770  20.121  0.00  0.00    +0.000 NA
ATOM     11  C   UNL     1       3.168   6.228  19.309  0.00  0.00    +0.000 A 
ATOM     12  C   UNL     1       3.295   4.867  19.032  0.00  0.00    +0.000 A 
ENDROOT
BRANCH   1  13
ATOM     13  C   UNL     1       6.342   4.267  16.736  0.00  0.00    +0.000 C 
BRANCH  13  14
ATOM     14  O   UNL     1       7.094   5.080  15.844  0.00  0.00    +0.000 OA
BRANCH  14  19
ATOM     15  C   UNL     1       6.171   3.554  12.584  0.00  0.00    +0.000 A 
ATOM     16  C   UNL     1       7.025   4.294  11.764  0.00  0.00    +0.000 A 
ATOM     17  C   UNL     1       7.869   5.261  12.309  0.00  0.00    +0.000 A 
ATOM     18  C   UNL     1       7.862   5.489  13.684  0.00  0.00    +0.000 A 
ATOM     19  C   UNL     1       7.015   4.757  14.515  0.00  0.00    +0.000 A 
ATOM     20  C   UNL     1       6.168   3.788  13.960  0.00  0.00    +0.000 A 
BRANCH  15  22
ATOM     21  C   UNL     1       4.221   3.116  11.288  0.00  0.00    +0.000 C 
ATOM     22  O   UNL     1       5.397   2.633  11.928  0.00  0.00    +0.000 OA
ENDBRANCH  15  22
ENDBRANCH  14  19
ENDBRANCH  13  14
ENDBRANCH   1  13
TORSDOF 4
ENDMDL
MODEL 4
REMARK VINA RESULT:      -6.8      1.842      5.489
REMARK  Name = 
REMARK  5 active torsions:
REMARK  status: ('A' for Active; 'I' for Inactive)
REMARK    1  A    between atoms: C_1  and  O_2
REMARK    2  A    between atoms: O_2  and  C_3
REMARK    3  A    between atoms: C_7  and  O_8
REMARK    4  A    between atoms: O_8  and  C_9
REMARK    5  A    between atoms: C_9  and  C_10
REMARK                            x       y       z     vdW  Elec       q    Type
REMARK                         _______ _______ _______ _____ _____    ______ ____
ROOT
ATOM      1  C   UNL     1       4.408   3.023  18.122  0.00  0.00    +0.000 C 
ATOM      2  O   UNL     1       4.715   2.715  19.273  0.00  0.00    +0.000 OA
ATOM      3  N   UNL     1       5.071   4.003  17.362  0.00  0.00    +0.000 N 
ATOM      4  C   UNL     1       4.696   4.326  15.977  0.00  0.00    +0.000 C 
ATOM      5  C   UNL     1       5.908   4.732  15.158  0.00  0.00    +0.000 C 
ATOM      6  O   UNL     1       6.537   5.885  15.706  0.00  0.00    +0.000 OA
ATOM      7  C   UNL     1       6.771   5.762  17.057  0.00  0.00    +0.000 A 
ATOM      8  C   UNL     1       7.737   6.634  17.554  0.00  0.00    +0.000 A 
ATOM      9  C   UNL     1       8.032   6.579  18.900  0.00  0.00    +0.000 A 
ATOM     10  N   UNL     1       7.426   5.734  19.755  0.00  0.00    +0.000 NA
ATOM     11  C   UNL     1       6.478   4.901  19.241  0.00  0.00    +0.000 A 
ATOM     12  C   UNL     1       6.097   4.860  17.900  0.00  0.00    +0.000 A 
ENDROOT
BRANCH   1  13
ATOM     13  C   UNL     1       3.267   2.278  17.411  0.00  0.00    +0.000 C 
BRANCH  13  14
ATOM     14  O   UNL     1       2.039   2.994  17.447  0.00  0.00    +0.000 OA
BRANCH  14  19
ATOM     15  C   UNL     1       1.981   6.042  19.573  0.00  0.00    +0.000 A 
ATOM     16  C   UNL     1       1.450   5.472  20.731  0.00  0.00    +0.000 A 
ATOM     17  C   UNL     1       1.133   4.115  20.772  0.00  0.00    +0.000 A 
ATOM     18  C   UNL     1       1.350   3.320  19.648  0.00  0.00    +0.000 A 
ATOM     19  C   UNL     1       1.881   3.875  18.484  0.00  0.00    +0.000 A 
ATOM     20  C   UNL     1       2.196   5.240  18.450  0.00  0.00    +0.000 A 
BRANCH  15  22
ATOM     21  C   UNL     1       2.287   8.117  18.445  0.00  0.00    +0.000 C 
ATOM     22  O   UNL     1       2.254   7.381  19.663  0.00  0.00    +0.000 OA
ENDBRANCH  15  22
ENDBRANCH  14  19
ENDBRANCH  13  14
ENDBRANCH   1  13
TORSDOF 4
ENDMDL
MODEL 5
REMARK VINA RESULT:      -6.7      2.368      3.853
REMARK  Name = 
REMARK  5 active torsions:
REMARK  status: ('A' for Active; 'I' for Inactive)
REMARK    1  A    between atoms: C_1  and  O_2
REMARK    2  A    between atoms: O_2  and  C_3
REMARK    3  A    between atoms: C_7  and  O_8
REMARK    4  A    between atoms: O_8  and  C_9
REMARK    5  A    between atoms: C_9  and  C_10
REMARK                            x       y       z     vdW  Elec       q    Type
REMARK                         _______ _______ _______ _____ _____    ______ ____
ROOT
ATOM      1  C   UNL     1       3.084   4.883  19.887  0.00  0.00    +0.000 C 
ATOM      2  O   UNL     1       2.802   4.737  21.076  0.00  0.00    +0.000 OA
ATOM      3  N   UNL     1       2.839   6.057  19.155  0.00  0.00    +0.000 N 
ATOM      4  C   UNL     1       3.217   6.208  17.741  0.00  0.00    +0.000 C 
ATOM      5  C   UNL     1       3.600   7.642  17.423  0.00  0.00    +0.000 C 
ATOM      6  O   UNL     1       2.516   8.531  17.668  0.00  0.00    +0.000 OA
ATOM      7  C   UNL     1       1.960   8.348  18.914  0.00  0.00    +0.000 A 
ATOM      8  C   UNL     1       1.212   9.429  19.373  0.00  0.00    +0.000 A 
ATOM      9  C   UNL     1       0.617   9.329  20.613  0.00  0.00    +0.000 A 
ATOM     10  N   UNL     1       0.716   8.236  21.393  0.00  0.00    +0.000 NA
ATOM     11  C   UNL     1       1.445   7.191  20.912  0.00  0.00    +0.000 A 
ATOM     12  C   UNL     1       2.095   7.175  19.679  0.00  0.00    +0.000 A 
ENDROOT
BRANCH   1  13
ATOM     13  C   UNL     1       3.800   3.754  19.130  0.00  0.00    +0.000 C 
BRANCH  13  14
ATOM     14  O   UNL     1       5.205   3.748  19.355  0.00  0.00    +0.000 OA
BRANCH  14  19
ATOM     15  C   UNL     1       6.816   5.361  16.420  0.00  0.00    +0.000 A 
ATOM     16  C   UNL     1       7.542   6.341  17.099  0.00  0.00    +0.000 A 
ATOM     17  C   UNL     1       7.477   6.435  18.488  0.00  0.00    +0.000 A 
ATOM     18  C   UNL     1       6.683   5.542  19.205  0.00  0.00    +0.000 A 
ATOM     19  C   UNL     1       5.953   4.557  18.540  0.00  0.00    +0.000 A 
ATOM     20  C   UNL     1       6.021   4.470  17.144  0.00  0.00    +0.000 A 
BRANCH  15  22
ATOM     21  C   UNL     1       6.372   4.301  14.334  0.00  0.00    +0.000 C 
ATOM     22  O   UNL     1       6.968   5.370  15.058  0.00  0.00    +0.000 OA
ENDBRANCH  15  22
ENDBRANCH  14  19
ENDBRANCH  13  14
ENDBRANCH   1  13
TORSDOF 4
ENDMDL
MODEL 6
REMARK VINA RESULT:      -6.6      4.911      7.438
REMARK  Name = 
REMARK  5 active torsions:
REMARK  status: ('A' for Active; 'I' for Inactive)
REMARK    1  A    between atoms: C_1  and  O_2
REMARK    2  A    between atoms: O_2  and  C_3
REMARK    3  A    between atoms: C_7  and  O_8
REMARK    4  A    between atoms: O_8  and  C_9
REMARK    5  A    between atoms: C_9  and  C_10
REMARK                            x       y       z     vdW  Elec       q    Type
REMARK                         _______ _______ _______ _____ _____    ______ ____
ROOT
ATOM      1  C   UNL     1       1.365   8.718  20.265  0.00  0.00    +0.000 C 
ATOM      2  O   UNL     1       1.608   8.254  21.378  0.00  0.00    +0.000 OA
ATOM      3  N   UNL     1       0.557   9.846  20.037  0.00  0.00    +0.000 N 
ATOM      4  C   UNL     1       0.311  10.392  18.693  0.00  0.00    +0.000 C 
ATOM      5  C   UNL     1       0.149  11.900  18.732  0.00  0.00    +0.000 C 
ATOM      6  O   UNL     1      -0.952  12.279  19.551  0.00  0.00    +0.000 OA
ATOM      7  C   UNL     1      -0.920  11.672  20.786  0.00  0.00    +0.000 A 
ATOM      8  C   UNL     1      -1.694  12.305  21.756  0.00  0.00    +0.000 A 
ATOM      9  C   UNL     1      -1.720  11.761  23.023  0.00  0.00    +0.000 A 
ATOM     10  N   UNL     1      -1.045  10.646  23.362  0.00  0.00    +0.000 NA
ATOM     11  C   UNL     1      -0.306  10.045  22.389  0.00  0.00    +0.000 A 
ATOM     12  C   UNL     1      -0.197  10.501  21.076  0.00  0.00    +0.000 A 
ENDROOT
BRANCH   1  13
ATOM     13  C   UNL     1       2.009   8.089  19.019  0.00  0.00    +0.000 C 
BRANCH  13  14
ATOM     14  O   UNL     1       2.894   7.023  19.340  0.00  0.00    +0.000 OA
BRANCH  14  19
ATOM     15  C   UNL     1       1.404   3.662  19.887  0.00  0.00    +0.000 A 
ATOM     16  C   UNL     1       1.439   3.207  18.568  0.00  0.00    +0.000 A 
ATOM     17  C   UNL     1       1.949   4.015  17.553  0.00  0.00    +0.000 A 
ATOM     18  C   UNL     1       2.430   5.287  17.858  0.00  0.00    +0.000 A 
ATOM     19  C   UNL     1       2.402   5.755  19.171  0.00  0.00    +0.000 A 
ATOM     20  C   UNL     1       1.886   4.939  20.186  0.00  0.00    +0.000 A 
BRANCH  15  22
ATOM     21  C   UNL     1       1.673   2.483  21.939  0.00  0.00    +0.000 C 
ATOM     22  O   UNL     1       0.884   2.773  20.791  0.00  0.00    +0.000 OA
ENDBRANCH  15  22
ENDBRANCH  14  19
ENDBRANCH  13  14
ENDBRANCH   1  13
TORSDOF 4
ENDMDL
MODEL 7
REMARK VINA RESULT:      -6.6      2.701      4.396
REMARK  Name = 
REMARK  5 active torsions:
REMARK  status: ('A' for Active; 'I' for Inactive)
REMARK    1  A    between atoms: C_1  and  O_2
REMARK    2  A    between atoms: O_2  and  C_3
REMARK    3  A    between atoms: C_7  and  O_8
REMARK    4  A    between atoms: O_8  and  C_9
REMARK    5  A    between atoms: C_9  and  C_10
REMARK                            x       y       z     vdW  Elec       q    Type
REMARK                         _______ _______ _______ _____ _____    ______ ____
ROOT
ATOM      1  C   UNL     1       5.094   4.378  17.982  0.00  0.00    +0.000 C 
ATOM      2  O   UNL     1       5.979   4.214  18.821  0.00  0.00    +0.000 OA
ATOM      3  N   UNL     1       3.734   4.100  18.202  0.00  0.00    +0.000 N 
ATOM      4  C   UNL     1       2.697   4.337  17.185  0.00  0.00    +0.000 C 
ATOM      5  C   UNL     1       1.379   4.734  17.824  0.00  0.00    +0.000 C 
ATOM      6  O   UNL     1       0.897   3.712  18.690  0.00  0.00    +0.000 OA
ATOM      7  C   UNL     1       1.858   3.280  19.576  0.00  0.00    +0.000 A 
ATOM      8  C   UNL     1       1.352   2.620  20.693  0.00  0.00    +0.000 A 
ATOM      9  C   UNL     1       2.247   2.152  21.632  0.00  0.00    +0.000 A 
ATOM     10  N   UNL     1       3.581   2.292  21.515  0.00  0.00    +0.000 NA
ATOM     11  C   UNL     1       4.046   2.932  20.406  0.00  0.00    +0.000 A 
ATOM     12  C   UNL     1       3.242   3.452  19.392  0.00  0.00    +0.000 A 
ENDROOT
BRANCH   1  13
ATOM     13  C   UNL     1       5.446   4.975  16.610  0.00  0.00    +0.000 C 
BRANCH  13  14
ATOM     14  O   UNL     1       6.666   4.465  16.088  0.00  0.00    +0.000 OA
BRANCH  14  19
ATOM     15  C   UNL     1       6.127   3.484  12.544  0.00  0.00    +0.000 A 
ATOM     16  C   UNL     1       7.074   4.323  11.954  0.00  0.00    +0.000 A 
ATOM     17  C   UNL     1       7.852   5.174  12.738  0.00  0.00    +0.000 A 
ATOM     18  C   UNL     1       7.684   5.187  14.121  0.00  0.00    +0.000 A 
ATOM     19  C   UNL     1       6.742   4.354  14.724  0.00  0.00    +0.000 A 
ATOM     20  C   UNL     1       5.963   3.502  13.930  0.00  0.00    +0.000 A 
BRANCH  15  22
ATOM     21  C   UNL     1       4.134   3.136  11.287  0.00  0.00    +0.000 C 
ATOM     22  O   UNL     1       5.432   2.693  11.667  0.00  0.00    +0.000 OA
ENDBRANCH  15  22
ENDBRANCH  14  19
ENDBRANCH  13  14
ENDBRANCH   1  13
TORSDOF 4
ENDMDL
MODEL 8
REMARK VINA RESULT:      -6.6      2.672      3.901
REMARK  Name = 
REMARK  5 active torsions:
REMARK  status: ('A' for Active; 'I' for Inactive)
REMARK    1  A    between atoms: C_1  and  O_2
REMARK    2  A    between atoms: O_2  and  C_3
REMARK    3  A    between atoms: C_7  and  O_8
REMARK    4  A    between atoms: O_8  and  C_9
REMARK    5  A    between atoms: C_9  and  C_10
REMARK                            x       y       z     vdW  Elec       q    Type
REMARK                         _______ _______ _______ _____ _____    ______ ____
ROOT
ATOM      1  C   UNL     1       2.554   5.264  20.076  0.00  0.00    +0.000 C 
ATOM      2  O   UNL     1       2.343   5.132  21.282  0.00  0.00    +0.000 OA
ATOM      3  N   UNL     1       2.356   6.461  19.365  0.00  0.00    +0.000 N 
ATOM      4  C   UNL     1       2.647   6.593  17.929  0.00  0.00    +0.000 C 
ATOM      5  C   UNL     1       3.122   7.993  17.589  0.00  0.00    +0.000 C 
ATOM      6  O   UNL     1       2.133   8.965  17.911  0.00  0.00    +0.000 OA
ATOM      7  C   UNL     1       1.651   8.817  19.192  0.00  0.00    +0.000 A 
ATOM      8  C   UNL     1       1.027   9.952  19.704  0.00  0.00    +0.000 A 
ATOM      9  C   UNL     1       0.512   9.890  20.982  0.00  0.00    +0.000 A 
ATOM     10  N   UNL     1       0.575   8.786  21.750  0.00  0.00    +0.000 NA
ATOM     11  C   UNL     1       1.182   7.690  21.218  0.00  0.00    +0.000 A 
ATOM     12  C   UNL     1       1.743   7.631  19.943  0.00  0.00    +0.000 A 
ENDROOT
BRANCH   1  13
ATOM     13  C   UNL     1       3.123   4.088  19.268  0.00  0.00    +0.000 C 
BRANCH  13  14
ATOM     14  O   UNL     1       4.503   3.862  19.527  0.00  0.00    +0.000 OA
BRANCH  14  19
ATOM     15  C   UNL     1       7.169   6.067  18.171  0.00  0.00    +0.000 A 
ATOM     16  C   UNL     1       7.102   5.670  16.835  0.00  0.00    +0.000 A 
ATOM     17  C   UNL     1       6.188   4.698  16.430  0.00  0.00    +0.000 A 
ATOM     18  C   UNL     1       5.333   4.121  17.366  0.00  0.00    +0.000 A 
ATOM     19  C   UNL     1       5.388   4.508  18.704  0.00  0.00    +0.000 A 
ATOM     20  C   UNL     1       6.310   5.484  19.105  0.00  0.00    +0.000 A 
BRANCH  15  22
ATOM     21  C   UNL     1       7.947   8.285  17.785  0.00  0.00    +0.000 C 
ATOM     22  O   UNL     1       8.105   7.031  18.440  0.00  0.00    +0.000 OA
ENDBRANCH  15  22
ENDBRANCH  14  19
ENDBRANCH  13  14
ENDBRANCH   1  13
TORSDOF 4
ENDMDL
MODEL 9
REMARK VINA RESULT:      -6.6      4.342      6.267
REMARK  Name = 
REMARK  5 active torsions:
REMARK  status: ('A' for Active; 'I' for Inactive)
REMARK    1  A    between atoms: C_1  and  O_2
REMARK    2  A    between atoms: O_2  and  C_3
REMARK    3  A    between atoms: C_7  and  O_8
REMARK    4  A    between atoms: O_8  and  C_9
REMARK    5  A    between atoms: C_9  and  C_10
REMARK                            x       y       z     vdW  Elec       q    Type
REMARK                         _______ _______ _______ _____ _____    ______ ____
ROOT
ATOM      1  C   UNL     1       1.694   8.406  19.377  0.00  0.00    +0.000 C 
ATOM      2  O   UNL     1       2.062   7.668  20.291  0.00  0.00    +0.000 OA
ATOM      3  N   UNL     1       0.885   9.542  19.555  0.00  0.00    +0.000 N 
ATOM      4  C   UNL     1       0.487  10.419  18.443  0.00  0.00    +0.000 C 
ATOM      5  C   UNL     1       0.359  11.861  18.898  0.00  0.00    +0.000 C 
ATOM      6  O   UNL     1      -0.627  11.995  19.916  0.00  0.00    +0.000 OA
ATOM      7  C   UNL     1      -0.455  11.084  20.934  0.00  0.00    +0.000 A 
ATOM      8  C   UNL     1      -1.092  11.428  22.124  0.00  0.00    +0.000 A 
ATOM      9  C   UNL     1      -0.973  10.570  23.197  0.00  0.00    +0.000 A 
ATOM     10  N   UNL     1      -0.283   9.415  23.145  0.00  0.00    +0.000 NA
ATOM     11  C   UNL     1       0.321   9.102  21.965  0.00  0.00    +0.000 A 
ATOM     12  C   UNL     1       0.276   9.889  20.815  0.00  0.00    +0.000 A 
ENDROOT
BRANCH   1  13
ATOM     13  C   UNL     1       2.168   8.136  17.941  0.00  0.00    +0.000 C 
BRANCH  13  14
ATOM     14  O   UNL     1       3.535   7.748  17.879  0.00  0.00    +0.000 OA
BRANCH  14  19
ATOM     15  C   UNL     1       3.339   4.063  17.436  0.00  0.00    +0.000 A 
ATOM     16  C   UNL     1       4.485   3.890  16.657  0.00  0.00    +0.000 A 
ATOM     17  C   UNL     1       5.276   4.984  16.309  0.00  0.00    +0.000 A 
ATOM     18  C   UNL     1       4.922   6.260  16.744  0.00  0.00    +0.000 A 
ATOM     19  C   UNL     1       3.781   6.447  17.523  0.00  0.00    +0.000 A 
ATOM     20  C   UNL     1       2.989   5.344  17.867  0.00  0.00    +0.000 A 
BRANCH  15  22
ATOM     21  C   UNL     1       3.417   1.783  18.120  0.00  0.00    +0.000 C 
ATOM     22  O   UNL     1       2.651   2.911  17.712  0.00  0.00    +0.000 OA
ENDBRANCH  15  22
ENDBRANCH  14  19
ENDBRANCH  13  14
ENDBRANCH   1  13
TORSDOF 4
ENDMDL
