MODEL 1
REMARK VINA RESULT:      -7.2      0.000      0.000
REMARK  Name = 
REMARK  6 active torsions:
REMARK  status: ('A' for Active; 'I' for Inactive)
REMARK    1  A    between atoms: C_1  and  C_2
REMARK    2  A    between atoms: C_2  and  C_3
REMARK    3  A    between atoms: C_3  and  C_4
REMARK    4  A    between atoms: C_4  and  C_5
REMARK    5  A    between atoms: C_5  and  C_6
REMARK    6  A    between atoms: C_12  and  O_13
REMARK                            x       y       z     vdW  Elec       q    Type
REMARK                         _______ _______ _______ _____ _____    ______ ____
ROOT
ATOM      1  C   UNL     1       5.050   5.132  16.182  0.00  0.00    +0.000 A 
ATOM      2  C   UNL     1       4.672   6.259  16.802  0.00  0.00    +0.000 A 
ATOM      3  C   UNL     1       3.590   6.215  17.795  0.00  0.00    +0.000 A 
ATOM      4  O   UNL     1       3.205   7.228  18.357  0.00  0.00    +0.000 OA
ATOM      5  C   UNL     1       3.006   4.893  18.061  0.00  0.00    +0.000 A 
ATOM      6  C   UNL     1       1.981   4.754  18.999  0.00  0.00    +0.000 A 
ATOM      7  C   UNL     1       1.463   3.488  19.241  0.00  0.00    +0.000 A 
ATOM      8  C   UNL     1       1.951   2.373  18.563  0.00  0.00    +0.000 A 
ATOM      9  C   UNL     1       2.972   2.523  17.619  0.00  0.00    +0.000 A 
ATOM     10  C   UNL     1       3.498   3.789  17.367  0.00  0.00    +0.000 A 
ATOM     11  O   UNL     1       4.498   3.885  16.432  0.00  0.00    +0.000 OA
ENDROOT
BRANCH   7  12
ATOM     12  O   UNL     1       0.463   3.293  20.146  0.00  0.00    +0.000 OA
ATOM     13  H   UNL     1      -0.075   4.103  20.199  0.00  0.00    +0.000 HD
ENDBRANCH   7  12
BRANCH   1  14
ATOM     14  C   UNL     1       6.132   5.135  15.137  0.00  0.00    +0.000 C 
BRANCH  14  15
ATOM     15  C   UNL     1       6.180   3.802  14.388  0.00  0.00    +0.000 C 
BRANCH  15  16
ATOM     16  C   UNL     1       6.547   4.013  12.920  0.00  0.00    +0.000 C 
BRANCH  16  18
ATOM     17  C   UNL     1       4.485   3.341  11.655  0.00  0.00    +0.000 C 
ATOM     18  C   UNL     1       5.904   2.950  12.033  0.00  0.00    +0.000 C 
ENDBRANCH  16  18
ENDBRANCH  15  16
ENDBRANCH  14  15
ENDBRANCH   1  14
TORSDOF 5
ENDMDL
MODEL 2
REMARK VINA RESULT:      -7.0      1.654      1.853
REMARK  Name = 
REMARK  6 active torsions:
REMARK  status: ('A' for Active; 'I' for Inactive)
REMARK    1  A    between atoms: C_1  and  C_2
REMARK    2  A    between atoms: C_2  and  C_3
REMARK    3  A    between atoms: C_3  and  C_4
REMARK    4  A    between atoms: C_4  and  C_5
REMARK    5  A    between atoms: C_5  and  C_6
REMARK    6  A    between atoms: C_12  and  O_13
REMARK                            x       y       z     vdW  Elec       q    Type
REMARK                         _______ _______ _______ _____ _____    ______ ____
ROOT
ATOM      1  C   UNL     1       6.030   4.679  16.314  0.00  0.00    +0.000 A 
ATOM      2  C   UNL     1       6.742   4.942  17.419  0.00  0.00    +0.000 A 
ATOM      3  C   UNL     1       6.059   5.058  18.714  0.00  0.00    +0.000 A 
ATOM      4  O   UNL     1       6.676   5.322  19.734  0.00  0.00    +0.000 OA
ATOM      5  C   UNL     1       4.605   4.843  18.704  0.00  0.00    +0.000 A 
ATOM      6  C   UNL     1       3.875   4.921  19.891  0.00  0.00    +0.000 A 
ATOM      7  C   UNL     1       2.504   4.694  19.850  0.00  0.00    +0.000 A 
ATOM      8  C   UNL     1       1.864   4.395  18.649  0.00  0.00    +0.000 A 
ATOM      9  C   UNL     1       2.602   4.328  17.464  0.00  0.00    +0.000 A 
ATOM     10  C   UNL     1       3.977   4.555  17.493  0.00  0.00    +0.000 A 
ATOM     11  O   UNL     1       4.658   4.477  16.303  0.00  0.00    +0.000 OA
ENDROOT
BRANCH   7  12
ATOM     12  O   UNL     1       1.743   4.756  20.978  0.00  0.00    +0.000 OA
ATOM     13  H   UNL     1       1.613   3.854  21.319  0.00  0.00    +0.000 HD
ENDBRANCH   7  12
BRANCH   1  14
ATOM     14  C   UNL     1       6.684   4.582  14.962  0.00  0.00    +0.000 C 
BRANCH  14  15
ATOM     15  C   UNL     1       5.802   3.813  13.977  0.00  0.00    +0.000 C 
BRANCH  15  16
ATOM     16  C   UNL     1       6.468   3.718  12.606  0.00  0.00    +0.000 C 
BRANCH  16  18
ATOM     17  C   UNL     1       4.299   3.228  11.440  0.00  0.00    +0.000 C 
ATOM     18  C   UNL     1       5.719   2.751  11.693  0.00  0.00    +0.000 C 
ENDBRANCH  16  18
ENDBRANCH  15  16
ENDBRANCH  14  15
ENDBRANCH   1  14
TORSDOF 5
ENDMDL
MODEL 3
REMARK VINA RESULT:      -6.9      2.884      5.661
REMARK  Name = 
REMARK  6 active torsions:
REMARK  status: ('A' for Active; 'I' for Inactive)
REMARK    1  A    between atoms: C_1  and  C_2
REMARK    2  A    between atoms: C_2  and  C_3
REMARK    3  A    between atoms: C_3  and  C_4
REMARK    4  A    between atoms: C_4  and  C_5
REMARK    5  A    between atoms: C_5  and  C_6
REMARK    6  A    between atoms: C_12  and  O_13
REMARK                            x       y       z     vdW  Elec       q    Type
REMARK                         _______ _______ _______ _____ _____    ______ ____
ROOT
ATOM      1  C   UNL     1       2.687   5.765  19.719  0.00  0.00    +0.000 A 
ATOM      2  C   UNL     1       2.387   6.783  18.901  0.00  0.00    +0.000 A 
ATOM      3  C   UNL     1       3.331   7.168  17.842  0.00  0.00    +0.000 A 
ATOM      4  O   UNL     1       3.098   8.107  17.097  0.00  0.00    +0.000 OA
ATOM      5  C   UNL     1       4.557   6.365  17.741  0.00  0.00    +0.000 A 
ATOM      6  C   UNL     1       5.504   6.650  16.756  0.00  0.00    +0.000 A 
ATOM      7  C   UNL     1       6.644   5.860  16.676  0.00  0.00    +0.000 A 
ATOM      8  C   UNL     1       6.845   4.801  17.559  0.00  0.00    +0.000 A 
ATOM      9  C   UNL     1       5.895   4.528  18.547  0.00  0.00    +0.000 A 
ATOM     10  C   UNL     1       4.748   5.315  18.638  0.00  0.00    +0.000 A 
ATOM     11  O   UNL     1       3.845   5.008  19.625  0.00  0.00    +0.000 OA
ENDROOT
BRANCH   7  12
ATOM     12  O   UNL     1       7.601   6.092  15.734  0.00  0.00    +0.000 OA
ATOM     13  H   UNL     1       7.462   5.484  14.987  0.00  0.00    +0.000 HD
ENDBRANCH   7  12
BRANCH   1  14
ATOM     14  C   UNL     1       1.765   5.357  20.836  0.00  0.00    +0.000 C 
BRANCH  14  15
ATOM     15  C   UNL     1       1.711   3.834  20.977  0.00  0.00    +0.000 C 
BRANCH  15  16
ATOM     16  C   UNL     1       0.912   3.207  19.837  0.00  0.00    +0.000 C 
BRANCH  16  18
ATOM     17  C   UNL     1       2.251   2.532  17.823  0.00  0.00    +0.000 C 
ATOM     18  C   UNL     1       1.697   2.084  19.165  0.00  0.00    +0.000 C 
ENDBRANCH  16  18
ENDBRANCH  15  16
ENDBRANCH  14  15
ENDBRANCH   1  14
TORSDOF 5
ENDMDL
MODEL 4
REMARK VINA RESULT:      -6.9      1.716      2.963
REMARK  Name = 
REMARK  6 active torsions:
REMARK  status: ('A' for Active; 'I' for Inactive)
REMARK    1  A    between atoms: C_1  and  C_2
REMARK    2  A    between atoms: C_2  and  C_3
REMARK    3  A    between atoms: C_3  and  C_4
REMARK    4  A    between atoms: C_4  and  C_5
REMARK    5  A    between atoms: C_5  and  C_6
REMARK    6  A    between atoms: C_12  and  O_13
REMARK                            x       y       z     vdW  Elec       q    Type
REMARK                         _______ _______ _______ _____ _____    ______ ____
ROOT
ATOM      1  C   UNL     1       4.757   4.933  16.538  0.00  0.00    +0.000 A 
ATOM      2  C   UNL     1       4.284   6.050  17.109  0.00  0.00    +0.000 A 
ATOM      3  C   UNL     1       3.213   5.956  18.111  0.00  0.00    +0.000 A 
ATOM      4  O   UNL     1       2.743   6.957  18.630  0.00  0.00    +0.000 OA
ATOM      5  C   UNL     1       2.748   4.602  18.441  0.00  0.00    +0.000 A 
ATOM      6  C   UNL     1       1.743   4.417  19.393  0.00  0.00    +0.000 A 
ATOM      7  C   UNL     1       1.338   3.122  19.695  0.00  0.00    +0.000 A 
ATOM      8  C   UNL     1       1.921   2.025  19.065  0.00  0.00    +0.000 A 
ATOM      9  C   UNL     1       2.920   2.220  18.107  0.00  0.00    +0.000 A 
ATOM     10  C   UNL     1       3.333   3.515  17.794  0.00  0.00    +0.000 A 
ATOM     11  O   UNL     1       4.318   3.655  16.848  0.00  0.00    +0.000 OA
ENDROOT
BRANCH   7  12
ATOM     12  O   UNL     1       0.363   2.883  20.616  0.00  0.00    +0.000 OA
ATOM     13  H   UNL     1       0.235   1.922  20.695  0.00  0.00    +0.000 HD
ENDBRANCH   7  12
BRANCH   1  14
ATOM     14  C   UNL     1       5.831   4.983  15.485  0.00  0.00    +0.000 C 
BRANCH  14  15
ATOM     15  C   UNL     1       7.171   5.414  16.084  0.00  0.00    +0.000 C 
BRANCH  15  16
ATOM     16  C   UNL     1       7.498   4.599  17.334  0.00  0.00    +0.000 C 
BRANCH  16  18
ATOM     17  C   UNL     1       7.774   6.967  18.122  0.00  0.00    +0.000 C 
ATOM     18  C   UNL     1       7.735   5.506  18.538  0.00  0.00    +0.000 C 
ENDBRANCH  16  18
ENDBRANCH  15  16
ENDBRANCH  14  15
ENDBRANCH   1  14
TORSDOF 5
ENDMDL
MODEL 5
REMARK VINA RESULT:      -6.9      2.021      2.761
REMARK  Name = 
REMARK  6 active torsions:
REMARK  status: ('A' for Active; 'I' for Inactive)
REMARK    1  A    between atoms: C_1  and  C_2
REMARK    2  A    between atoms: C_2  and  C_3
REMARK    3  A    between atoms: C_3  and  C_4
REMARK    4  A    between atoms: C_4  and  C_5
REMARK    5  A    between atoms: C_5  and  C_6
REMARK    6  A    between atoms: C_12  and  O_13
REMARK                            x       y       z     vdW  Elec       q    Type
REMARK                         _______ _______ _______ _____ _____    ______ ____
ROOT
ATOM      1  C   UNL     1       5.525   5.219  16.135  0.00  0.00    +0.000 A 
ATOM      2  C   UNL     1       5.696   4.267  17.063  0.00  0.00    +0.000 A 
ATOM      3  C   UNL     1       4.984   4.364  18.345  0.00  0.00    +0.000 A 
ATOM      4  O   UNL     1       5.139   3.526  19.220  0.00  0.00    +0.000 OA
ATOM      5  C   UNL     1       4.090   5.519  18.506  0.00  0.00    +0.000 A 
ATOM      6  C   UNL     1       3.363   5.686  19.687  0.00  0.00    +0.000 A 
ATOM      7  C   UNL     1       2.513   6.779  19.800  0.00  0.00    +0.000 A 
ATOM      8  C   UNL     1       2.384   7.696  18.759  0.00  0.00    +0.000 A 
ATOM      9  C   UNL     1       3.122   7.525  17.584  0.00  0.00    +0.000 A 
ATOM     10  C   UNL     1       3.979   6.433  17.460  0.00  0.00    +0.000 A 
ATOM     11  O   UNL     1       4.682   6.310  16.287  0.00  0.00    +0.000 OA
ENDROOT
BRANCH   7  12
ATOM     12  O   UNL     1       1.779   6.990  20.928  0.00  0.00    +0.000 OA
ATOM     13  H   UNL     1       1.968   6.278  21.564  0.00  0.00    +0.000 HD
ENDBRANCH   7  12
BRANCH   1  14
ATOM     14  C   UNL     1       6.256   5.176  14.821  0.00  0.00    +0.000 C 
BRANCH  14  15
ATOM     15  C   UNL     1       6.176   3.785  14.190  0.00  0.00    +0.000 C 
BRANCH  15  16
ATOM     16  C   UNL     1       6.480   3.845  12.695  0.00  0.00    +0.000 C 
BRANCH  16  18
ATOM     17  C   UNL     1       4.343   3.317  11.486  0.00  0.00    +0.000 C 
ATOM     18  C   UNL     1       5.694   2.783  11.929  0.00  0.00    +0.000 C 
ENDBRANCH  16  18
ENDBRANCH  15  16
ENDBRANCH  14  15
ENDBRANCH   1  14
TORSDOF 5
ENDMDL
MODEL 6
REMARK VINA RESULT:      -6.8      2.726      3.683
REMARK  Name = 
REMARK  6 active torsions:
REMARK  status: ('A' for Active; 'I' for Inactive)
REMARK    1  A    between atoms: C_1  and  C_2
REMARK    2  A    between atoms: C_2  and  C_3
REMARK    3  A    between atoms: C_3  and  C_4
REMARK    4  A    between atoms: C_4  and  C_5
REMARK    5  A    between atoms: C_5  and  C_6
REMARK    6  A    between atoms: C_12  and  O_13
REMARK                            x       y       z     vdW  Elec       q    Type
REMARK                         _______ _______ _______ _____ _____    ______ ____
ROOT
ATOM      1  C   UNL     1       4.559   5.864  17.485  0.00  0.00    +0.000 A 
ATOM      2  C   UNL     1       3.723   6.780  17.992  0.00  0.00    +0.000 A 
ATOM      3  C   UNL     1       2.866   6.430  19.133  0.00  0.00    +0.000 A 
ATOM      4  O   UNL     1       2.076   7.235  19.602  0.00  0.00    +0.000 OA
ATOM      5  C   UNL     1       3.015   5.069  19.665  0.00  0.00    +0.000 A 
ATOM      6  C   UNL     1       2.250   4.653  20.757  0.00  0.00    +0.000 A 
ATOM      7  C   UNL     1       2.429   3.365  21.247  0.00  0.00    +0.000 A 
ATOM      8  C   UNL     1       3.351   2.499  20.664  0.00  0.00    +0.000 A 
ATOM      9  C   UNL     1       4.107   2.921  19.566  0.00  0.00    +0.000 A 
ATOM     10  C   UNL     1       3.935   4.210  19.065  0.00  0.00    +0.000 A 
ATOM     11  O   UNL     1       4.699   4.578  17.985  0.00  0.00    +0.000 OA
ENDROOT
BRANCH   7  12
ATOM     12  O   UNL     1       1.711   2.907  22.310  0.00  0.00    +0.000 OA
ATOM     13  H   UNL     1       1.240   3.655  22.717  0.00  0.00    +0.000 HD
ENDBRANCH   7  12
BRANCH   1  14
ATOM     14  C   UNL     1       5.433   6.168  16.298  0.00  0.00    +0.000 C 
BRANCH  14  15
ATOM     15  C   UNL     1       6.914   6.109  16.674  0.00  0.00    +0.000 C 
BRANCH  15  16
ATOM     16  C   UNL     1       7.348   7.388  17.388  0.00  0.00    +0.000 C 
BRANCH  16  18
ATOM     17  C   UNL     1       7.785   5.717  19.211  0.00  0.00    +0.000 C 
ATOM     18  C   UNL     1       8.165   7.072  18.639  0.00  0.00    +0.000 C 
ENDBRANCH  16  18
ENDBRANCH  15  16
ENDBRANCH  14  15
ENDBRANCH   1  14
TORSDOF 5
ENDMDL
MODEL 7
REMARK VINA RESULT:      -6.8      1.070      1.532
REMARK  Name = 
REMARK  6 active torsions:
REMARK  status: ('A' for Active; 'I' for Inactive)
REMARK    1  A    between atoms: C_1  and  C_2
REMARK    2  A    between atoms: C_2  and  C_3
REMARK    3  A    between atoms: C_3  and  C_4
REMARK    4  A    between atoms: C_4  and  C_5
REMARK    5  A    between atoms: C_5  and  C_6
REMARK    6  A    between atoms: C_12  and  O_13
REMARK                            x       y       z     vdW  Elec       q    Type
REMARK                         _______ _______ _______ _____ _____    ______ ____
ROOT
ATOM      1  C   UNL     1       4.318   5.916  17.025  0.00  0.00    +0.000 A 
ATOM      2  C   UNL     1       3.705   6.892  17.709  0.00  0.00    +0.000 A 
ATOM      3  C   UNL     1       2.770   6.547  18.788  0.00  0.00    +0.000 A 
ATOM      4  O   UNL     1       2.176   7.413  19.412  0.00  0.00    +0.000 OA
ATOM      5  C   UNL     1       2.593   5.114  19.062  0.00  0.00    +0.000 A 
ATOM      6  C   UNL     1       1.734   4.694  20.080  0.00  0.00    +0.000 A 
ATOM      7  C   UNL     1       1.603   3.333  20.326  0.00  0.00    +0.000 A 
ATOM      8  C   UNL     1       2.314   2.399  19.575  0.00  0.00    +0.000 A 
ATOM      9  C   UNL     1       3.166   2.828  18.553  0.00  0.00    +0.000 A 
ATOM     10  C   UNL     1       3.303   4.192  18.296  0.00  0.00    +0.000 A 
ATOM     11  O   UNL     1       4.151   4.563  17.282  0.00  0.00    +0.000 OA
ENDROOT
BRANCH   7  12
ATOM     12  O   UNL     1       0.780   2.867  21.306  0.00  0.00    +0.000 OA
ATOM     13  H   UNL     1       0.969   1.924  21.454  0.00  0.00    +0.000 HD
ENDBRANCH   7  12
BRANCH   1  14
ATOM     14  C   UNL     1       5.260   6.221  15.892  0.00  0.00    +0.000 C 
BRANCH  14  15
ATOM     15  C   UNL     1       6.588   5.483  16.065  0.00  0.00    +0.000 C 
BRANCH  15  16
ATOM     16  C   UNL     1       6.956   4.716  14.796  0.00  0.00    +0.000 C 
BRANCH  16  18
ATOM     17  C   UNL     1       6.075   3.538  12.761  0.00  0.00    +0.000 C 
ATOM     18  C   UNL     1       5.708   4.239  14.058  0.00  0.00    +0.000 C 
ENDBRANCH  16  18
ENDBRANCH  15  16
ENDBRANCH  14  15
ENDBRANCH   1  14
TORSDOF 5
ENDMDL
MODEL 8
REMARK VINA RESULT:      -6.7      2.504      4.127
REMARK  Name = 
REMARK  6 active torsions:
REMARK  status: ('A' for Active; 'I' for Inactive)
REMARK    1  A    between atoms: C_1  and  C_2
REMARK    2  A    between atoms: C_2  and  C_3
REMARK    3  A    between atoms: C_3  and  C_4
REMARK    4  A    between atoms: C_4  and  C_5
REMARK    5  A    between atoms: C_5  and  C_6
REMARK    6  A    between atoms: C_12  and  O_13
REMARK                            x       y       z     vdW  Elec       q    Type
REMARK                         _______ _______ _______ _____ _____    ______ ____
ROOT
ATOM      1  C   UNL     1       4.358   4.826  17.099  0.00  0.00    +0.000 A 
ATOM      2  C   UNL     1       4.362   3.496  16.928  0.00  0.00    +0.000 A 
ATOM      3  C   UNL     1       3.762   2.629  17.951  0.00  0.00    +0.000 A 
ATOM      4  O   UNL     1       3.773   1.413  17.836  0.00  0.00    +0.000 OA
ATOM      5  C   UNL     1       3.159   3.308  19.106  0.00  0.00    +0.000 A 
ATOM      6  C   UNL     1       2.554   2.564  20.121  0.00  0.00    +0.000 A 
ATOM      7  C   UNL     1       1.977   3.237  21.191  0.00  0.00    +0.000 A 
ATOM      8  C   UNL     1       1.999   4.629  21.257  0.00  0.00    +0.000 A 
ATOM      9  C   UNL     1       2.615   5.365  20.240  0.00  0.00    +0.000 A 
ATOM     10  C   UNL     1       3.198   4.700  19.163  0.00  0.00    +0.000 A 
ATOM     11  O   UNL     1       3.790   5.467  18.190  0.00  0.00    +0.000 OA
ENDROOT
BRANCH   7  12
ATOM     12  O   UNL     1       1.372   2.562  22.208  0.00  0.00    +0.000 OA
ATOM     13  H   UNL     1       0.691   1.976  21.835  0.00  0.00    +0.000 HD
ENDBRANCH   7  12
BRANCH   1  14
ATOM     14  C   UNL     1       4.988   5.750  16.093  0.00  0.00    +0.000 C 
BRANCH  14  15
ATOM     15  C   UNL     1       5.846   6.813  16.781  0.00  0.00    +0.000 C 
BRANCH  15  16
ATOM     16  C   UNL     1       7.262   6.296  17.029  0.00  0.00    +0.000 C 
BRANCH  16  18
ATOM     17  C   UNL     1       7.825   5.723  19.408  0.00  0.00    +0.000 C 
ATOM     18  C   UNL     1       7.816   6.816  18.352  0.00  0.00    +0.000 C 
ENDBRANCH  16  18
ENDBRANCH  15  16
ENDBRANCH  14  15
ENDBRANCH   1  14
TORSDOF 5
ENDMDL
MODEL 9
REMARK VINA RESULT:      -6.7      4.919      6.918
REMARK  Name = 
REMARK  6 active torsions:
REMARK  status: ('A' for Active; 'I' for Inactive)
REMARK    1  A    between atoms: C_1  and  C_2
REMARK    2  A    between atoms: C_2  and  C_3
REMARK    3  A    between atoms: C_3  and  C_4
REMARK    4  A    between atoms: C_4  and  C_5
REMARK    5  A    between atoms: C_5  and  C_6
REMARK    6  A    between atoms: C_12  and  O_13
REMARK                            x       y       z     vdW  Elec       q    Type
REMARK                         _______ _______ _______ _____ _____    ______ ____
ROOT
ATOM      1  C   UNL     1       7.889   8.218  17.917  0.00  0.00    +0.000 A 
ATOM      2  C   UNL     1       8.377   7.382  18.844  0.00  0.00    +0.000 A 
ATOM      3  C   UNL     1       7.815   6.030  18.973  0.00  0.00    +0.000 A 
ATOM      4  O   UNL     1       8.220   5.255  19.824  0.00  0.00    +0.000 OA
ATOM      5  C   UNL     1       6.747   5.678  18.027  0.00  0.00    +0.000 A 
ATOM      6  C   UNL     1       6.163   4.410  18.067  0.00  0.00    +0.000 A 
ATOM      7  C   UNL     1       5.169   4.102  17.147  0.00  0.00    +0.000 A 
ATOM      8  C   UNL     1       4.756   5.036  16.200  0.00  0.00    +0.000 A 
ATOM      9  C   UNL     1       5.340   6.306  16.173  0.00  0.00    +0.000 A 
ATOM     10  C   UNL     1       6.337   6.627  17.092  0.00  0.00    +0.000 A 
ATOM     11  O   UNL     1       6.880   7.887  17.025  0.00  0.00    +0.000 OA
ENDROOT
BRANCH   7  12
ATOM     12  O   UNL     1       4.566   2.880  17.139  0.00  0.00    +0.000 OA
ATOM     13  H   UNL     1       3.786   2.911  17.721  0.00  0.00    +0.000 HD
ENDBRANCH   7  12
BRANCH   1  14
ATOM     14  C   UNL     1       8.412   9.621  17.770  0.00  0.00    +0.000 C 
BRANCH  14  15
ATOM     15  C   UNL     1       9.147  10.071  19.034  0.00  0.00    +0.000 C 
BRANCH  15  16
ATOM     16  C   UNL     1      10.172  11.157  18.713  0.00  0.00    +0.000 C 
BRANCH  16  18
ATOM     17  C   UNL     1      12.289  11.900  19.839  0.00  0.00    +0.000 C 
ATOM     18  C   UNL     1      10.787  11.730  19.987  0.00  0.00    +0.000 C 
ENDBRANCH  16  18
ENDBRANCH  15  16
ENDBRANCH  14  15
ENDBRANCH   1  14
TORSDOF 5
ENDMDL
