MODEL 1
REMARK VINA RESULT:      -8.1      0.000      0.000
REMARK  Name = 
REMARK  8 active torsions:
REMARK  status: ('A' for Active; 'I' for Inactive)
REMARK    1  A    between atoms: C_1  and  O_2
REMARK    2  A    between atoms: O_2  and  C_3
REMARK    3  A    between atoms: C_6  and  N_7
REMARK    4  A    between atoms: C_8  and  C_10
REMARK    5  A    between atoms: C_14  and  C_15
REMARK    6  A    between atoms: C_15  and  O_16
REMARK    7  A    between atoms: N_19  and  C_20
REMARK    8  A    between atoms: C_20  and  C_21
REMARK                            x       y       z     vdW  Elec       q    Type
REMARK                         _______ _______ _______ _____ _____    ______ ____
ROOT
ATOM      1  C   UNL     1       1.501   8.076  20.075  0.00  0.00    +0.000 A 
ATOM      2  C   UNL     1       0.742   9.142  19.630  0.00  0.00    +0.000 A 
ATOM      3  C   UNL     1       0.154   9.744  20.735  0.00  0.00    +0.000 A 
ATOM      4  C   UNL     1      -0.627  10.894  20.865  0.00  0.00    +0.000 A 
ATOM      5  C   UNL     1      -1.015  11.364  22.129  0.00  0.00    +0.000 A 
ATOM      6  C   UNL     1      -0.697  10.555  23.237  0.00  0.00    +0.000 A 
ATOM      7  C   UNL     1       0.061   9.348  23.122  0.00  0.00    +0.000 A 
ATOM      8  C   UNL     1       0.516   8.994  21.841  0.00  0.00    +0.000 A 
ATOM      9  O   UNL     1       1.345   7.941  21.440  0.00  0.00    +0.000 OA
ENDROOT
BRANCH   5  10
ATOM     10  C   UNL     1      -1.718  12.738  22.149  0.00  0.00    +0.000 C 
ATOM     11  C   UNL     1      -2.291  13.233  20.813  0.00  0.00    +0.000 C 
ATOM     12  C   UNL     1      -3.202  14.473  20.960  0.00  0.00    +0.000 C 
ATOM     13  N   UNL     1      -4.262  14.235  21.953  0.00  0.00    +0.000 NA
ATOM     14  C   UNL     1      -3.625  14.034  23.259  0.00  0.00    +0.000 C 
ATOM     15  C   UNL     1      -2.838  12.730  23.221  0.00  0.00    +0.000 C 
BRANCH  10  16
ATOM     16  O   UNL     1      -0.732  13.706  22.561  0.00  0.00    +0.000 OA
ATOM     17  H   UNL     1      -0.971  14.006  23.456  0.00  0.00    +0.000 HD
ENDBRANCH  10  16
BRANCH  13  18
ATOM     18  C   UNL     1      -5.290  15.298  22.037  0.00  0.00    +0.000 C 
BRANCH  18  19
ATOM     19  C   UNL     1      -6.747  14.801  21.834  0.00  0.00    +0.000 C 
ATOM     20  C   UNL     1      -6.825  13.293  21.537  0.00  0.00    +0.000 C 
ATOM     21  C   UNL     1      -6.782  12.427  22.760  0.00  0.00    +0.000 C 
ATOM     22  C   UNL     1      -7.187  12.852  23.958  0.00  0.00    +0.000 C 
ATOM     23  C   UNL     1      -7.721  14.229  24.203  0.00  0.00    +0.000 C 
ATOM     24  C   UNL     1      -7.678  15.186  23.004  0.00  0.00    +0.000 C 
ENDBRANCH  18  19
ENDBRANCH  13  18
ENDBRANCH   5  10
BRANCH   1  26
ATOM     25  N   UNL     1       3.051   6.186  19.522  0.00  0.00    +0.000 N 
ATOM     26  C   UNL     1       2.336   7.325  19.150  0.00  0.00    +0.000 C 
ATOM     27  O   UNL     1       2.360   7.728  17.981  0.00  0.00    +0.000 OA
ATOM     28  H   UNL     1       2.786   5.718  20.378  0.00  0.00    +0.000 HD
BRANCH  25  32
ATOM     29  C   UNL     1       5.512   4.306  16.577  0.00  0.00    +0.000 A 
ATOM     30  C   UNL     1       5.873   5.530  17.114  0.00  0.00    +0.000 A 
ATOM     31  C   UNL     1       5.105   6.109  18.125  0.00  0.00    +0.000 A 
ATOM     32  C   UNL     1       3.917   5.517  18.592  0.00  0.00    +0.000 A 
ATOM     33  C   UNL     1       3.587   4.259  18.082  0.00  0.00    +0.000 A 
ATOM     34  C   UNL     1       4.378   3.660  17.073  0.00  0.00    +0.000 A 
BRANCH  29  36
ATOM     35  C   UNL     1       7.015   4.895  14.847  0.00  0.00    +0.000 C 
ATOM     36  O   UNL     1       6.316   3.885  15.554  0.00  0.00    +0.000 OA
ENDBRANCH  29  36
ENDBRANCH  25  32
ENDBRANCH   1  26
TORSDOF 7
ENDMDL
MODEL 2
REMARK VINA RESULT:      -7.7      2.521      3.942
REMARK  Name = 
REMARK  8 active torsions:
REMARK  status: ('A' for Active; 'I' for Inactive)
REMARK    1  A    between atoms: C_1  and  O_2
REMARK    2  A    between atoms: O_2  and  C_3
REMARK    3  A    between atoms: C_6  and  N_7
REMARK    4  A    between atoms: C_8  and  C_10
REMARK    5  A    between atoms: C_14  and  C_15
REMARK    6  A    between atoms: C_15  and  O_16
REMARK    7  A    between atoms: N_19  and  C_20
REMARK    8  A    between atoms: C_20  and  C_21
REMARK                            x       y       z     vdW  Elec       q    Type
REMARK                         _______ _______ _______ _____ _____    ______ ____
ROOT
ATOM      1  C   UNL     1       1.443   8.171  20.193  0.00  0.00    +0.000 A 
ATOM      2  C   UNL     1       0.774   9.295  19.745  0.00  0.00    +0.000 A 
ATOM      3  C   UNL     1       0.099   9.853  20.822  0.00  0.00    +0.000 A 
ATOM      4  C   UNL     1      -0.648  11.027  20.947  0.00  0.00    +0.000 A 
ATOM      5  C   UNL     1      -1.145  11.436  22.193  0.00  0.00    +0.000 A 
ATOM      6  C   UNL     1      -0.974  10.549  23.273  0.00  0.00    +0.000 A 
ATOM      7  C   UNL     1      -0.254   9.318  23.157  0.00  0.00    +0.000 A 
ATOM      8  C   UNL     1       0.317   9.023  21.907  0.00  0.00    +0.000 A 
ATOM      9  O   UNL     1       1.143   7.961  21.524  0.00  0.00    +0.000 OA
ENDROOT
BRANCH   5  10
ATOM     10  C   UNL     1      -1.795  12.836  22.231  0.00  0.00    +0.000 C 
ATOM     11  C   UNL     1      -1.214  13.832  23.247  0.00  0.00    +0.000 C 
ATOM     12  C   UNL     1      -1.727  15.276  23.047  0.00  0.00    +0.000 C 
ATOM     13  N   UNL     1      -1.516  15.725  21.661  0.00  0.00    +0.000 NA
ATOM     14  C   UNL     1      -2.325  14.876  20.780  0.00  0.00    +0.000 C 
ATOM     15  C   UNL     1      -1.759  13.462  20.813  0.00  0.00    +0.000 C 
BRANCH  10  16
ATOM     16  O   UNL     1      -3.179  12.645  22.585  0.00  0.00    +0.000 OA
ATOM     17  H   UNL     1      -3.243  12.686  23.555  0.00  0.00    +0.000 HD
ENDBRANCH  10  16
BRANCH  13  18
ATOM     18  C   UNL     1      -1.812  17.156  21.416  0.00  0.00    +0.000 C 
BRANCH  18  19
ATOM     19  C   UNL     1      -0.664  17.941  20.725  0.00  0.00    +0.000 C 
ATOM     20  C   UNL     1       0.631  17.119  20.606  0.00  0.00    +0.000 C 
ATOM     21  C   UNL     1       0.660  16.192  19.429  0.00  0.00    +0.000 C 
ATOM     22  C   UNL     1      -0.044  16.417  18.318  0.00  0.00    +0.000 C 
ATOM     23  C   UNL     1      -0.930  17.609  18.135  0.00  0.00    +0.000 C 
ATOM     24  C   UNL     1      -1.079  18.525  19.357  0.00  0.00    +0.000 C 
ENDBRANCH  18  19
ENDBRANCH  13  18
ENDBRANCH   5  10
BRANCH   1  26
ATOM     25  N   UNL     1       2.992   6.267  19.688  0.00  0.00    +0.000 N 
ATOM     26  C   UNL     1       2.340   7.442  19.310  0.00  0.00    +0.000 C 
ATOM     27  O   UNL     1       2.479   7.898  18.170  0.00  0.00    +0.000 OA
ATOM     28  H   UNL     1       2.641   5.766  20.493  0.00  0.00    +0.000 HD
BRANCH  25  32
ATOM     29  C   UNL     1       5.789   4.546  16.952  0.00  0.00    +0.000 A 
ATOM     30  C   UNL     1       6.225   5.109  18.140  0.00  0.00    +0.000 A 
ATOM     31  C   UNL     1       5.305   5.608  19.063  0.00  0.00    +0.000 A 
ATOM     32  C   UNL     1       3.922   5.619  18.806  0.00  0.00    +0.000 A 
ATOM     33  C   UNL     1       3.486   5.004  17.630  0.00  0.00    +0.000 A 
ATOM     34  C   UNL     1       4.417   4.477  16.703  0.00  0.00    +0.000 A 
BRANCH  29  36
ATOM     35  C   UNL     1       6.438   3.923  14.764  0.00  0.00    +0.000 C 
ATOM     36  O   UNL     1       6.797   4.155  16.115  0.00  0.00    +0.000 OA
ENDBRANCH  29  36
ENDBRANCH  25  32
ENDBRANCH   1  26
TORSDOF 7
ENDMDL
MODEL 3
REMARK VINA RESULT:      -7.5      8.417     11.803
REMARK  Name = 
REMARK  8 active torsions:
REMARK  status: ('A' for Active; 'I' for Inactive)
REMARK    1  A    between atoms: C_1  and  O_2
REMARK    2  A    between atoms: O_2  and  C_3
REMARK    3  A    between atoms: C_6  and  N_7
REMARK    4  A    between atoms: C_8  and  C_10
REMARK    5  A    between atoms: C_14  and  C_15
REMARK    6  A    between atoms: C_15  and  O_16
REMARK    7  A    between atoms: N_19  and  C_20
REMARK    8  A    between atoms: C_20  and  C_21
REMARK                            x       y       z     vdW  Elec       q    Type
REMARK                         _______ _______ _______ _____ _____    ______ ____
ROOT
ATOM      1  C   UNL     1       9.094  10.267  18.450  0.00  0.00    +0.000 A 
ATOM      2  C   UNL     1       8.020  10.016  17.617  0.00  0.00    +0.000 A 
ATOM      3  C   UNL     1       7.654   8.686  17.775  0.00  0.00    +0.000 A 
ATOM      4  C   UNL     1       6.595   7.942  17.248  0.00  0.00    +0.000 A 
ATOM      5  C   UNL     1       6.372   6.618  17.655  0.00  0.00    +0.000 A 
ATOM      6  C   UNL     1       7.334   6.039  18.505  0.00  0.00    +0.000 A 
ATOM      7  C   UNL     1       8.452   6.768  19.019  0.00  0.00    +0.000 A 
ATOM      8  C   UNL     1       8.554   8.123  18.663  0.00  0.00    +0.000 A 
ATOM      9  O   UNL     1       9.467   9.097  19.081  0.00  0.00    +0.000 OA
ENDROOT
BRANCH   5  10
ATOM     10  C   UNL     1       5.070   5.967  17.141  0.00  0.00    +0.000 C 
ATOM     11  C   UNL     1       5.080   4.437  17.001  0.00  0.00    +0.000 C 
ATOM     12  C   UNL     1       3.679   3.839  16.741  0.00  0.00    +0.000 C 
ATOM     13  N   UNL     1       2.715   4.286  17.761  0.00  0.00    +0.000 NA
ATOM     14  C   UNL     1       2.570   5.741  17.641  0.00  0.00    +0.000 C 
ATOM     15  C   UNL     1       3.885   6.396  18.045  0.00  0.00    +0.000 C 
BRANCH  10  16
ATOM     16  O   UNL     1       4.826   6.502  15.825  0.00  0.00    +0.000 OA
ATOM     17  H   UNL     1       5.650   6.923  15.523  0.00  0.00    +0.000 HD
ENDBRANCH  10  16
BRANCH  13  18
ATOM     18  C   UNL     1       1.390   3.627  17.700  0.00  0.00    +0.000 C 
BRANCH  18  19
ATOM     19  C   UNL     1       1.043   2.766  18.944  0.00  0.00    +0.000 C 
ATOM     20  C   UNL     1       2.158   1.771  19.310  0.00  0.00    +0.000 C 
ATOM     21  C   UNL     1       3.265   2.368  20.126  0.00  0.00    +0.000 C 
ATOM     22  C   UNL     1       3.086   3.427  20.917  0.00  0.00    +0.000 C 
ATOM     23  C   UNL     1       1.771   4.125  21.069  0.00  0.00    +0.000 C 
ATOM     24  C   UNL     1       0.637   3.620  20.166  0.00  0.00    +0.000 C 
ENDBRANCH  18  19
ENDBRANCH  13  18
ENDBRANCH   5  10
BRANCH   1  26
ATOM     25  N   UNL     1      10.635  11.946  19.494  0.00  0.00    +0.000 N 
ATOM     26  C   UNL     1       9.622  11.616  18.592  0.00  0.00    +0.000 C 
ATOM     27  O   UNL     1       9.147  12.473  17.839  0.00  0.00    +0.000 OA
ATOM     28  H   UNL     1      11.197  11.196  19.873  0.00  0.00    +0.000 HD
BRANCH  25  32
ATOM     29  C   UNL     1      11.764  16.055  19.816  0.00  0.00    +0.000 A 
ATOM     30  C   UNL     1      10.892  15.493  20.734  0.00  0.00    +0.000 A 
ATOM     31  C   UNL     1      10.579  14.135  20.668  0.00  0.00    +0.000 A 
ATOM     32  C   UNL     1      11.075  13.304  19.648  0.00  0.00    +0.000 A 
ATOM     33  C   UNL     1      11.994  13.865  18.757  0.00  0.00    +0.000 A 
ATOM     34  C   UNL     1      12.330  15.237  18.836  0.00  0.00    +0.000 A 
BRANCH  29  36
ATOM     35  C   UNL     1      10.770  18.203  19.825  0.00  0.00    +0.000 C 
ATOM     36  O   UNL     1      11.933  17.405  19.959  0.00  0.00    +0.000 OA
ENDBRANCH  29  36
ENDBRANCH  25  32
ENDBRANCH   1  26
TORSDOF 7
ENDMDL
MODEL 4
REMARK VINA RESULT:      -7.5      3.090      4.731
REMARK  Name = 
REMARK  8 active torsions:
REMARK  status: ('A' for Active; 'I' for Inactive)
REMARK    1  A    between atoms: C_1  and  O_2
REMARK    2  A    between atoms: O_2  and  C_3
REMARK    3  A    between atoms: C_6  and  N_7
REMARK    4  A    between atoms: C_8  and  C_10
REMARK    5  A    between atoms: C_14  and  C_15
REMARK    6  A    between atoms: C_15  and  O_16
REMARK    7  A    between atoms: N_19  and  C_20
REMARK    8  A    between atoms: C_20  and  C_21
REMARK                            x       y       z     vdW  Elec       q    Type
REMARK                         _______ _______ _______ _____ _____    ______ ____
ROOT
ATOM      1  C   UNL     1       1.676   7.836  20.244  0.00  0.00    +0.000 A 
ATOM      2  C   UNL     1       1.234   9.003  19.649  0.00  0.00    +0.000 A 
ATOM      3  C   UNL     1       0.496   9.712  20.588  0.00  0.00    +0.000 A 
ATOM      4  C   UNL     1      -0.096  10.977  20.546  0.00  0.00    +0.000 A 
ATOM      5  C   UNL     1      -0.703  11.527  21.685  0.00  0.00    +0.000 A 
ATOM      6  C   UNL     1      -0.805  10.699  22.819  0.00  0.00    +0.000 A 
ATOM      7  C   UNL     1      -0.247   9.382  22.869  0.00  0.00    +0.000 A 
ATOM      8  C   UNL     1       0.447   8.935  21.732  0.00  0.00    +0.000 A 
ATOM      9  O   UNL     1       1.168   7.754  21.525  0.00  0.00    +0.000 OA
ENDROOT
BRANCH   5  10
ATOM     10  C   UNL     1      -1.157  12.997  21.561  0.00  0.00    +0.000 C 
ATOM     11  C   UNL     1      -0.711  13.948  22.682  0.00  0.00    +0.000 C 
ATOM     12  C   UNL     1      -0.971  15.437  22.360  0.00  0.00    +0.000 C 
ATOM     13  N   UNL     1      -0.381  15.808  21.064  0.00  0.00    +0.000 NA
ATOM     14  C   UNL     1      -1.060  15.037  20.017  0.00  0.00    +0.000 C 
ATOM     15  C   UNL     1      -0.705  13.565  20.191  0.00  0.00    +0.000 C 
BRANCH  10  16
ATOM     16  O   UNL     1      -2.598  12.992  21.572  0.00  0.00    +0.000 OA
ATOM     17  H   UNL     1      -2.884  12.527  22.379  0.00  0.00    +0.000 HD
ENDBRANCH  10  16
BRANCH  13  18
ATOM     18  C   UNL     1      -0.424  17.256  20.750  0.00  0.00    +0.000 C 
BRANCH  18  19
ATOM     19  C   UNL     1       0.962  17.889  20.452  0.00  0.00    +0.000 C 
ATOM     20  C   UNL     1       2.131  16.937  20.758  0.00  0.00    +0.000 C 
ATOM     21  C   UNL     1       2.427  15.961  19.660  0.00  0.00    +0.000 C 
ATOM     22  C   UNL     1       2.138  16.207  18.382  0.00  0.00    +0.000 C 
ATOM     23  C   UNL     1       1.490  17.473  17.915  0.00  0.00    +0.000 C 
ATOM     24  C   UNL     1       1.065  18.452  19.017  0.00  0.00    +0.000 C 
ENDBRANCH  18  19
ENDBRANCH  13  18
ENDBRANCH   5  10
BRANCH   1  26
ATOM     25  N   UNL     1       3.004   7.167  18.226  0.00  0.00    +0.000 N 
ATOM     26  C   UNL     1       2.581   6.942  19.538  0.00  0.00    +0.000 C 
ATOM     27  O   UNL     1       2.998   5.968  20.174  0.00  0.00    +0.000 OA
ATOM     28  H   UNL     1       2.893   8.096  17.844  0.00  0.00    +0.000 HD
BRANCH  25  32
ATOM     29  C   UNL     1       5.384   4.400  16.003  0.00  0.00    +0.000 A 
ATOM     30  C   UNL     1       5.769   5.726  16.112  0.00  0.00    +0.000 A 
ATOM     31  C   UNL     1       5.028   6.611  16.896  0.00  0.00    +0.000 A 
ATOM     32  C   UNL     1       3.843   6.221  17.547  0.00  0.00    +0.000 A 
ATOM     33  C   UNL     1       3.490   4.871  17.474  0.00  0.00    +0.000 A 
ATOM     34  C   UNL     1       4.254   3.966  16.699  0.00  0.00    +0.000 A 
BRANCH  29  36
ATOM     35  C   UNL     1       6.061   3.966  13.778  0.00  0.00    +0.000 C 
ATOM     36  O   UNL     1       6.163   3.659  15.157  0.00  0.00    +0.000 OA
ENDBRANCH  29  36
ENDBRANCH  25  32
ENDBRANCH   1  26
TORSDOF 7
ENDMDL
MODEL 5
REMARK VINA RESULT:      -7.5      8.370     11.719
REMARK  Name = 
REMARK  8 active torsions:
REMARK  status: ('A' for Active; 'I' for Inactive)
REMARK    1  A    between atoms: C_1  and  O_2
REMARK    2  A    between atoms: O_2  and  C_3
REMARK    3  A    between atoms: C_6  and  N_7
REMARK    4  A    between atoms: C_8  and  C_10
REMARK    5  A    between atoms: C_14  and  C_15
REMARK    6  A    between atoms: C_15  and  O_16
REMARK    7  A    between atoms: N_19  and  C_20
REMARK    8  A    between atoms: C_20  and  C_21
REMARK                            x       y       z     vdW  Elec       q    Type
REMARK                         _______ _______ _______ _____ _____    ______ ____
ROOT
ATOM      1  C   UNL     1       9.024  10.297  18.360  0.00  0.00    +0.000 A 
ATOM      2  C   UNL     1       7.979   9.982  17.513  0.00  0.00    +0.000 A 
ATOM      3  C   UNL     1       7.627   8.657  17.736  0.00  0.00    +0.000 A 
ATOM      4  C   UNL     1       6.595   7.868  17.223  0.00  0.00    +0.000 A 
ATOM      5  C   UNL     1       6.378   6.566  17.699  0.00  0.00    +0.000 A 
ATOM      6  C   UNL     1       7.322   6.052  18.607  0.00  0.00    +0.000 A 
ATOM      7  C   UNL     1       8.415   6.826  19.110  0.00  0.00    +0.000 A 
ATOM      8  C   UNL     1       8.508   8.161  18.680  0.00  0.00    +0.000 A 
ATOM      9  O   UNL     1       9.395   9.170  19.067  0.00  0.00    +0.000 OA
ENDROOT
BRANCH   5  10
ATOM     10  C   UNL     1       5.101   5.867  17.186  0.00  0.00    +0.000 C 
ATOM     11  C   UNL     1       5.129   4.331  17.151  0.00  0.00    +0.000 C 
ATOM     12  C   UNL     1       3.744   3.700  16.885  0.00  0.00    +0.000 C 
ATOM     13  N   UNL     1       2.741   4.205  17.837  0.00  0.00    +0.000 NA
ATOM     14  C   UNL     1       2.587   5.647  17.613  0.00  0.00    +0.000 C 
ATOM     15  C   UNL     1       3.881   6.343  18.017  0.00  0.00    +0.000 C 
BRANCH  10  16
ATOM     16  O   UNL     1       4.899   6.308  15.829  0.00  0.00    +0.000 OA
ATOM     17  H   UNL     1       5.408   5.715  15.248  0.00  0.00    +0.000 HD
ENDBRANCH  10  16
BRANCH  13  18
ATOM     18  C   UNL     1       1.425   3.528  17.776  0.00  0.00    +0.000 C 
BRANCH  18  19
ATOM     19  C   UNL     1       0.969   2.889  19.116  0.00  0.00    +0.000 C 
ATOM     20  C   UNL     1       1.911   1.770  19.593  0.00  0.00    +0.000 C 
ATOM     21  C   UNL     1       3.120   2.263  20.329  0.00  0.00    +0.000 C 
ATOM     22  C   UNL     1       3.139   3.422  20.989  0.00  0.00    +0.000 C 
ATOM     23  C   UNL     1       1.963   4.344  21.061  0.00  0.00    +0.000 C 
ATOM     24  C   UNL     1       0.740   3.935  20.229  0.00  0.00    +0.000 C 
ENDBRANCH  18  19
ENDBRANCH  13  18
ENDBRANCH   5  10
BRANCH   1  26
ATOM     25  N   UNL     1       8.772  12.774  18.075  0.00  0.00    +0.000 N 
ATOM     26  C   UNL     1       9.528  11.659  18.440  0.00  0.00    +0.000 C 
ATOM     27  O   UNL     1      10.673  11.796  18.887  0.00  0.00    +0.000 OA
ATOM     28  H   UNL     1       7.770  12.664  18.000  0.00  0.00    +0.000 HD
BRANCH  25  32
ATOM     29  C   UNL     1      10.570  16.640  18.358  0.00  0.00    +0.000 A 
ATOM     30  C   UNL     1      11.187  15.631  17.637  0.00  0.00    +0.000 A 
ATOM     31  C   UNL     1      10.564  14.392  17.488  0.00  0.00    +0.000 A 
ATOM     32  C   UNL     1       9.336  14.094  18.105  0.00  0.00    +0.000 A 
ATOM     33  C   UNL     1       8.696  15.132  18.787  0.00  0.00    +0.000 A 
ATOM     34  C   UNL     1       9.315  16.398  18.920  0.00  0.00    +0.000 A 
BRANCH  29  36
ATOM     35  C   UNL     1      11.401  18.600  17.323  0.00  0.00    +0.000 C 
ATOM     36  O   UNL     1      11.317  17.780  18.476  0.00  0.00    +0.000 OA
ENDBRANCH  29  36
ENDBRANCH  25  32
ENDBRANCH   1  26
TORSDOF 7
ENDMDL
MODEL 6
REMARK VINA RESULT:      -7.4      1.245      2.057
REMARK  Name = 
REMARK  8 active torsions:
REMARK  status: ('A' for Active; 'I' for Inactive)
REMARK    1  A    between atoms: C_1  and  O_2
REMARK    2  A    between atoms: O_2  and  C_3
REMARK    3  A    between atoms: C_6  and  N_7
REMARK    4  A    between atoms: C_8  and  C_10
REMARK    5  A    between atoms: C_14  and  C_15
REMARK    6  A    between atoms: C_15  and  O_16
REMARK    7  A    between atoms: N_19  and  C_20
REMARK    8  A    between atoms: C_20  and  C_21
REMARK                            x       y       z     vdW  Elec       q    Type
REMARK                         _______ _______ _______ _____ _____    ______ ____
ROOT
ATOM      1  C   UNL     1       1.511   8.362  19.721  0.00  0.00    +0.000 A 
ATOM      2  C   UNL     1       0.697   9.431  19.399  0.00  0.00    +0.000 A 
ATOM      3  C   UNL     1       0.110   9.894  20.570  0.00  0.00    +0.000 A 
ATOM      4  C   UNL     1      -0.717  10.989  20.828  0.00  0.00    +0.000 A 
ATOM      5  C   UNL     1      -1.094  11.315  22.140  0.00  0.00    +0.000 A 
ATOM      6  C   UNL     1      -0.716  10.416  23.156  0.00  0.00    +0.000 A 
ATOM      7  C   UNL     1       0.090   9.261  22.907  0.00  0.00    +0.000 A 
ATOM      8  C   UNL     1       0.530   9.056  21.588  0.00  0.00    +0.000 A 
ATOM      9  O   UNL     1       1.394   8.086  21.069  0.00  0.00    +0.000 OA
ENDROOT
BRANCH   5  10
ATOM     10  C   UNL     1      -1.855  12.647  22.310  0.00  0.00    +0.000 C 
ATOM     11  C   UNL     1      -2.545  13.205  21.056  0.00  0.00    +0.000 C 
ATOM     12  C   UNL     1      -3.498  14.384  21.358  0.00  0.00    +0.000 C 
ATOM     13  N   UNL     1      -4.472  14.024  22.401  0.00  0.00    +0.000 NA
ATOM     14  C   UNL     1      -3.734  13.764  23.642  0.00  0.00    +0.000 C 
ATOM     15  C   UNL     1      -2.893  12.507  23.453  0.00  0.00    +0.000 C 
BRANCH  10  16
ATOM     16  O   UNL     1      -0.887  13.632  22.723  0.00  0.00    +0.000 OA
ATOM     17  H   UNL     1      -1.278  14.138  23.457  0.00  0.00    +0.000 HD
ENDBRANCH  10  16
BRANCH  13  18
ATOM     18  C   UNL     1      -5.538  15.026  22.633  0.00  0.00    +0.000 C 
BRANCH  18  19
ATOM     19  C   UNL     1      -5.159  16.474  22.222  0.00  0.00    +0.000 C 
ATOM     20  C   UNL     1      -6.279  17.185  21.443  0.00  0.00    +0.000 C 
ATOM     21  C   UNL     1      -7.337  17.792  22.313  0.00  0.00    +0.000 C 
ATOM     22  C   UNL     1      -7.102  18.181  23.568  0.00  0.00    +0.000 C 
ATOM     23  C   UNL     1      -5.767  18.050  24.231  0.00  0.00    +0.000 C 
ATOM     24  C   UNL     1      -4.684  17.329  23.417  0.00  0.00    +0.000 C 
ENDBRANCH  18  19
ENDBRANCH  13  18
ENDBRANCH   5  10
BRANCH   1  26
ATOM     25  N   UNL     1       2.895   6.464  18.847  0.00  0.00    +0.000 N 
ATOM     26  C   UNL     1       2.356   7.744  18.710  0.00  0.00    +0.000 C 
ATOM     27  O   UNL     1       2.555   8.403  17.683  0.00  0.00    +0.000 OA
ATOM     28  H   UNL     1       2.486   5.847  19.536  0.00  0.00    +0.000 HD
BRANCH  25  32
ATOM     29  C   UNL     1       5.665   4.773  16.066  0.00  0.00    +0.000 A 
ATOM     30  C   UNL     1       4.605   4.021  16.545  0.00  0.00    +0.000 A 
ATOM     31  C   UNL     1       3.663   4.597  17.398  0.00  0.00    +0.000 A 
ATOM     32  C   UNL     1       3.779   5.922  17.853  0.00  0.00    +0.000 A 
ATOM     33  C   UNL     1       4.821   6.690  17.326  0.00  0.00    +0.000 A 
ATOM     34  C   UNL     1       5.765   6.115  16.442  0.00  0.00    +0.000 A 
BRANCH  29  36
ATOM     35  C   UNL     1       6.256   4.014  13.904  0.00  0.00    +0.000 C 
ATOM     36  O   UNL     1       6.545   4.070  15.290  0.00  0.00    +0.000 OA
ENDBRANCH  29  36
ENDBRANCH  25  32
ENDBRANCH   1  26
TORSDOF 7
ENDMDL
MODEL 7
REMARK VINA RESULT:      -7.4      3.584     12.938
REMARK  Name = 
REMARK  8 active torsions:
REMARK  status: ('A' for Active; 'I' for Inactive)
REMARK    1  A    between atoms: C_1  and  O_2
REMARK    2  A    between atoms: O_2  and  C_3
REMARK    3  A    between atoms: C_6  and  N_7
REMARK    4  A    between atoms: C_8  and  C_10
REMARK    5  A    between atoms: C_14  and  C_15
REMARK    6  A    between atoms: C_15  and  O_16
REMARK    7  A    between atoms: N_19  and  C_20
REMARK    8  A    between atoms: C_20  and  C_21
REMARK                            x       y       z     vdW  Elec       q    Type
REMARK                         _______ _______ _______ _____ _____    ______ ____
ROOT
ATOM      1  C   UNL     1       0.140   9.603  18.692  0.00  0.00    +0.000 A 
ATOM      2  C   UNL     1       1.127   9.345  17.759  0.00  0.00    +0.000 A 
ATOM      3  C   UNL     1       1.977   8.382  18.286  0.00  0.00    +0.000 A 
ATOM      4  C   UNL     1       3.070   7.704  17.741  0.00  0.00    +0.000 A 
ATOM      5  C   UNL     1       3.708   6.676  18.451  0.00  0.00    +0.000 A 
ATOM      6  C   UNL     1       3.286   6.455  19.776  0.00  0.00    +0.000 A 
ATOM      7  C   UNL     1       2.200   7.171  20.371  0.00  0.00    +0.000 A 
ATOM      8  C   UNL     1       1.530   8.108  19.566  0.00  0.00    +0.000 A 
ATOM      9  O   UNL     1       0.392   8.875  19.837  0.00  0.00    +0.000 OA
ENDROOT
BRANCH   5  10
ATOM     10  C   UNL     1       4.781   5.885  17.671  0.00  0.00    +0.000 C 
ATOM     11  C   UNL     1       4.625   4.357  17.652  0.00  0.00    +0.000 C 
ATOM     12  C   UNL     1       5.568   3.660  16.645  0.00  0.00    +0.000 C 
ATOM     13  N   UNL     1       5.425   4.239  15.299  0.00  0.00    +0.000 NA
ATOM     14  C   UNL     1       5.853   5.641  15.359  0.00  0.00    +0.000 C 
ATOM     15  C   UNL     1       4.858   6.416  16.216  0.00  0.00    +0.000 C 
BRANCH  10  16
ATOM     16  O   UNL     1       6.047   6.165  18.301  0.00  0.00    +0.000 OA
ATOM     17  H   UNL     1       6.019   5.784  19.197  0.00  0.00    +0.000 HD
ENDBRANCH  10  16
BRANCH  13  18
ATOM     18  C   UNL     1       6.156   3.521  14.229  0.00  0.00    +0.000 C 
BRANCH  18  19
ATOM     19  C   UNL     1       5.906   4.071  12.799  0.00  0.00    +0.000 C 
ATOM     20  C   UNL     1       7.161   4.016  11.911  0.00  0.00    +0.000 C 
ATOM     21  C   UNL     1       7.397   2.681  11.272  0.00  0.00    +0.000 C 
ATOM     22  C   UNL     1       6.411   1.819  11.018  0.00  0.00    +0.000 C 
ATOM     23  C   UNL     1       4.977   2.094  11.344  0.00  0.00    +0.000 C 
ATOM     24  C   UNL     1       4.702   3.399  12.103  0.00  0.00    +0.000 C 
ENDBRANCH  18  19
ENDBRANCH  13  18
ENDBRANCH   5  10
BRANCH   1  26
ATOM     25  N   UNL     1      -2.303  10.073  18.389  0.00  0.00    +0.000 N 
ATOM     26  C   UNL     1      -0.970  10.486  18.369  0.00  0.00    +0.000 C 
ATOM     27  O   UNL     1      -0.680  11.658  18.103  0.00  0.00    +0.000 OA
ATOM     28  H   UNL     1      -2.529   9.221  18.885  0.00  0.00    +0.000 HD
BRANCH  25  32
ATOM     29  C   UNL     1      -5.604  12.541  17.259  0.00  0.00    +0.000 A 
ATOM     30  C   UNL     1      -5.192  12.482  18.581  0.00  0.00    +0.000 A 
ATOM     31  C   UNL     1      -4.072  11.730  18.935  0.00  0.00    +0.000 A 
ATOM     32  C   UNL     1      -3.360  10.961  17.996  0.00  0.00    +0.000 A 
ATOM     33  C   UNL     1      -3.749  11.067  16.659  0.00  0.00    +0.000 A 
ATOM     34  C   UNL     1      -4.872  11.848  16.293  0.00  0.00    +0.000 A 
BRANCH  29  36
ATOM     35  C   UNL     1      -7.341  13.832  18.216  0.00  0.00    +0.000 C 
ATOM     36  O   UNL     1      -6.749  13.263  17.062  0.00  0.00    +0.000 OA
ENDBRANCH  29  36
ENDBRANCH  25  32
ENDBRANCH   1  26
TORSDOF 7
ENDMDL
MODEL 8
REMARK VINA RESULT:      -7.4      2.301      3.773
REMARK  Name = 
REMARK  8 active torsions:
REMARK  status: ('A' for Active; 'I' for Inactive)
REMARK    1  A    between atoms: C_1  and  O_2
REMARK    2  A    between atoms: O_2  and  C_3
REMARK    3  A    between atoms: C_6  and  N_7
REMARK    4  A    between atoms: C_8  and  C_10
REMARK    5  A    between atoms: C_14  and  C_15
REMARK    6  A    between atoms: C_15  and  O_16
REMARK    7  A    between atoms: N_19  and  C_20
REMARK    8  A    between atoms: C_20  and  C_21
REMARK                            x       y       z     vdW  Elec       q    Type
REMARK                         _______ _______ _______ _____ _____    ______ ____
ROOT
ATOM      1  C   UNL     1       1.670   8.179  19.536  0.00  0.00    +0.000 A 
ATOM      2  C   UNL     1       0.808   9.217  19.238  0.00  0.00    +0.000 A 
ATOM      3  C   UNL     1       0.263   9.679  20.429  0.00  0.00    +0.000 A 
ATOM      4  C   UNL     1      -0.586  10.752  20.712  0.00  0.00    +0.000 A 
ATOM      5  C   UNL     1      -0.911  11.085  22.035  0.00  0.00    +0.000 A 
ATOM      6  C   UNL     1      -0.456  10.215  23.044  0.00  0.00    +0.000 A 
ATOM      7  C   UNL     1       0.374   9.082  22.773  0.00  0.00    +0.000 A 
ATOM      8  C   UNL     1       0.757   8.871  21.438  0.00  0.00    +0.000 A 
ATOM      9  O   UNL     1       1.626   7.921  20.891  0.00  0.00    +0.000 OA
ENDROOT
BRANCH   5  10
ATOM     10  C   UNL     1      -1.705  12.395  22.223  0.00  0.00    +0.000 C 
ATOM     11  C   UNL     1      -0.959  13.557  22.898  0.00  0.00    +0.000 C 
ATOM     12  C   UNL     1      -1.717  14.901  22.812  0.00  0.00    +0.000 C 
ATOM     13  N   UNL     1      -2.075  15.219  21.420  0.00  0.00    +0.000 NA
ATOM     14  C   UNL     1      -3.007  14.190  20.944  0.00  0.00    +0.000 C 
ATOM     15  C   UNL     1      -2.262  12.864  20.854  0.00  0.00    +0.000 C 
BRANCH  10  16
ATOM     16  O   UNL     1      -2.833  12.083  23.065  0.00  0.00    +0.000 OA
ATOM     17  H   UNL     1      -3.071  11.153  22.904  0.00  0.00    +0.000 HD
ENDBRANCH  10  16
BRANCH  13  18
ATOM     18  C   UNL     1      -2.648  16.570  21.215  0.00  0.00    +0.000 C 
BRANCH  18  19
ATOM     19  C   UNL     1      -1.599  17.668  20.892  0.00  0.00    +0.000 C 
ATOM     20  C   UNL     1      -0.208  17.091  20.577  0.00  0.00    +0.000 C 
ATOM     21  C   UNL     1      -0.046  16.628  19.161  0.00  0.00    +0.000 C 
ATOM     22  C   UNL     1      -0.758  17.134  18.152  0.00  0.00    +0.000 C 
ATOM     23  C   UNL     1      -1.786  18.207  18.329  0.00  0.00    +0.000 C 
ATOM     24  C   UNL     1      -2.067  18.631  19.778  0.00  0.00    +0.000 C 
ENDBRANCH  18  19
ENDBRANCH  13  18
ENDBRANCH   5  10
BRANCH   1  26
ATOM     25  N   UNL     1       3.084   6.319  18.628  0.00  0.00    +0.000 N 
ATOM     26  C   UNL     1       2.485   7.573  18.494  0.00  0.00    +0.000 C 
ATOM     27  O   UNL     1       2.602   8.215  17.444  0.00  0.00    +0.000 OA
ATOM     28  H   UNL     1       2.739   5.703  19.351  0.00  0.00    +0.000 HD
BRANCH  25  32
ATOM     29  C   UNL     1       5.779   4.693  15.737  0.00  0.00    +0.000 A 
ATOM     30  C   UNL     1       4.830   3.886  16.344  0.00  0.00    +0.000 A 
ATOM     31  C   UNL     1       3.907   4.433  17.235  0.00  0.00    +0.000 A 
ATOM     32  C   UNL     1       3.937   5.791  17.600  0.00  0.00    +0.000 A 
ATOM     33  C   UNL     1       4.862   6.608  16.947  0.00  0.00    +0.000 A 
ATOM     34  C   UNL     1       5.785   6.059  16.025  0.00  0.00    +0.000 A 
BRANCH  29  36
ATOM     35  C   UNL     1       7.153   4.723  13.811  0.00  0.00    +0.000 C 
ATOM     36  O   UNL     1       6.658   4.017  14.936  0.00  0.00    +0.000 OA
ENDBRANCH  29  36
ENDBRANCH  25  32
ENDBRANCH   1  26
TORSDOF 7
ENDMDL
MODEL 9
REMARK VINA RESULT:      -7.2      1.287      1.706
REMARK  Name = 
REMARK  8 active torsions:
REMARK  status: ('A' for Active; 'I' for Inactive)
REMARK    1  A    between atoms: C_1  and  O_2
REMARK    2  A    between atoms: O_2  and  C_3
REMARK    3  A    between atoms: C_6  and  N_7
REMARK    4  A    between atoms: C_8  and  C_10
REMARK    5  A    between atoms: C_14  and  C_15
REMARK    6  A    between atoms: C_15  and  O_16
REMARK    7  A    between atoms: N_19  and  C_20
REMARK    8  A    between atoms: C_20  and  C_21
REMARK                            x       y       z     vdW  Elec       q    Type
REMARK                         _______ _______ _______ _____ _____    ______ ____
ROOT
ATOM      1  C   UNL     1       2.207   7.240  19.251  0.00  0.00    +0.000 A 
ATOM      2  C   UNL     1       1.544   8.389  18.863  0.00  0.00    +0.000 A 
ATOM      3  C   UNL     1       1.037   9.000  20.002  0.00  0.00    +0.000 A 
ATOM      4  C   UNL     1       0.371  10.213  20.192  0.00  0.00    +0.000 A 
ATOM      5  C   UNL     1       0.054  10.668  21.480  0.00  0.00    +0.000 A 
ATOM      6  C   UNL     1       0.314   9.790  22.551  0.00  0.00    +0.000 A 
ATOM      7  C   UNL     1       0.952   8.522  22.375  0.00  0.00    +0.000 A 
ATOM      8  C   UNL     1       1.347   8.177  21.071  0.00  0.00    +0.000 A 
ATOM      9  O   UNL     1       2.065   7.067  20.613  0.00  0.00    +0.000 OA
ENDROOT
BRANCH   5  10
ATOM     10  C   UNL     1      -0.515  12.100  21.567  0.00  0.00    +0.000 C 
ATOM     11  C   UNL     1      -1.394  12.559  20.393  0.00  0.00    +0.000 C 
ATOM     12  C   UNL     1      -2.137  13.885  20.669  0.00  0.00    +0.000 C 
ATOM     13  N   UNL     1      -2.902  13.812  21.925  0.00  0.00    +0.000 NA
ATOM     14  C   UNL     1      -1.949  13.638  23.027  0.00  0.00    +0.000 C 
ATOM     15  C   UNL     1      -1.299  12.266  22.895  0.00  0.00    +0.000 C 
BRANCH  10  16
ATOM     16  O   UNL     1       0.612  12.996  21.615  0.00  0.00    +0.000 OA
ATOM     17  H   UNL     1       0.938  13.107  20.704  0.00  0.00    +0.000 HD
ENDBRANCH  10  16
BRANCH  13  18
ATOM     18  C   UNL     1      -3.788  14.970  22.186  0.00  0.00    +0.000 C 
BRANCH  18  19
ATOM     19  C   UNL     1      -5.207  14.844  21.569  0.00  0.00    +0.000 C 
ATOM     20  C   UNL     1      -5.862  13.481  21.854  0.00  0.00    +0.000 C 
ATOM     21  C   UNL     1      -6.521  13.390  23.197  0.00  0.00    +0.000 C 
ATOM     22  C   UNL     1      -6.992  14.458  23.842  0.00  0.00    +0.000 C 
ATOM     23  C   UNL     1      -6.909  15.849  23.296  0.00  0.00    +0.000 C 
ATOM     24  C   UNL     1      -6.141  16.005  21.977  0.00  0.00    +0.000 C 
ENDBRANCH  18  19
ENDBRANCH  13  18
ENDBRANCH   5  10
BRANCH   1  26
ATOM     25  N   UNL     1       4.315   6.620  18.044  0.00  0.00    +0.000 N 
ATOM     26  C   UNL     1       2.949   6.450  18.280  0.00  0.00    +0.000 C 
ATOM     27  O   UNL     1       2.313   5.576  17.681  0.00  0.00    +0.000 OA
ATOM     28  H   UNL     1       4.858   7.117  18.737  0.00  0.00    +0.000 HD
BRANCH  25  32
ATOM     29  C   UNL     1       6.115   4.294  14.944  0.00  0.00    +0.000 A 
ATOM     30  C   UNL     1       5.729   5.603  14.705  0.00  0.00    +0.000 A 
ATOM     31  C   UNL     1       5.206   6.382  15.737  0.00  0.00    +0.000 A 
ATOM     32  C   UNL     1       4.990   5.865  17.027  0.00  0.00    +0.000 A 
ATOM     33  C   UNL     1       5.428   4.561  17.274  0.00  0.00    +0.000 A 
ATOM     34  C   UNL     1       5.981   3.777  16.234  0.00  0.00    +0.000 A 
BRANCH  29  36
ATOM     35  C   UNL     1       5.677   3.620  12.718  0.00  0.00    +0.000 C 
ATOM     36  O   UNL     1       6.552   3.628  13.832  0.00  0.00    +0.000 OA
ENDBRANCH  29  36
ENDBRANCH  25  32
ENDBRANCH   1  26
TORSDOF 7
ENDMDL
