MODEL 1
REMARK VINA RESULT:      -7.6      0.000      0.000
REMARK  Name = 
REMARK  5 active torsions:
REMARK  status: ('A' for Active; 'I' for Inactive)
REMARK    1  A    between atoms: C_2  and  C_18
REMARK    2  A    between atoms: N_3  and  C_4
REMARK    3  A    between atoms: C_4  and  C_5
REMARK    4  A    between atoms: C_5  and  N_6
REMARK    5  A    between atoms: N_9  and  C_10
REMARK                            x       y       z     vdW  Elec       q    Type
REMARK                         _______ _______ _______ _____ _____    ______ ____
ROOT
ATOM      1  C   UNL     1       7.611   7.278  17.270  0.00  0.00    +0.000 C 
ENDROOT
BRANCH   1   2
ATOM      2  N   UNL     1       7.212   5.929  17.719  0.00  0.00    +0.000 NA
ATOM      3  C   UNL     1       6.104   5.960  18.701  0.00  0.00    +0.000 C 
ATOM      4  C   UNL     1       4.737   6.339  18.099  0.00  0.00    +0.000 C 
ATOM      5  N   UNL     1       4.342   5.351  17.089  0.00  0.00    +0.000 N 
ATOM      6  C   UNL     1       5.353   5.150  16.029  0.00  0.00    +0.000 C 
ATOM      7  C   UNL     1       6.808   5.044  16.591  0.00  0.00    +0.000 C 
BRANCH   5   8
ATOM      8  C   UNL     1       3.495   4.306  17.444  0.00  0.00    +0.000 A 
ATOM      9  C   UNL     1       2.167   4.566  17.815  0.00  0.00    +0.000 A 
ATOM     10  C   UNL     1       1.323   3.549  18.283  0.00  0.00    +0.000 A 
ATOM     11  C   UNL     1       1.782   2.239  18.371  0.00  0.00    +0.000 A 
ATOM     12  C   UNL     1       3.084   1.948  17.989  0.00  0.00    +0.000 A 
ATOM     13  C   UNL     1       3.925   2.971  17.540  0.00  0.00    +0.000 A 
ENDBRANCH   5   8
ENDBRANCH   1   2
BRANCH   1  14
ATOM     14  C   UNL     1       8.241   8.129  18.406  0.00  0.00    +0.000 C 
BRANCH  14  17
ATOM     15  O   UNL     1       9.257  10.097  20.122  0.00  0.00    +0.000 OA
ATOM     16  C   UNL     1       9.134  10.355  18.928  0.00  0.00    +0.000 C 
ATOM     17  N   UNL     1       8.547   9.492  18.024  0.00  0.00    +0.000 N 
ATOM     18  H   UNL     1       8.657   9.736  17.041  0.00  0.00    +0.000 HD
BRANCH  16  19
ATOM     19  C   UNL     1       9.644  11.641  18.366  0.00  0.00    +0.000 A 
ATOM     20  C   UNL     1      10.871  11.645  17.713  0.00  0.00    +0.000 A 
ATOM     21  C   UNL     1      11.336  12.841  17.186  0.00  0.00    +0.000 A 
ATOM     22  C   UNL     1      10.561  13.989  17.327  0.00  0.00    +0.000 A 
ATOM     23  C   UNL     1       9.342  13.890  17.986  0.00  0.00    +0.000 A 
ATOM     24  N   UNL     1       8.859  12.745  18.519  0.00  0.00    +0.000 NA
ENDBRANCH  16  19
ENDBRANCH  14  17
ENDBRANCH   1  14
TORSDOF 5
ENDMDL
MODEL 2
REMARK VINA RESULT:      -7.2      1.627      1.997
REMARK  Name = 
REMARK  5 active torsions:
REMARK  status: ('A' for Active; 'I' for Inactive)
REMARK    1  A    between atoms: C_2  and  C_18
REMARK    2  A    between atoms: N_3  and  C_4
REMARK    3  A    between atoms: C_4  and  C_5
REMARK    4  A    between atoms: C_5  and  N_6
REMARK    5  A    between atoms: N_9  and  C_10
REMARK                            x       y       z     vdW  Elec       q    Type
REMARK                         _______ _______ _______ _____ _____    ______ ____
ROOT
ATOM      1  C   UNL     1       7.512   6.684  17.891  0.00  0.00    +0.000 C 
ENDROOT
BRANCH   1   2
ATOM      2  N   UNL     1       6.424   5.940  17.223  0.00  0.00    +0.000 NA
ATOM      3  C   UNL     1       6.223   4.590  17.797  0.00  0.00    +0.000 C 
ATOM      4  C   UNL     1       5.580   4.589  19.197  0.00  0.00    +0.000 C 
ATOM      5  N   UNL     1       4.245   5.197  19.137  0.00  0.00    +0.000 N 
ATOM      6  C   UNL     1       4.238   6.553  18.549  0.00  0.00    +0.000 C 
ATOM      7  C   UNL     1       5.123   6.663  17.266  0.00  0.00    +0.000 C 
BRANCH   5   8
ATOM      8  C   UNL     1       3.125   4.383  19.013  0.00  0.00    +0.000 A 
ATOM      9  C   UNL     1       2.041   4.531  19.892  0.00  0.00    +0.000 A 
ATOM     10  C   UNL     1       0.946   3.655  19.863  0.00  0.00    +0.000 A 
ATOM     11  C   UNL     1       0.899   2.620  18.935  0.00  0.00    +0.000 A 
ATOM     12  C   UNL     1       1.946   2.463  18.037  0.00  0.00    +0.000 A 
ATOM     13  C   UNL     1       3.043   3.330  18.085  0.00  0.00    +0.000 A 
ENDBRANCH   5   8
ENDBRANCH   1   2
BRANCH   1  14
ATOM     14  C   UNL     1       7.428   8.217  17.653  0.00  0.00    +0.000 C 
BRANCH  14  17
ATOM     15  O   UNL     1       7.817  10.976  17.364  0.00  0.00    +0.000 OA
ATOM     16  C   UNL     1       8.606  10.333  18.049  0.00  0.00    +0.000 C 
ATOM     17  N   UNL     1       8.561   8.958  18.167  0.00  0.00    +0.000 N 
ATOM     18  H   UNL     1       9.151   8.554  18.893  0.00  0.00    +0.000 HD
BRANCH  16  19
ATOM     19  C   UNL     1       9.676  11.020  18.833  0.00  0.00    +0.000 A 
ATOM     20  C   UNL     1      10.833  11.421  18.175  0.00  0.00    +0.000 A 
ATOM     21  C   UNL     1      11.820  12.066  18.907  0.00  0.00    +0.000 A 
ATOM     22  C   UNL     1      11.617  12.290  20.266  0.00  0.00    +0.000 A 
ATOM     23  C   UNL     1      10.425  11.864  20.838  0.00  0.00    +0.000 A 
ATOM     24  N   UNL     1       9.443  11.226  20.161  0.00  0.00    +0.000 NA
ENDBRANCH  16  19
ENDBRANCH  14  17
ENDBRANCH   1  14
TORSDOF 5
ENDMDL
MODEL 3
REMARK VINA RESULT:      -7.2      0.365      1.014
REMARK  Name = 
REMARK  5 active torsions:
REMARK  status: ('A' for Active; 'I' for Inactive)
REMARK    1  A    between atoms: C_2  and  C_18
REMARK    2  A    between atoms: N_3  and  C_4
REMARK    3  A    between atoms: C_4  and  C_5
REMARK    4  A    between atoms: C_5  and  N_6
REMARK    5  A    between atoms: N_9  and  C_10
REMARK                            x       y       z     vdW  Elec       q    Type
REMARK                         _______ _______ _______ _____ _____    ______ ____
ROOT
ATOM      1  C   UNL     1       7.485   7.276  17.278  0.00  0.00    +0.000 C 
ENDROOT
BRANCH   1   2
ATOM      2  N   UNL     1       7.088   5.922  17.714  0.00  0.00    +0.000 NA
ATOM      3  C   UNL     1       6.108   5.946  18.824  0.00  0.00    +0.000 C 
ATOM      4  C   UNL     1       4.695   6.400  18.410  0.00  0.00    +0.000 C 
ATOM      5  N   UNL     1       4.142   5.475  17.414  0.00  0.00    +0.000 N 
ATOM      6  C   UNL     1       5.010   5.290  16.231  0.00  0.00    +0.000 C 
ATOM      7  C   UNL     1       6.516   5.107  16.607  0.00  0.00    +0.000 C 
BRANCH   5   8
ATOM      8  C   UNL     1       3.303   4.445  17.825  0.00  0.00    +0.000 A 
ATOM      9  C   UNL     1       3.510   3.136  17.363  0.00  0.00    +0.000 A 
ATOM     10  C   UNL     1       2.619   2.099  17.670  0.00  0.00    +0.000 A 
ATOM     11  C   UNL     1       1.506   2.342  18.469  0.00  0.00    +0.000 A 
ATOM     12  C   UNL     1       1.288   3.622  18.960  0.00  0.00    +0.000 A 
ATOM     13  C   UNL     1       2.172   4.655  18.633  0.00  0.00    +0.000 A 
ENDBRANCH   5   8
ENDBRANCH   1   2
BRANCH   1  14
ATOM     14  C   UNL     1       8.256   8.060  18.374  0.00  0.00    +0.000 C 
BRANCH  14  17
ATOM     15  O   UNL     1       9.113  10.066  20.132  0.00  0.00    +0.000 OA
ATOM     16  C   UNL     1       9.127  10.288  18.925  0.00  0.00    +0.000 C 
ATOM     17  N   UNL     1       8.628   9.406  17.988  0.00  0.00    +0.000 N 
ATOM     18  H   UNL     1       8.850   9.617  17.016  0.00  0.00    +0.000 HD
BRANCH  16  19
ATOM     19  C   UNL     1       9.720  11.548  18.385  0.00  0.00    +0.000 A 
ATOM     20  C   UNL     1      11.039  11.532  17.948  0.00  0.00    +0.000 A 
ATOM     21  C   UNL     1      11.581  12.703  17.440  0.00  0.00    +0.000 A 
ATOM     22  C   UNL     1      10.790  13.847  17.384  0.00  0.00    +0.000 A 
ATOM     23  C   UNL     1       9.478  13.769  17.834  0.00  0.00    +0.000 A 
ATOM     24  N   UNL     1       8.916  12.649  18.343  0.00  0.00    +0.000 NA
ENDBRANCH  16  19
ENDBRANCH  14  17
ENDBRANCH   1  14
TORSDOF 5
ENDMDL
MODEL 4
REMARK VINA RESULT:      -7.2      1.481      1.773
REMARK  Name = 
REMARK  5 active torsions:
REMARK  status: ('A' for Active; 'I' for Inactive)
REMARK    1  A    between atoms: C_2  and  C_18
REMARK    2  A    between atoms: N_3  and  C_4
REMARK    3  A    between atoms: C_4  and  C_5
REMARK    4  A    between atoms: C_5  and  N_6
REMARK    5  A    between atoms: N_9  and  C_10
REMARK                            x       y       z     vdW  Elec       q    Type
REMARK                         _______ _______ _______ _____ _____    ______ ____
ROOT
ATOM      1  C   UNL     1       8.088   7.618  18.407  0.00  0.00    +0.000 C 
ENDROOT
BRANCH   1   2
ATOM      2  N   UNL     1       7.526   6.561  17.541  0.00  0.00    +0.000 NA
ATOM      3  C   UNL     1       7.400   5.261  18.238  0.00  0.00    +0.000 C 
ATOM      4  C   UNL     1       6.278   5.216  19.293  0.00  0.00    +0.000 C 
ATOM      5  N   UNL     1       4.978   5.449  18.654  0.00  0.00    +0.000 N 
ATOM      6  C   UNL     1       4.920   6.700  17.868  0.00  0.00    +0.000 C 
ATOM      7  C   UNL     1       6.192   6.923  16.987  0.00  0.00    +0.000 C 
BRANCH   5   8
ATOM      8  C   UNL     1       4.189   4.364  18.286  0.00  0.00    +0.000 A 
ATOM      9  C   UNL     1       3.052   4.555  17.485  0.00  0.00    +0.000 A 
ATOM     10  C   UNL     1       2.177   3.501  17.189  0.00  0.00    +0.000 A 
ATOM     11  C   UNL     1       2.430   2.220  17.672  0.00  0.00    +0.000 A 
ATOM     12  C   UNL     1       3.559   1.997  18.447  0.00  0.00    +0.000 A 
ATOM     13  C   UNL     1       4.418   3.058  18.752  0.00  0.00    +0.000 A 
ENDBRANCH   5   8
ENDBRANCH   1   2
BRANCH   1  14
ATOM     14  C   UNL     1       7.983   9.033  17.777  0.00  0.00    +0.000 C 
BRANCH  14  17
ATOM     15  O   UNL     1       8.020  11.825  17.548  0.00  0.00    +0.000 OA
ATOM     16  C   UNL     1       9.020  11.250  17.968  0.00  0.00    +0.000 C 
ATOM     17  N   UNL     1       9.137   9.875  18.019  0.00  0.00    +0.000 N 
ATOM     18  H   UNL     1       9.933   9.515  18.543  0.00  0.00    +0.000 HD
BRANCH  16  19
ATOM     19  C   UNL     1      10.189  12.024  18.483  0.00  0.00    +0.000 A 
ATOM     20  C   UNL     1      10.961  11.471  19.498  0.00  0.00    +0.000 A 
ATOM     21  C   UNL     1      12.050  12.191  19.966  0.00  0.00    +0.000 A 
ATOM     22  C   UNL     1      12.333  13.433  19.405  0.00  0.00    +0.000 A 
ATOM     23  C   UNL     1      11.513  13.903  18.386  0.00  0.00    +0.000 A 
ATOM     24  N   UNL     1      10.438  13.235  17.908  0.00  0.00    +0.000 NA
ENDBRANCH  16  19
ENDBRANCH  14  17
ENDBRANCH   1  14
TORSDOF 5
ENDMDL
MODEL 5
REMARK VINA RESULT:      -7.1      1.341      1.930
REMARK  Name = 
REMARK  5 active torsions:
REMARK  status: ('A' for Active; 'I' for Inactive)
REMARK    1  A    between atoms: C_2  and  C_18
REMARK    2  A    between atoms: N_3  and  C_4
REMARK    3  A    between atoms: C_4  and  C_5
REMARK    4  A    between atoms: C_5  and  N_6
REMARK    5  A    between atoms: N_9  and  C_10
REMARK                            x       y       z     vdW  Elec       q    Type
REMARK                         _______ _______ _______ _____ _____    ______ ____
ROOT
ATOM      1  C   UNL     1       7.563   6.956  16.970  0.00  0.00    +0.000 C 
ENDROOT
BRANCH   1   2
ATOM      2  N   UNL     1       7.132   5.742  17.691  0.00  0.00    +0.000 NA
ATOM      3  C   UNL     1       5.981   5.991  18.589  0.00  0.00    +0.000 C 
ATOM      4  C   UNL     1       4.647   6.222  17.856  0.00  0.00    +0.000 C 
ATOM      5  N   UNL     1       4.289   5.031  17.076  0.00  0.00    +0.000 N 
ATOM      6  C   UNL     1       5.346   4.600  16.136  0.00  0.00    +0.000 C 
ATOM      7  C   UNL     1       6.773   4.626  16.773  0.00  0.00    +0.000 C 
BRANCH   5   8
ATOM      8  C   UNL     1       3.419   4.091  17.618  0.00  0.00    +0.000 A 
ATOM      9  C   UNL     1       3.858   2.783  17.869  0.00  0.00    +0.000 A 
ATOM     10  C   UNL     1       2.978   1.784  18.311  0.00  0.00    +0.000 A 
ATOM     11  C   UNL     1       1.636   2.079  18.534  0.00  0.00    +0.000 A 
ATOM     12  C   UNL     1       1.178   3.371  18.316  0.00  0.00    +0.000 A 
ATOM     13  C   UNL     1       2.059   4.356  17.858  0.00  0.00    +0.000 A 
ENDBRANCH   5   8
ENDBRANCH   1   2
BRANCH   1  14
ATOM     14  C   UNL     1       7.305   8.259  17.775  0.00  0.00    +0.000 C 
BRANCH  14  17
ATOM     15  O   UNL     1       7.739  11.002  17.405  0.00  0.00    +0.000 OA
ATOM     16  C   UNL     1       8.581  10.343  18.007  0.00  0.00    +0.000 C 
ATOM     17  N   UNL     1       8.510   8.971  18.149  0.00  0.00    +0.000 N 
ATOM     18  H   UNL     1       9.166   8.558  18.810  0.00  0.00    +0.000 HD
BRANCH  16  19
ATOM     19  C   UNL     1       9.752  11.006  18.656  0.00  0.00    +0.000 A 
ATOM     20  C   UNL     1       9.730  11.202  20.032  0.00  0.00    +0.000 A 
ATOM     21  C   UNL     1      10.823  11.812  20.630  0.00  0.00    +0.000 A 
ATOM     22  C   UNL     1      11.899  12.201  19.837  0.00  0.00    +0.000 A 
ATOM     23  C   UNL     1      11.839  11.956  18.471  0.00  0.00    +0.000 A 
ATOM     24  N   UNL     1      10.789  11.372  17.850  0.00  0.00    +0.000 NA
ENDBRANCH  16  19
ENDBRANCH  14  17
ENDBRANCH   1  14
TORSDOF 5
ENDMDL
MODEL 6
REMARK VINA RESULT:      -7.1      4.042      6.582
REMARK  Name = 
REMARK  5 active torsions:
REMARK  status: ('A' for Active; 'I' for Inactive)
REMARK    1  A    between atoms: C_2  and  C_18
REMARK    2  A    between atoms: N_3  and  C_4
REMARK    3  A    between atoms: C_4  and  C_5
REMARK    4  A    between atoms: C_5  and  N_6
REMARK    5  A    between atoms: N_9  and  C_10
REMARK                            x       y       z     vdW  Elec       q    Type
REMARK                         _______ _______ _______ _____ _____    ______ ____
ROOT
ATOM      1  C   UNL     1       2.418   2.513  18.966  0.00  0.00    +0.000 C 
ENDROOT
BRANCH   1   2
ATOM      2  N   UNL     1       1.374   3.557  18.939  0.00  0.00    +0.000 NA
ATOM      3  C   UNL     1       1.247   4.269  20.232  0.00  0.00    +0.000 C 
ATOM      4  C   UNL     1       2.416   5.221  20.546  0.00  0.00    +0.000 C 
ATOM      5  N   UNL     1       2.499   6.271  19.523  0.00  0.00    +0.000 N 
ATOM      6  C   UNL     1       2.594   5.747  18.144  0.00  0.00    +0.000 C 
ATOM      7  C   UNL     1       1.602   4.570  17.872  0.00  0.00    +0.000 C 
BRANCH   5   8
ATOM      8  C   UNL     1       1.900   7.504  19.756  0.00  0.00    +0.000 A 
ATOM      9  C   UNL     1       1.356   7.801  21.015  0.00  0.00    +0.000 A 
ATOM     10  C   UNL     1       0.650   8.989  21.249  0.00  0.00    +0.000 A 
ATOM     11  C   UNL     1       0.489   9.923  20.230  0.00  0.00    +0.000 A 
ATOM     12  C   UNL     1       1.035   9.667  18.980  0.00  0.00    +0.000 A 
ATOM     13  C   UNL     1       1.723   8.471  18.751  0.00  0.00    +0.000 A 
ENDBRANCH   5   8
ENDBRANCH   1   2
BRANCH   1  14
ATOM     14  C   UNL     1       3.448   2.660  17.813  0.00  0.00    +0.000 C 
BRANCH  14  17
ATOM     15  O   UNL     1       5.100   3.929  15.941  0.00  0.00    +0.000 OA
ATOM     16  C   UNL     1       5.272   4.155  17.135  0.00  0.00    +0.000 C 
ATOM     17  N   UNL     1       4.582   3.501  18.136  0.00  0.00    +0.000 N 
ATOM     18  H   UNL     1       4.680   3.891  19.072  0.00  0.00    +0.000 HD
BRANCH  16  19
ATOM     19  C   UNL     1       6.248   5.192  17.585  0.00  0.00    +0.000 A 
ATOM     20  C   UNL     1       7.103   4.892  18.639  0.00  0.00    +0.000 A 
ATOM     21  C   UNL     1       8.012   5.857  19.048  0.00  0.00    +0.000 A 
ATOM     22  C   UNL     1       8.040   7.084  18.390  0.00  0.00    +0.000 A 
ATOM     23  C   UNL     1       7.155   7.292  17.339  0.00  0.00    +0.000 A 
ATOM     24  N   UNL     1       6.249   6.381  16.917  0.00  0.00    +0.000 NA
ENDBRANCH  16  19
ENDBRANCH  14  17
ENDBRANCH   1  14
TORSDOF 5
ENDMDL
MODEL 7
REMARK VINA RESULT:      -7.1      5.080      6.793
REMARK  Name = 
REMARK  5 active torsions:
REMARK  status: ('A' for Active; 'I' for Inactive)
REMARK    1  A    between atoms: C_2  and  C_18
REMARK    2  A    between atoms: N_3  and  C_4
REMARK    3  A    between atoms: C_4  and  C_5
REMARK    4  A    between atoms: C_5  and  N_6
REMARK    5  A    between atoms: N_9  and  C_10
REMARK                            x       y       z     vdW  Elec       q    Type
REMARK                         _______ _______ _______ _____ _____    ______ ____
ROOT
ATOM      1  C   UNL     1       5.573   5.152  19.379  0.00  0.00    +0.000 C 
ENDROOT
BRANCH   1   2
ATOM      2  N   UNL     1       6.047   4.205  18.349  0.00  0.00    +0.000 NA
ATOM      3  C   UNL     1       5.051   3.987  17.274  0.00  0.00    +0.000 C 
ATOM      4  C   UNL     1       4.878   5.185  16.322  0.00  0.00    +0.000 C 
ATOM      5  N   UNL     1       6.145   5.469  15.636  0.00  0.00    +0.000 N 
ATOM      6  C   UNL     1       7.282   5.681  16.556  0.00  0.00    +0.000 C 
ATOM      7  C   UNL     1       7.325   4.636  17.718  0.00  0.00    +0.000 C 
BRANCH   5   8
ATOM      8  C   UNL     1       6.370   4.949  14.366  0.00  0.00    +0.000 A 
ATOM      9  C   UNL     1       5.523   3.958  13.847  0.00  0.00    +0.000 A 
ATOM     10  C   UNL     1       5.785   3.335  12.619  0.00  0.00    +0.000 A 
ATOM     11  C   UNL     1       6.896   3.707  11.866  0.00  0.00    +0.000 A 
ATOM     12  C   UNL     1       7.739   4.701  12.343  0.00  0.00    +0.000 A 
ATOM     13  C   UNL     1       7.478   5.304  13.578  0.00  0.00    +0.000 A 
ENDBRANCH   5   8
ENDBRANCH   1   2
BRANCH   1  14
ATOM     14  C   UNL     1       4.036   5.089  19.594  0.00  0.00    +0.000 C 
BRANCH  14  17
ATOM     15  O   UNL     1       1.703   6.068  20.795  0.00  0.00    +0.000 OA
ATOM     16  C   UNL     1       2.244   6.733  19.917  0.00  0.00    +0.000 C 
ATOM     17  N   UNL     1       3.333   6.290  19.194  0.00  0.00    +0.000 N 
ATOM     18  H   UNL     1       3.800   6.990  18.619  0.00  0.00    +0.000 HD
BRANCH  16  19
ATOM     19  C   UNL     1       1.755   8.106  19.586  0.00  0.00    +0.000 A 
ATOM     20  C   UNL     1       1.971   8.600  18.305  0.00  0.00    +0.000 A 
ATOM     21  C   UNL     1       1.508   9.872  18.001  0.00  0.00    +0.000 A 
ATOM     22  C   UNL     1       0.844  10.604  18.982  0.00  0.00    +0.000 A 
ATOM     23  C   UNL     1       0.664  10.025  20.232  0.00  0.00    +0.000 A 
ATOM     24  N   UNL     1       1.107   8.793  20.569  0.00  0.00    +0.000 NA
ENDBRANCH  16  19
ENDBRANCH  14  17
ENDBRANCH   1  14
TORSDOF 5
ENDMDL
MODEL 8
REMARK VINA RESULT:      -7.0      1.650      2.223
REMARK  Name = 
REMARK  5 active torsions:
REMARK  status: ('A' for Active; 'I' for Inactive)
REMARK    1  A    between atoms: C_2  and  C_18
REMARK    2  A    between atoms: N_3  and  C_4
REMARK    3  A    between atoms: C_4  and  C_5
REMARK    4  A    between atoms: C_5  and  N_6
REMARK    5  A    between atoms: N_9  and  C_10
REMARK                            x       y       z     vdW  Elec       q    Type
REMARK                         _______ _______ _______ _____ _____    ______ ____
ROOT
ATOM      1  C   UNL     1       7.400   6.685  17.605  0.00  0.00    +0.000 C 
ENDROOT
BRANCH   1   2
ATOM      2  N   UNL     1       6.230   6.003  17.014  0.00  0.00    +0.000 NA
ATOM      3  C   UNL     1       6.147   4.577  17.403  0.00  0.00    +0.000 C 
ATOM      4  C   UNL     1       5.742   4.345  18.871  0.00  0.00    +0.000 C 
ATOM      5  N   UNL     1       4.406   4.901  19.118  0.00  0.00    +0.000 N 
ATOM      6  C   UNL     1       4.281   6.327  18.750  0.00  0.00    +0.000 C 
ATOM      7  C   UNL     1       4.942   6.659  17.373  0.00  0.00    +0.000 C 
BRANCH   5   8
ATOM      8  C   UNL     1       3.293   4.069  19.052  0.00  0.00    +0.000 A 
ATOM      9  C   UNL     1       3.301   2.941  18.218  0.00  0.00    +0.000 A 
ATOM     10  C   UNL     1       2.159   2.146  18.046  0.00  0.00    +0.000 A 
ATOM     11  C   UNL     1       0.983   2.450  18.725  0.00  0.00    +0.000 A 
ATOM     12  C   UNL     1       0.952   3.546  19.576  0.00  0.00    +0.000 A 
ATOM     13  C   UNL     1       2.091   4.344  19.727  0.00  0.00    +0.000 A 
ENDBRANCH   5   8
ENDBRANCH   1   2
BRANCH   1  14
ATOM     14  C   UNL     1       7.306   8.233  17.511  0.00  0.00    +0.000 C 
BRANCH  14  17
ATOM     15  O   UNL     1       7.757  10.991  17.324  0.00  0.00    +0.000 OA
ATOM     16  C   UNL     1       8.535  10.305  17.980  0.00  0.00    +0.000 C 
ATOM     17  N   UNL     1       8.459   8.928  18.046  0.00  0.00    +0.000 N 
ATOM     18  H   UNL     1       9.043   8.484  18.753  0.00  0.00    +0.000 HD
BRANCH  16  19
ATOM     19  C   UNL     1       9.624  10.938  18.783  0.00  0.00    +0.000 A 
ATOM     20  C   UNL     1      10.795  11.317  18.138  0.00  0.00    +0.000 A 
ATOM     21  C   UNL     1      11.800  11.912  18.887  0.00  0.00    +0.000 A 
ATOM     22  C   UNL     1      11.601  12.109  20.251  0.00  0.00    +0.000 A 
ATOM     23  C   UNL     1      10.394  11.708  20.809  0.00  0.00    +0.000 A 
ATOM     24  N   UNL     1       9.394  11.119  20.115  0.00  0.00    +0.000 NA
ENDBRANCH  16  19
ENDBRANCH  14  17
ENDBRANCH   1  14
TORSDOF 5
ENDMDL
MODEL 9
REMARK VINA RESULT:      -6.9      5.337      7.125
REMARK  Name = 
REMARK  5 active torsions:
REMARK  status: ('A' for Active; 'I' for Inactive)
REMARK    1  A    between atoms: C_2  and  C_18
REMARK    2  A    between atoms: N_3  and  C_4
REMARK    3  A    between atoms: C_4  and  C_5
REMARK    4  A    between atoms: C_5  and  N_6
REMARK    5  A    between atoms: N_9  and  C_10
REMARK                            x       y       z     vdW  Elec       q    Type
REMARK                         _______ _______ _______ _____ _____    ______ ____
ROOT
ATOM      1  C   UNL     1       3.841   3.596  18.314  0.00  0.00    +0.000 C 
ENDROOT
BRANCH   1   2
ATOM      2  N   UNL     1       2.766   4.553  17.981  0.00  0.00    +0.000 NA
ATOM      3  C   UNL     1       1.773   4.696  19.070  0.00  0.00    +0.000 C 
ATOM      4  C   UNL     1       2.293   5.464  20.301  0.00  0.00    +0.000 C 
ATOM      5  N   UNL     1       2.663   6.832  19.919  0.00  0.00    +0.000 N 
ATOM      6  C   UNL     1       3.632   6.895  18.804  0.00  0.00    +0.000 C 
ATOM      7  C   UNL     1       3.286   5.907  17.644  0.00  0.00    +0.000 C 
BRANCH   5   8
ATOM      8  C   UNL     1       1.752   7.867  20.104  0.00  0.00    +0.000 A 
ATOM      9  C   UNL     1       0.967   7.920  21.265  0.00  0.00    +0.000 A 
ATOM     10  C   UNL     1      -0.036   8.885  21.431  0.00  0.00    +0.000 A 
ATOM     11  C   UNL     1      -0.264   9.839  20.443  0.00  0.00    +0.000 A 
ATOM     12  C   UNL     1       0.513   9.826  19.294  0.00  0.00    +0.000 A 
ATOM     13  C   UNL     1       1.500   8.848  19.129  0.00  0.00    +0.000 A 
ENDBRANCH   5   8
ENDBRANCH   1   2
BRANCH   1  14
ATOM     14  C   UNL     1       5.248   4.099  17.892  0.00  0.00    +0.000 C 
BRANCH  14  17
ATOM     15  O   UNL     1       6.418   6.124  16.349  0.00  0.00    +0.000 OA
ATOM     16  C   UNL     1       6.169   5.044  15.822  0.00  0.00    +0.000 C 
ATOM     17  N   UNL     1       5.500   4.023  16.467  0.00  0.00    +0.000 N 
ATOM     18  H   UNL     1       5.504   3.120  15.995  0.00  0.00    +0.000 HD
BRANCH  16  19
ATOM     19  C   UNL     1       6.606   4.756  14.423  0.00  0.00    +0.000 A 
ATOM     20  C   UNL     1       5.916   3.796  13.692  0.00  0.00    +0.000 A 
ATOM     21  C   UNL     1       6.322   3.539  12.390  0.00  0.00    +0.000 A 
ATOM     22  C   UNL     1       7.397   4.249  11.863  0.00  0.00    +0.000 A 
ATOM     23  C   UNL     1       8.021   5.199  12.663  0.00  0.00    +0.000 A 
ATOM     24  N   UNL     1       7.660   5.472  13.938  0.00  0.00    +0.000 NA
ENDBRANCH  16  19
ENDBRANCH  14  17
ENDBRANCH   1  14
TORSDOF 5
ENDMDL
