MODEL 1
REMARK VINA RESULT:      -8.1      0.000      0.000
REMARK  Name = 
REMARK  6 active torsions:
REMARK  status: ('A' for Active; 'I' for Inactive)
REMARK    1  A    between atoms: C_1  and  O_2
REMARK    2  A    between atoms: O_2  and  C_3
REMARK    3  A    between atoms: C_6  and  C_7
REMARK    4  A    between atoms: C_13  and  C_14
REMARK    5  A    between atoms: C_17  and  O_18
REMARK    6  A    between atoms: O_18  and  C_19
REMARK                            x       y       z     vdW  Elec       q    Type
REMARK                         _______ _______ _______ _____ _____    ______ ____
ROOT
ATOM      1  C   UNL     1       2.101   6.717  19.876  0.00  0.00    +0.000 A 
ATOM      2  C   UNL     1       1.621   5.804  20.825  0.00  0.00    +0.000 A 
ATOM      3  N   UNL     1       1.974   4.499  20.967  0.00  0.00    +0.000 NA
ATOM      4  C   UNL     1       2.884   4.109  20.059  0.00  0.00    +0.000 A 
ATOM      5  N   UNL     1       3.385   2.842  19.973  0.00  0.00    +0.000 N 
ATOM      6  C   UNL     1       4.283   2.766  18.939  0.00  0.00    +0.000 A 
ATOM      7  C   UNL     1       4.376   4.018  18.347  0.00  0.00    +0.000 A 
ATOM      8  C   UNL     1       3.471   4.871  19.060  0.00  0.00    +0.000 A 
ATOM      9  C   UNL     1       3.057   6.217  18.974  0.00  0.00    +0.000 A 
ATOM     10  H   UNL     1       3.115   2.090  20.590  0.00  0.00    +0.000 HD
ENDROOT
BRANCH   1  14
ATOM     11  C   UNL     1       0.731  10.811  19.666  0.00  0.00    +0.000 A 
ATOM     12  C   UNL     1       0.625  10.091  20.853  0.00  0.00    +0.000 A 
ATOM     13  C   UNL     1       1.083   8.770  20.930  0.00  0.00    +0.000 A 
ATOM     14  C   UNL     1       1.630   8.118  19.811  0.00  0.00    +0.000 A 
ATOM     15  C   UNL     1       1.702   8.862  18.615  0.00  0.00    +0.000 A 
ATOM     16  C   UNL     1       1.265  10.191  18.542  0.00  0.00    +0.000 A 
BRANCH  11  18
ATOM     17  C   UNL     1      -0.495  12.506  18.575  0.00  0.00    +0.000 C 
ATOM     18  O   UNL     1       0.250  12.090  19.713  0.00  0.00    +0.000 OA
ENDBRANCH  11  18
ENDBRANCH   1  14
BRANCH   7  19
ATOM     19  C   UNL     1       5.257   4.304  17.219  0.00  0.00    +0.000 A 
ATOM     20  C   UNL     1       6.567   4.756  17.422  0.00  0.00    +0.000 A 
ATOM     21  C   UNL     1       7.402   5.037  16.334  0.00  0.00    +0.000 A 
ATOM     22  C   UNL     1       6.954   4.843  15.028  0.00  0.00    +0.000 A 
ATOM     23  C   UNL     1       5.651   4.402  14.812  0.00  0.00    +0.000 A 
ATOM     24  C   UNL     1       4.808   4.144  15.901  0.00  0.00    +0.000 A 
BRANCH  22  25
ATOM     25  O   UNL     1       7.853   5.161  14.049  0.00  0.00    +0.000 OA
ATOM     26  C   UNL     1       7.459   4.831  12.722  0.00  0.00    +0.000 C 
ENDBRANCH  22  25
ENDBRANCH   7  19
TORSDOF 4
ENDMDL
MODEL 2
REMARK VINA RESULT:      -8.0      0.457      1.429
REMARK  Name = 
REMARK  6 active torsions:
REMARK  status: ('A' for Active; 'I' for Inactive)
REMARK    1  A    between atoms: C_1  and  O_2
REMARK    2  A    between atoms: O_2  and  C_3
REMARK    3  A    between atoms: C_6  and  C_7
REMARK    4  A    between atoms: C_13  and  C_14
REMARK    5  A    between atoms: C_17  and  O_18
REMARK    6  A    between atoms: O_18  and  C_19
REMARK                            x       y       z     vdW  Elec       q    Type
REMARK                         _______ _______ _______ _____ _____    ______ ____
ROOT
ATOM      1  C   UNL     1       2.063   6.581  20.067  0.00  0.00    +0.000 A 
ATOM      2  C   UNL     1       1.524   5.609  20.920  0.00  0.00    +0.000 A 
ATOM      3  N   UNL     1       1.832   4.286  20.963  0.00  0.00    +0.000 NA
ATOM      4  C   UNL     1       2.760   3.942  20.054  0.00  0.00    +0.000 A 
ATOM      5  N   UNL     1       3.225   2.671  19.877  0.00  0.00    +0.000 N 
ATOM      6  C   UNL     1       4.155   2.652  18.868  0.00  0.00    +0.000 A 
ATOM      7  C   UNL     1       4.305   3.944  18.387  0.00  0.00    +0.000 A 
ATOM      8  C   UNL     1       3.403   4.765  19.141  0.00  0.00    +0.000 A 
ATOM      9  C   UNL     1       3.033   6.126  19.156  0.00  0.00    +0.000 A 
ATOM     10  H   UNL     1       2.912   1.880  20.420  0.00  0.00    +0.000 HD
ENDROOT
BRANCH   1  14
ATOM     11  C   UNL     1       0.813  10.717  20.196  0.00  0.00    +0.000 A 
ATOM     12  C   UNL     1       1.224  10.140  18.997  0.00  0.00    +0.000 A 
ATOM     13  C   UNL     1       1.613   8.797  18.948  0.00  0.00    +0.000 A 
ATOM     14  C   UNL     1       1.636   7.998  20.105  0.00  0.00    +0.000 A 
ATOM     15  C   UNL     1       1.239   8.613  21.310  0.00  0.00    +0.000 A 
ATOM     16  C   UNL     1       0.828   9.951  21.357  0.00  0.00    +0.000 A 
BRANCH  11  18
ATOM     17  C   UNL     1       1.120  12.791  19.115  0.00  0.00    +0.000 C 
ATOM     18  O   UNL     1       0.457  12.034  20.120  0.00  0.00    +0.000 OA
ENDBRANCH  11  18
ENDBRANCH   1  14
BRANCH   7  19
ATOM     19  C   UNL     1       5.231   4.295  17.314  0.00  0.00    +0.000 A 
ATOM     20  C   UNL     1       4.817   4.303  15.976  0.00  0.00    +0.000 A 
ATOM     21  C   UNL     1       5.715   4.632  14.954  0.00  0.00    +0.000 A 
ATOM     22  C   UNL     1       7.030   4.985  15.251  0.00  0.00    +0.000 A 
ATOM     23  C   UNL     1       7.457   4.973  16.577  0.00  0.00    +0.000 A 
ATOM     24  C   UNL     1       6.564   4.621  17.598  0.00  0.00    +0.000 A 
BRANCH  22  25
ATOM     25  O   UNL     1       7.816   5.275  14.171  0.00  0.00    +0.000 OA
ATOM     26  C   UNL     1       7.364   4.753  12.926  0.00  0.00    +0.000 C 
ENDBRANCH  22  25
ENDBRANCH   7  19
TORSDOF 4
ENDMDL
MODEL 3
REMARK VINA RESULT:      -8.0      0.561      1.141
REMARK  Name = 
REMARK  6 active torsions:
REMARK  status: ('A' for Active; 'I' for Inactive)
REMARK    1  A    between atoms: C_1  and  O_2
REMARK    2  A    between atoms: O_2  and  C_3
REMARK    3  A    between atoms: C_6  and  C_7
REMARK    4  A    between atoms: C_13  and  C_14
REMARK    5  A    between atoms: C_17  and  O_18
REMARK    6  A    between atoms: O_18  and  C_19
REMARK                            x       y       z     vdW  Elec       q    Type
REMARK                         _______ _______ _______ _____ _____    ______ ____
ROOT
ATOM      1  C   UNL     1       2.068   6.669  20.038  0.00  0.00    +0.000 A 
ATOM      2  C   UNL     1       1.548   5.720  20.927  0.00  0.00    +0.000 A 
ATOM      3  N   UNL     1       1.870   4.402  21.009  0.00  0.00    +0.000 NA
ATOM      4  C   UNL     1       2.793   4.039  20.103  0.00  0.00    +0.000 A 
ATOM      5  N   UNL     1       3.270   2.767  19.963  0.00  0.00    +0.000 N 
ATOM      6  C   UNL     1       4.190   2.725  18.947  0.00  0.00    +0.000 A 
ATOM      7  C   UNL     1       4.322   4.003  18.422  0.00  0.00    +0.000 A 
ATOM      8  C   UNL     1       3.419   4.838  19.158  0.00  0.00    +0.000 A 
ATOM      9  C   UNL     1       3.035   6.195  19.132  0.00  0.00    +0.000 A 
ATOM     10  H   UNL     1       2.970   1.991  20.535  0.00  0.00    +0.000 HD
ENDROOT
BRANCH   1  14
ATOM     11  C   UNL     1       0.786  10.797  20.007  0.00  0.00    +0.000 A 
ATOM     12  C   UNL     1       0.750  10.054  21.185  0.00  0.00    +0.000 A 
ATOM     13  C   UNL     1       1.180   8.723  21.202  0.00  0.00    +0.000 A 
ATOM     14  C   UNL     1       1.627   8.082  20.034  0.00  0.00    +0.000 A 
ATOM     15  C   UNL     1       1.630   8.849  18.850  0.00  0.00    +0.000 A 
ATOM     16  C   UNL     1       1.221  10.189  18.836  0.00  0.00    +0.000 A 
BRANCH  11  18
ATOM     17  C   UNL     1      -0.002  12.508  21.428  0.00  0.00    +0.000 C 
ATOM     18  O   UNL     1       0.341  12.085  20.114  0.00  0.00    +0.000 OA
ENDBRANCH  11  18
ENDBRANCH   1  14
BRANCH   7  19
ATOM     19  C   UNL     1       5.235   4.327  17.330  0.00  0.00    +0.000 A 
ATOM     20  C   UNL     1       4.795   4.340  16.000  0.00  0.00    +0.000 A 
ATOM     21  C   UNL     1       5.680   4.643  14.959  0.00  0.00    +0.000 A 
ATOM     22  C   UNL     1       7.008   4.969  15.228  0.00  0.00    +0.000 A 
ATOM     23  C   UNL     1       7.460   4.953  16.546  0.00  0.00    +0.000 A 
ATOM     24  C   UNL     1       6.580   4.626  17.585  0.00  0.00    +0.000 A 
BRANCH  22  25
ATOM     25  O   UNL     1       7.778   5.236  14.132  0.00  0.00    +0.000 OA
ATOM     26  C   UNL     1       7.297   4.709  12.900  0.00  0.00    +0.000 C 
ENDBRANCH  22  25
ENDBRANCH   7  19
TORSDOF 4
ENDMDL
MODEL 4
REMARK VINA RESULT:      -7.4      0.808      7.724
REMARK  Name = 
REMARK  6 active torsions:
REMARK  status: ('A' for Active; 'I' for Inactive)
REMARK    1  A    between atoms: C_1  and  O_2
REMARK    2  A    between atoms: O_2  and  C_3
REMARK    3  A    between atoms: C_6  and  C_7
REMARK    4  A    between atoms: C_13  and  C_14
REMARK    5  A    between atoms: C_17  and  O_18
REMARK    6  A    between atoms: O_18  and  C_19
REMARK                            x       y       z     vdW  Elec       q    Type
REMARK                         _______ _______ _______ _____ _____    ______ ____
ROOT
ATOM      1  C   UNL     1       4.511   4.707  17.630  0.00  0.00    +0.000 A 
ATOM      2  C   UNL     1       4.466   3.621  18.513  0.00  0.00    +0.000 A 
ATOM      3  N   UNL     1       3.779   3.535  19.682  0.00  0.00    +0.000 NA
ATOM      4  C   UNL     1       3.093   4.656  19.961  0.00  0.00    +0.000 A 
ATOM      5  N   UNL     1       2.341   4.833  21.087  0.00  0.00    +0.000 N 
ATOM      6  C   UNL     1       1.779   6.084  21.078  0.00  0.00    +0.000 A 
ATOM      7  C   UNL     1       2.166   6.730  19.912  0.00  0.00    +0.000 A 
ATOM      8  C   UNL     1       3.016   5.816  19.206  0.00  0.00    +0.000 A 
ATOM      9  C   UNL     1       3.754   5.832  18.004  0.00  0.00    +0.000 A 
ATOM     10  H   UNL     1       2.235   4.132  21.805  0.00  0.00    +0.000 HD
ENDROOT
BRANCH   1  14
ATOM     11  C   UNL     1       6.862   4.662  14.003  0.00  0.00    +0.000 A 
ATOM     12  C   UNL     1       5.524   4.273  13.983  0.00  0.00    +0.000 A 
ATOM     13  C   UNL     1       4.755   4.303  15.152  0.00  0.00    +0.000 A 
ATOM     14  C   UNL     1       5.311   4.689  16.384  0.00  0.00    +0.000 A 
ATOM     15  C   UNL     1       6.672   5.054  16.381  0.00  0.00    +0.000 A 
ATOM     16  C   UNL     1       7.438   5.046  15.208  0.00  0.00    +0.000 A 
BRANCH  11  18
ATOM     17  C   UNL     1       6.974   3.657  11.871  0.00  0.00    +0.000 C 
ATOM     18  O   UNL     1       7.509   4.590  12.801  0.00  0.00    +0.000 OA
ENDBRANCH  11  18
ENDBRANCH   1  14
BRANCH   7  19
ATOM     19  C   UNL     1       1.735   8.082  19.567  0.00  0.00    +0.000 A 
ATOM     20  C   UNL     1       1.085   8.894  20.504  0.00  0.00    +0.000 A 
ATOM     21  C   UNL     1       0.667  10.185  20.161  0.00  0.00    +0.000 A 
ATOM     22  C   UNL     1       0.917  10.697  18.889  0.00  0.00    +0.000 A 
ATOM     23  C   UNL     1       1.557   9.897  17.945  0.00  0.00    +0.000 A 
ATOM     24  C   UNL     1       1.953   8.596  18.282  0.00  0.00    +0.000 A 
BRANCH  22  25
ATOM     25  O   UNL     1       0.454  11.964  18.668  0.00  0.00    +0.000 OA
ATOM     26  C   UNL     1      -0.955  12.130  18.779  0.00  0.00    +0.000 C 
ENDBRANCH  22  25
ENDBRANCH   7  19
TORSDOF 4
ENDMDL
MODEL 5
REMARK VINA RESULT:      -7.4      0.915      7.663
REMARK  Name = 
REMARK  6 active torsions:
REMARK  status: ('A' for Active; 'I' for Inactive)
REMARK    1  A    between atoms: C_1  and  O_2
REMARK    2  A    between atoms: O_2  and  C_3
REMARK    3  A    between atoms: C_6  and  C_7
REMARK    4  A    between atoms: C_13  and  C_14
REMARK    5  A    between atoms: C_17  and  O_18
REMARK    6  A    between atoms: O_18  and  C_19
REMARK                            x       y       z     vdW  Elec       q    Type
REMARK                         _______ _______ _______ _____ _____    ______ ____
ROOT
ATOM      1  C   UNL     1       4.505   4.583  17.538  0.00  0.00    +0.000 A 
ATOM      2  C   UNL     1       4.415   3.454  18.362  0.00  0.00    +0.000 A 
ATOM      3  N   UNL     1       3.704   3.325  19.513  0.00  0.00    +0.000 NA
ATOM      4  C   UNL     1       3.041   4.448  19.838  0.00  0.00    +0.000 A 
ATOM      5  N   UNL     1       2.272   4.587  20.957  0.00  0.00    +0.000 N 
ATOM      6  C   UNL     1       1.742   5.851  21.004  0.00  0.00    +0.000 A 
ATOM      7  C   UNL     1       2.168   6.546  19.881  0.00  0.00    +0.000 A 
ATOM      8  C   UNL     1       3.008   5.648  19.143  0.00  0.00    +0.000 A 
ATOM      9  C   UNL     1       3.769   5.707  17.957  0.00  0.00    +0.000 A 
ATOM     10  H   UNL     1       2.134   3.852  21.635  0.00  0.00    +0.000 HD
ENDROOT
BRANCH   1  14
ATOM     11  C   UNL     1       6.923   4.667  13.956  0.00  0.00    +0.000 A 
ATOM     12  C   UNL     1       5.627   4.158  13.922  0.00  0.00    +0.000 A 
ATOM     13  C   UNL     1       4.835   4.145  15.076  0.00  0.00    +0.000 A 
ATOM     14  C   UNL     1       5.328   4.609  16.308  0.00  0.00    +0.000 A 
ATOM     15  C   UNL     1       6.651   5.095  16.321  0.00  0.00    +0.000 A 
ATOM     16  C   UNL     1       7.438   5.130  15.162  0.00  0.00    +0.000 A 
BRANCH  11  18
ATOM     17  C   UNL     1       7.033   3.786  11.770  0.00  0.00    +0.000 C 
ATOM     18  O   UNL     1       7.599   4.627  12.769  0.00  0.00    +0.000 OA
ENDBRANCH  11  18
ENDBRANCH   1  14
BRANCH   7  19
ATOM     19  C   UNL     1       1.779   7.925  19.599  0.00  0.00    +0.000 A 
ATOM     20  C   UNL     1       1.999   8.495  18.339  0.00  0.00    +0.000 A 
ATOM     21  C   UNL     1       1.630   9.820  18.081  0.00  0.00    +0.000 A 
ATOM     22  C   UNL     1       1.010  10.588  19.065  0.00  0.00    +0.000 A 
ATOM     23  C   UNL     1       0.791  10.036  20.325  0.00  0.00    +0.000 A 
ATOM     24  C   UNL     1       1.183   8.717  20.590  0.00  0.00    +0.000 A 
BRANCH  22  25
ATOM     25  O   UNL     1       0.706  11.870  18.700  0.00  0.00    +0.000 OA
ATOM     26  C   UNL     1       1.761  12.814  18.841  0.00  0.00    +0.000 C 
ENDBRANCH  22  25
ENDBRANCH   7  19
TORSDOF 4
ENDMDL
MODEL 6
REMARK VINA RESULT:      -7.2      3.808      8.647
REMARK  Name = 
REMARK  6 active torsions:
REMARK  status: ('A' for Active; 'I' for Inactive)
REMARK    1  A    between atoms: C_1  and  O_2
REMARK    2  A    between atoms: O_2  and  C_3
REMARK    3  A    between atoms: C_6  and  C_7
REMARK    4  A    between atoms: C_13  and  C_14
REMARK    5  A    between atoms: C_17  and  O_18
REMARK    6  A    between atoms: O_18  and  C_19
REMARK                            x       y       z     vdW  Elec       q    Type
REMARK                         _______ _______ _______ _____ _____    ______ ____
ROOT
ATOM      1  C   UNL     1       1.318   8.170  20.719  0.00  0.00    +0.000 A 
ATOM      2  C   UNL     1       1.630   8.813  21.924  0.00  0.00    +0.000 A 
ATOM      3  N   UNL     1       1.103   9.970  22.402  0.00  0.00    +0.000 NA
ATOM      4  C   UNL     1       0.192  10.505  21.571  0.00  0.00    +0.000 A 
ATOM      5  N   UNL     1      -0.466  11.677  21.808  0.00  0.00    +0.000 N 
ATOM      6  C   UNL     1      -1.318  11.951  20.769  0.00  0.00    +0.000 A 
ATOM      7  C   UNL     1      -1.218  10.925  19.839  0.00  0.00    +0.000 A 
ATOM      8  C   UNL     1      -0.242  10.007  20.352  0.00  0.00    +0.000 A 
ATOM      9  C   UNL     1       0.348   8.801  19.921  0.00  0.00    +0.000 A 
ATOM     10  H   UNL     1      -0.326  12.240  22.634  0.00  0.00    +0.000 HD
ENDROOT
BRANCH   1  14
ATOM     11  C   UNL     1       3.219   4.484  19.499  0.00  0.00    +0.000 A 
ATOM     12  C   UNL     1       3.512   5.680  18.847  0.00  0.00    +0.000 A 
ATOM     13  C   UNL     1       2.912   6.878  19.251  0.00  0.00    +0.000 A 
ATOM     14  C   UNL     1       1.972   6.911  20.296  0.00  0.00    +0.000 A 
ATOM     15  C   UNL     1       1.675   5.683  20.922  0.00  0.00    +0.000 A 
ATOM     16  C   UNL     1       2.292   4.486  20.535  0.00  0.00    +0.000 A 
BRANCH  11  18
ATOM     17  C   UNL     1       4.269   2.430  19.995  0.00  0.00    +0.000 C 
ATOM     18  O   UNL     1       3.866   3.381  19.017  0.00  0.00    +0.000 OA
ENDBRANCH  11  18
ENDBRANCH   1  14
BRANCH   7  19
ATOM     19  C   UNL     1      -2.000  10.884  18.607  0.00  0.00    +0.000 A 
ATOM     20  C   UNL     1      -1.570  10.139  17.503  0.00  0.00    +0.000 A 
ATOM     21  C   UNL     1      -2.323  10.113  16.323  0.00  0.00    +0.000 A 
ATOM     22  C   UNL     1      -3.529  10.805  16.236  0.00  0.00    +0.000 A 
ATOM     23  C   UNL     1      -3.965  11.557  17.325  0.00  0.00    +0.000 A 
ATOM     24  C   UNL     1      -3.199  11.601  18.497  0.00  0.00    +0.000 A 
BRANCH  22  25
ATOM     25  O   UNL     1      -4.170  10.714  15.032  0.00  0.00    +0.000 OA
ATOM     26  C   UNL     1      -3.451  10.042  14.004  0.00  0.00    +0.000 C 
ENDBRANCH  22  25
ENDBRANCH   7  19
TORSDOF 4
ENDMDL
MODEL 7
REMARK VINA RESULT:      -7.2      4.067      9.676
REMARK  Name = 
REMARK  6 active torsions:
REMARK  status: ('A' for Active; 'I' for Inactive)
REMARK    1  A    between atoms: C_1  and  O_2
REMARK    2  A    between atoms: O_2  and  C_3
REMARK    3  A    between atoms: C_6  and  C_7
REMARK    4  A    between atoms: C_13  and  C_14
REMARK    5  A    between atoms: C_17  and  O_18
REMARK    6  A    between atoms: O_18  and  C_19
REMARK                            x       y       z     vdW  Elec       q    Type
REMARK                         _______ _______ _______ _____ _____    ______ ____
ROOT
ATOM      1  C   UNL     1       1.861   8.315  18.951  0.00  0.00    +0.000 A 
ATOM      2  C   UNL     1       2.552   8.940  17.904  0.00  0.00    +0.000 A 
ATOM      3  N   UNL     1       2.477  10.243  17.527  0.00  0.00    +0.000 NA
ATOM      4  C   UNL     1       1.621  10.951  18.283  0.00  0.00    +0.000 A 
ATOM      5  N   UNL     1       1.349  12.275  18.096  0.00  0.00    +0.000 N 
ATOM      6  C   UNL     1       0.431  12.697  19.024  0.00  0.00    +0.000 A 
ATOM      7  C   UNL     1       0.108  11.622  19.840  0.00  0.00    +0.000 A 
ATOM      8  C   UNL     1       0.864  10.504  19.356  0.00  0.00    +0.000 A 
ATOM      9  C   UNL     1       0.995   9.140  19.691  0.00  0.00    +0.000 A 
ATOM     10  H   UNL     1       1.773  12.836  17.372  0.00  0.00    +0.000 HD
ENDROOT
BRANCH   1  14
ATOM     11  C   UNL     1       2.316   4.109  19.835  0.00  0.00    +0.000 A 
ATOM     12  C   UNL     1       1.920   5.001  20.829  0.00  0.00    +0.000 A 
ATOM     13  C   UNL     1       1.755   6.361  20.542  0.00  0.00    +0.000 A 
ATOM     14  C   UNL     1       2.016   6.876  19.260  0.00  0.00    +0.000 A 
ATOM     15  C   UNL     1       2.440   5.956  18.280  0.00  0.00    +0.000 A 
ATOM     16  C   UNL     1       2.584   4.591  18.559  0.00  0.00    +0.000 A 
BRANCH  11  18
ATOM     17  C   UNL     1       2.060   2.538  21.577  0.00  0.00    +0.000 C 
ATOM     18  O   UNL     1       2.443   2.808  20.234  0.00  0.00    +0.000 OA
ENDBRANCH  11  18
ENDBRANCH   1  14
BRANCH   7  19
ATOM     19  C   UNL     1      -0.833  11.718  20.952  0.00  0.00    +0.000 A 
ATOM     20  C   UNL     1      -2.021  12.451  20.832  0.00  0.00    +0.000 A 
ATOM     21  C   UNL     1      -2.913  12.545  21.906  0.00  0.00    +0.000 A 
ATOM     22  C   UNL     1      -2.651  11.885  23.105  0.00  0.00    +0.000 A 
ATOM     23  C   UNL     1      -1.470  11.158  23.241  0.00  0.00    +0.000 A 
ATOM     24  C   UNL     1      -0.566  11.085  22.173  0.00  0.00    +0.000 A 
BRANCH  22  25
ATOM     25  O   UNL     1      -3.588  12.058  24.085  0.00  0.00    +0.000 OA
ATOM     26  C   UNL     1      -4.622  12.990  23.787  0.00  0.00    +0.000 C 
ENDBRANCH  22  25
ENDBRANCH   7  19
TORSDOF 4
ENDMDL
MODEL 8
REMARK VINA RESULT:      -7.2      4.022      9.684
REMARK  Name = 
REMARK  6 active torsions:
REMARK  status: ('A' for Active; 'I' for Inactive)
REMARK    1  A    between atoms: C_1  and  O_2
REMARK    2  A    between atoms: O_2  and  C_3
REMARK    3  A    between atoms: C_6  and  C_7
REMARK    4  A    between atoms: C_13  and  C_14
REMARK    5  A    between atoms: C_17  and  O_18
REMARK    6  A    between atoms: O_18  and  C_19
REMARK                            x       y       z     vdW  Elec       q    Type
REMARK                         _______ _______ _______ _____ _____    ______ ____
ROOT
ATOM      1  C   UNL     1       1.923   8.201  18.908  0.00  0.00    +0.000 A 
ATOM      2  C   UNL     1       2.619   8.824  17.864  0.00  0.00    +0.000 A 
ATOM      3  N   UNL     1       2.558  10.130  17.495  0.00  0.00    +0.000 NA
ATOM      4  C   UNL     1       1.710  10.843  18.256  0.00  0.00    +0.000 A 
ATOM      5  N   UNL     1       1.452  12.171  18.077  0.00  0.00    +0.000 N 
ATOM      6  C   UNL     1       0.539  12.597  19.008  0.00  0.00    +0.000 A 
ATOM      7  C   UNL     1       0.206  11.522  19.818  0.00  0.00    +0.000 A 
ATOM      8  C   UNL     1       0.950  10.398  19.327  0.00  0.00    +0.000 A 
ATOM      9  C   UNL     1       1.066   9.031  19.654  0.00  0.00    +0.000 A 
ATOM     10  H   UNL     1       1.881  12.732  17.355  0.00  0.00    +0.000 HD
ENDROOT
BRANCH   1  14
ATOM     11  C   UNL     1       2.327   3.992  19.807  0.00  0.00    +0.000 A 
ATOM     12  C   UNL     1       2.519   4.460  18.509  0.00  0.00    +0.000 A 
ATOM     13  C   UNL     1       2.406   5.824  18.218  0.00  0.00    +0.000 A 
ATOM     14  C   UNL     1       2.062   6.759  19.210  0.00  0.00    +0.000 A 
ATOM     15  C   UNL     1       1.848   6.256  20.509  0.00  0.00    +0.000 A 
ATOM     16  C   UNL     1       1.984   4.894  20.808  0.00  0.00    +0.000 A 
BRANCH  11  18
ATOM     17  C   UNL     1       3.241   1.982  18.977  0.00  0.00    +0.000 C 
ATOM     18  O   UNL     1       2.464   2.642  19.969  0.00  0.00    +0.000 OA
ENDBRANCH  11  18
ENDBRANCH   1  14
BRANCH   7  19
ATOM     19  C   UNL     1      -0.734  11.621  20.932  0.00  0.00    +0.000 A 
ATOM     20  C   UNL     1      -1.906  12.380  20.822  0.00  0.00    +0.000 A 
ATOM     21  C   UNL     1      -2.796  12.477  21.897  0.00  0.00    +0.000 A 
ATOM     22  C   UNL     1      -2.548  11.795  23.087  0.00  0.00    +0.000 A 
ATOM     23  C   UNL     1      -1.381  11.043  23.213  0.00  0.00    +0.000 A 
ATOM     24  C   UNL     1      -0.479  10.966  22.144  0.00  0.00    +0.000 A 
BRANCH  22  25
ATOM     25  O   UNL     1      -3.481  11.974  24.069  0.00  0.00    +0.000 OA
ATOM     26  C   UNL     1      -4.219  13.189  24.001  0.00  0.00    +0.000 C 
ENDBRANCH  22  25
ENDBRANCH   7  19
TORSDOF 4
ENDMDL
MODEL 9
REMARK VINA RESULT:      -7.1      1.564      2.540
REMARK  Name = 
REMARK  6 active torsions:
REMARK  status: ('A' for Active; 'I' for Inactive)
REMARK    1  A    between atoms: C_1  and  O_2
REMARK    2  A    between atoms: O_2  and  C_3
REMARK    3  A    between atoms: C_6  and  C_7
REMARK    4  A    between atoms: C_13  and  C_14
REMARK    5  A    between atoms: C_17  and  O_18
REMARK    6  A    between atoms: O_18  and  C_19
REMARK                            x       y       z     vdW  Elec       q    Type
REMARK                         _______ _______ _______ _____ _____    ______ ____
ROOT
ATOM      1  C   UNL     1       1.182   9.117  19.802  0.00  0.00    +0.000 A 
ATOM      2  C   UNL     1       0.699   8.575  21.001  0.00  0.00    +0.000 A 
ATOM      3  N   UNL     1       0.952   7.340  21.509  0.00  0.00    +0.000 NA
ATOM      4  C   UNL     1       1.758   6.612  20.718  0.00  0.00    +0.000 A 
ATOM      5  N   UNL     1       2.146   5.331  20.991  0.00  0.00    +0.000 N 
ATOM      6  C   UNL     1       2.957   4.867  19.987  0.00  0.00    +0.000 A 
ATOM      7  C   UNL     1       3.108   5.875  19.045  0.00  0.00    +0.000 A 
ATOM      8  C   UNL     1       2.331   6.986  19.511  0.00  0.00    +0.000 A 
ATOM      9  C   UNL     1       2.025   8.282  19.047  0.00  0.00    +0.000 A 
ATOM     10  H   UNL     1       1.860   4.825  21.816  0.00  0.00    +0.000 HD
ENDROOT
BRANCH   1  14
ATOM     11  C   UNL     1       0.155  13.096  18.460  0.00  0.00    +0.000 A 
ATOM     12  C   UNL     1      -0.836  12.218  18.891  0.00  0.00    +0.000 A 
ATOM     13  C   UNL     1      -0.506  10.935  19.343  0.00  0.00    +0.000 A 
ATOM     14  C   UNL     1       0.824  10.478  19.343  0.00  0.00    +0.000 A 
ATOM     15  C   UNL     1       1.804  11.377  18.878  0.00  0.00    +0.000 A 
ATOM     16  C   UNL     1       1.478  12.670  18.447  0.00  0.00    +0.000 A 
BRANCH  11  18
ATOM     17  C   UNL     1      -0.063  15.394  18.947  0.00  0.00    +0.000 C 
ATOM     18  O   UNL     1      -0.288  14.319  18.042  0.00  0.00    +0.000 OA
ENDBRANCH  11  18
ENDBRANCH   1  14
BRANCH   7  19
ATOM     19  C   UNL     1       3.925   5.729  17.844  0.00  0.00    +0.000 A 
ATOM     20  C   UNL     1       4.506   6.843  17.225  0.00  0.00    +0.000 A 
ATOM     21  C   UNL     1       5.279   6.694  16.069  0.00  0.00    +0.000 A 
ATOM     22  C   UNL     1       5.512   5.431  15.528  0.00  0.00    +0.000 A 
ATOM     23  C   UNL     1       4.934   4.314  16.129  0.00  0.00    +0.000 A 
ATOM     24  C   UNL     1       4.140   4.467  17.273  0.00  0.00    +0.000 A 
BRANCH  22  25
ATOM     25  O   UNL     1       6.273   5.412  14.393  0.00  0.00    +0.000 OA
ATOM     26  C   UNL     1       6.436   4.135  13.785  0.00  0.00    +0.000 C 
ENDBRANCH  22  25
ENDBRANCH   7  19
TORSDOF 4
ENDMDL
