MODEL 1
REMARK VINA RESULT:      -5.7      0.000      0.000
REMARK  Name = 
REMARK  11 active torsions:
REMARK  status: ('A' for Active; 'I' for Inactive)
REMARK    1  A    between atoms: C_1  and  C_2
REMARK    2  A    between atoms: C_2  and  C_3
REMARK    3  A    between atoms: C_3  and  C_4
REMARK    4  A    between atoms: C_4  and  C_5
REMARK    5  A    between atoms: C_5  and  C_6
REMARK    6  A    between atoms: C_6  and  O_7
REMARK    7  A    between atoms: O_7  and  C_8
REMARK    8  A    between atoms: C_8  and  N_9
REMARK    9  A    between atoms: N_12  and  C_13
REMARK   10  A    between atoms: C_14  and  C_15
REMARK   11  A    between atoms: N_16  and  O_17
REMARK                            x       y       z     vdW  Elec       q    Type
REMARK                         _______ _______ _______ _____ _____    ______ ____
ROOT
ATOM      1  N   UNL     1       3.267   4.962  18.689  0.00  0.00    +0.000 N 
ATOM      2  C   UNL     1       2.618   5.985  19.361  0.00  0.00    +0.000 A 
ATOM      3  C   UNL     1       2.163   5.467  20.527  0.00  0.00    +0.000 A 
ATOM      4  N   UNL     1       2.543   4.141  20.546  0.00  0.00    +0.000 N 
ATOM      5  C   UNL     1       2.259   3.217  21.645  0.00  0.00    +0.000 C 
ATOM      6  C   UNL     1       3.241   3.810  19.419  0.00  0.00    +0.000 A 
ENDROOT
BRANCH   6   7
ATOM      7  C   UNL     1       3.818   2.549  19.136  0.00  0.00    +0.000 C 
ATOM      8  N   UNL     1       3.306   1.660  18.335  0.00  0.00    +0.000 NA
BRANCH   8   9
ATOM      9  O   UNL     1       4.140   0.533  18.309  0.00  0.00    +0.000 OA
ATOM     10  H   UNL     1       3.644  -0.133  18.827  0.00  0.00    +0.000 HD
ENDBRANCH   8   9
ENDBRANCH   6   7
BRANCH   1  11
ATOM     11  C   UNL     1       3.968   5.185  17.438  0.00  0.00    +0.000 C 
BRANCH  11  12
ATOM     12  O   UNL     1       5.286   5.603  17.707  0.00  0.00    +0.000 OA
BRANCH  12  13
ATOM     13  C   UNL     1       6.262   4.626  17.316  0.00  0.00    +0.000 C 
BRANCH  13  14
ATOM     14  C   UNL     1       5.795   3.818  16.109  0.00  0.00    +0.000 C 
BRANCH  14  15
ATOM     15  C   UNL     1       6.502   4.207  14.823  0.00  0.00    +0.000 C 
BRANCH  15  16
ATOM     16  C   UNL     1       5.499   4.172  13.671  0.00  0.00    +0.000 C 
BRANCH  16  18
ATOM     17  C   UNL     1       4.900   2.927  11.578  0.00  0.00    +0.000 C 
ATOM     18  C   UNL     1       6.019   3.318  12.528  0.00  0.00    +0.000 C 
ENDBRANCH  16  18
ENDBRANCH  15  16
ENDBRANCH  14  15
ENDBRANCH  13  14
ENDBRANCH  12  13
ENDBRANCH  11  12
ENDBRANCH   1  11
TORSDOF 9
ENDMDL
MODEL 2
REMARK VINA RESULT:      -5.7      3.008      6.050
REMARK  Name = 
REMARK  11 active torsions:
REMARK  status: ('A' for Active; 'I' for Inactive)
REMARK    1  A    between atoms: C_1  and  C_2
REMARK    2  A    between atoms: C_2  and  C_3
REMARK    3  A    between atoms: C_3  and  C_4
REMARK    4  A    between atoms: C_4  and  C_5
REMARK    5  A    between atoms: C_5  and  C_6
REMARK    6  A    between atoms: C_6  and  O_7
REMARK    7  A    between atoms: O_7  and  C_8
REMARK    8  A    between atoms: C_8  and  N_9
REMARK    9  A    between atoms: N_12  and  C_13
REMARK   10  A    between atoms: C_14  and  C_15
REMARK   11  A    between atoms: N_16  and  O_17
REMARK                            x       y       z     vdW  Elec       q    Type
REMARK                         _______ _______ _______ _____ _____    ______ ____
ROOT
ATOM      1  N   UNL     1       5.614   5.132  17.578  0.00  0.00    +0.000 N 
ATOM      2  C   UNL     1       4.977   5.847  16.578  0.00  0.00    +0.000 A 
ATOM      3  C   UNL     1       5.648   7.016  16.437  0.00  0.00    +0.000 A 
ATOM      4  N   UNL     1       6.681   6.991  17.352  0.00  0.00    +0.000 N 
ATOM      5  C   UNL     1       7.661   8.065  17.518  0.00  0.00    +0.000 C 
ATOM      6  C   UNL     1       6.686   5.823  18.062  0.00  0.00    +0.000 A 
ENDROOT
BRANCH   6   7
ATOM      7  C   UNL     1       7.633   5.449  19.045  0.00  0.00    +0.000 C 
ATOM      8  N   UNL     1       7.436   5.512  20.330  0.00  0.00    +0.000 NA
BRANCH   8   9
ATOM      9  O   UNL     1       8.592   5.076  20.992  0.00  0.00    +0.000 OA
ATOM     10  H   UNL     1       9.200   5.839  20.921  0.00  0.00    +0.000 HD
ENDBRANCH   8   9
ENDBRANCH   6   7
BRANCH   1  11
ATOM     11  C   UNL     1       5.221   3.779  17.929  0.00  0.00    +0.000 C 
BRANCH  11  12
ATOM     12  O   UNL     1       4.186   3.355  17.073  0.00  0.00    +0.000 OA
BRANCH  12  13
ATOM     13  C   UNL     1       3.079   2.787  17.790  0.00  0.00    +0.000 C 
BRANCH  13  14
ATOM     14  C   UNL     1       1.853   3.694  17.739  0.00  0.00    +0.000 C 
BRANCH  14  15
ATOM     15  C   UNL     1       1.223   3.918  19.101  0.00  0.00    +0.000 C 
BRANCH  15  16
ATOM     16  C   UNL     1       2.258   4.544  20.034  0.00  0.00    +0.000 C 
BRANCH  16  18
ATOM     17  C   UNL     1       1.701   2.515  21.398  0.00  0.00    +0.000 C 
ATOM     18  C   UNL     1       2.143   3.967  21.435  0.00  0.00    +0.000 C 
ENDBRANCH  16  18
ENDBRANCH  15  16
ENDBRANCH  14  15
ENDBRANCH  13  14
ENDBRANCH  12  13
ENDBRANCH  11  12
ENDBRANCH   1  11
TORSDOF 9
ENDMDL
MODEL 3
REMARK VINA RESULT:      -5.7      1.919      2.972
REMARK  Name = 
REMARK  11 active torsions:
REMARK  status: ('A' for Active; 'I' for Inactive)
REMARK    1  A    between atoms: C_1  and  C_2
REMARK    2  A    between atoms: C_2  and  C_3
REMARK    3  A    between atoms: C_3  and  C_4
REMARK    4  A    between atoms: C_4  and  C_5
REMARK    5  A    between atoms: C_5  and  C_6
REMARK    6  A    between atoms: C_6  and  O_7
REMARK    7  A    between atoms: O_7  and  C_8
REMARK    8  A    between atoms: C_8  and  N_9
REMARK    9  A    between atoms: N_12  and  C_13
REMARK   10  A    between atoms: C_14  and  C_15
REMARK   11  A    between atoms: N_16  and  O_17
REMARK                            x       y       z     vdW  Elec       q    Type
REMARK                         _______ _______ _______ _____ _____    ______ ____
ROOT
ATOM      1  N   UNL     1       3.850   3.947  17.478  0.00  0.00    +0.000 N 
ATOM      2  C   UNL     1       2.514   3.683  17.225  0.00  0.00    +0.000 A 
ATOM      3  C   UNL     1       1.798   4.293  18.200  0.00  0.00    +0.000 A 
ATOM      4  N   UNL     1       2.709   4.917  19.028  0.00  0.00    +0.000 N 
ATOM      5  C   UNL     1       2.347   5.706  20.206  0.00  0.00    +0.000 C 
ATOM      6  C   UNL     1       3.990   4.725  18.589  0.00  0.00    +0.000 A 
ENDROOT
BRANCH   6   7
ATOM      7  C   UNL     1       5.160   5.264  19.174  0.00  0.00    +0.000 C 
ATOM      8  N   UNL     1       6.252   4.594  19.405  0.00  0.00    +0.000 NA
BRANCH   8   9
ATOM      9  O   UNL     1       7.193   5.445  20.002  0.00  0.00    +0.000 OA
ATOM     10  H   UNL     1       6.644   6.066  20.523  0.00  0.00    +0.000 HD
ENDBRANCH   8   9
ENDBRANCH   6   7
BRANCH   1  11
ATOM     11  C   UNL     1       4.904   3.527  16.571  0.00  0.00    +0.000 C 
BRANCH  11  12
ATOM     12  O   UNL     1       5.192   4.572  15.672  0.00  0.00    +0.000 OA
BRANCH  12  13
ATOM     13  C   UNL     1       6.095   4.166  14.632  0.00  0.00    +0.000 C 
BRANCH  13  14
ATOM     14  C   UNL     1       5.397   4.098  13.277  0.00  0.00    +0.000 C 
BRANCH  14  15
ATOM     15  C   UNL     1       6.109   3.196  12.286  0.00  0.00    +0.000 C 
BRANCH  15  16
ATOM     16  C   UNL     1       5.084   2.613  11.314  0.00  0.00    +0.000 C 
BRANCH  16  18
ATOM     17  C   UNL     1       3.232   3.651   9.980  0.00  0.00    +0.000 C 
ATOM     18  C   UNL     1       3.781   3.393  11.372  0.00  0.00    +0.000 C 
ENDBRANCH  16  18
ENDBRANCH  15  16
ENDBRANCH  14  15
ENDBRANCH  13  14
ENDBRANCH  12  13
ENDBRANCH  11  12
ENDBRANCH   1  11
TORSDOF 9
ENDMDL
MODEL 4
REMARK VINA RESULT:      -5.7      1.303      1.454
REMARK  Name = 
REMARK  11 active torsions:
REMARK  status: ('A' for Active; 'I' for Inactive)
REMARK    1  A    between atoms: C_1  and  C_2
REMARK    2  A    between atoms: C_2  and  C_3
REMARK    3  A    between atoms: C_3  and  C_4
REMARK    4  A    between atoms: C_4  and  C_5
REMARK    5  A    between atoms: C_5  and  C_6
REMARK    6  A    between atoms: C_6  and  O_7
REMARK    7  A    between atoms: O_7  and  C_8
REMARK    8  A    between atoms: C_8  and  N_9
REMARK    9  A    between atoms: N_12  and  C_13
REMARK   10  A    between atoms: C_14  and  C_15
REMARK   11  A    between atoms: N_16  and  O_17
REMARK                            x       y       z     vdW  Elec       q    Type
REMARK                         _______ _______ _______ _____ _____    ______ ____
ROOT
ATOM      1  N   UNL     1       3.494   4.851  19.325  0.00  0.00    +0.000 N 
ATOM      2  C   UNL     1       2.597   5.802  19.783  0.00  0.00    +0.000 A 
ATOM      3  C   UNL     1       1.749   5.172  20.631  0.00  0.00    +0.000 A 
ATOM      4  N   UNL     1       2.144   3.850  20.675  0.00  0.00    +0.000 N 
ATOM      5  C   UNL     1       1.496   2.822  21.490  0.00  0.00    +0.000 C 
ATOM      6  C   UNL     1       3.235   3.633  19.880  0.00  0.00    +0.000 A 
ENDROOT
BRANCH   6   7
ATOM      7  C   UNL     1       3.925   2.406  19.730  0.00  0.00    +0.000 C 
ATOM      8  N   UNL     1       4.895   2.000  20.496  0.00  0.00    +0.000 NA
BRANCH   8   9
ATOM      9  O   UNL     1       5.344   0.752  20.042  0.00  0.00    +0.000 OA
ATOM     10  H   UNL     1       6.295   0.751  20.273  0.00  0.00    +0.000 HD
ENDBRANCH   8   9
ENDBRANCH   6   7
BRANCH   1  11
ATOM     11  C   UNL     1       4.613   5.197  18.467  0.00  0.00    +0.000 C 
BRANCH  11  12
ATOM     12  O   UNL     1       4.356   6.428  17.833  0.00  0.00    +0.000 OA
BRANCH  12  13
ATOM     13  C   UNL     1       5.389   6.793  16.906  0.00  0.00    +0.000 C 
BRANCH  13  14
ATOM     14  C   UNL     1       5.357   5.919  15.657  0.00  0.00    +0.000 C 
BRANCH  14  15
ATOM     15  C   UNL     1       6.642   5.138  15.445  0.00  0.00    +0.000 C 
BRANCH  15  16
ATOM     16  C   UNL     1       6.305   3.780  14.829  0.00  0.00    +0.000 C 
BRANCH  16  18
ATOM     17  C   UNL     1       6.330   3.517  12.336  0.00  0.00    +0.000 C 
ATOM     18  C   UNL     1       5.517   3.951  13.542  0.00  0.00    +0.000 C 
ENDBRANCH  16  18
ENDBRANCH  15  16
ENDBRANCH  14  15
ENDBRANCH  13  14
ENDBRANCH  12  13
ENDBRANCH  11  12
ENDBRANCH   1  11
TORSDOF 9
ENDMDL
MODEL 5
REMARK VINA RESULT:      -5.6      1.105      1.920
REMARK  Name = 
REMARK  11 active torsions:
REMARK  status: ('A' for Active; 'I' for Inactive)
REMARK    1  A    between atoms: C_1  and  C_2
REMARK    2  A    between atoms: C_2  and  C_3
REMARK    3  A    between atoms: C_3  and  C_4
REMARK    4  A    between atoms: C_4  and  C_5
REMARK    5  A    between atoms: C_5  and  C_6
REMARK    6  A    between atoms: C_6  and  O_7
REMARK    7  A    between atoms: O_7  and  C_8
REMARK    8  A    between atoms: C_8  and  N_9
REMARK    9  A    between atoms: N_12  and  C_13
REMARK   10  A    between atoms: C_14  and  C_15
REMARK   11  A    between atoms: N_16  and  O_17
REMARK                            x       y       z     vdW  Elec       q    Type
REMARK                         _______ _______ _______ _____ _____    ______ ____
ROOT
ATOM      1  N   UNL     1       4.347   4.906  17.762  0.00  0.00    +0.000 N 
ATOM      2  C   UNL     1       3.819   6.182  17.867  0.00  0.00    +0.000 A 
ATOM      3  C   UNL     1       2.801   6.118  18.759  0.00  0.00    +0.000 A 
ATOM      4  N   UNL     1       2.729   4.806  19.183  0.00  0.00    +0.000 N 
ATOM      5  C   UNL     1       1.766   4.310  20.167  0.00  0.00    +0.000 C 
ATOM      6  C   UNL     1       3.689   4.039  18.585  0.00  0.00    +0.000 A 
ENDROOT
BRANCH   6   7
ATOM      7  C   UNL     1       3.928   2.665  18.827  0.00  0.00    +0.000 C 
ATOM      8  N   UNL     1       3.610   1.701  18.012  0.00  0.00    +0.000 NA
BRANCH   8   9
ATOM      9  O   UNL     1       3.984   0.477  18.585  0.00  0.00    +0.000 OA
ATOM     10  H   UNL     1       4.283   0.725  19.483  0.00  0.00    +0.000 HD
ENDBRANCH   8   9
ENDBRANCH   6   7
BRANCH   1  11
ATOM     11  C   UNL     1       5.525   4.622  16.962  0.00  0.00    +0.000 C 
BRANCH  11  12
ATOM     12  O   UNL     1       5.151   3.879  15.825  0.00  0.00    +0.000 OA
BRANCH  12  13
ATOM     13  C   UNL     1       6.217   3.765  14.870  0.00  0.00    +0.000 C 
BRANCH  13  14
ATOM     14  C   UNL     1       5.789   4.255  13.490  0.00  0.00    +0.000 C 
BRANCH  14  15
ATOM     15  C   UNL     1       6.415   3.462  12.357  0.00  0.00    +0.000 C 
BRANCH  15  16
ATOM     16  C   UNL     1       5.317   2.698  11.617  0.00  0.00    +0.000 C 
BRANCH  16  18
ATOM     17  C   UNL     1       3.383   3.499  10.237  0.00  0.00    +0.000 C 
ATOM     18  C   UNL     1       4.018   3.485  11.616  0.00  0.00    +0.000 C 
ENDBRANCH  16  18
ENDBRANCH  15  16
ENDBRANCH  14  15
ENDBRANCH  13  14
ENDBRANCH  12  13
ENDBRANCH  11  12
ENDBRANCH   1  11
TORSDOF 9
ENDMDL
MODEL 6
REMARK VINA RESULT:      -5.6      1.821      2.319
REMARK  Name = 
REMARK  11 active torsions:
REMARK  status: ('A' for Active; 'I' for Inactive)
REMARK    1  A    between atoms: C_1  and  C_2
REMARK    2  A    between atoms: C_2  and  C_3
REMARK    3  A    between atoms: C_3  and  C_4
REMARK    4  A    between atoms: C_4  and  C_5
REMARK    5  A    between atoms: C_5  and  C_6
REMARK    6  A    between atoms: C_6  and  O_7
REMARK    7  A    between atoms: O_7  and  C_8
REMARK    8  A    between atoms: C_8  and  N_9
REMARK    9  A    between atoms: N_12  and  C_13
REMARK   10  A    between atoms: C_14  and  C_15
REMARK   11  A    between atoms: N_16  and  O_17
REMARK                            x       y       z     vdW  Elec       q    Type
REMARK                         _______ _______ _______ _____ _____    ______ ____
ROOT
ATOM      1  N   UNL     1       4.140   4.536  18.701  0.00  0.00    +0.000 N 
ATOM      2  C   UNL     1       3.263   4.943  17.709  0.00  0.00    +0.000 A 
ATOM      3  C   UNL     1       2.255   4.039  17.674  0.00  0.00    +0.000 A 
ATOM      4  N   UNL     1       2.534   3.099  18.645  0.00  0.00    +0.000 N 
ATOM      5  C   UNL     1       1.681   1.949  18.949  0.00  0.00    +0.000 C 
ATOM      6  C   UNL     1       3.694   3.396  19.304  0.00  0.00    +0.000 A 
ENDROOT
BRANCH   6   7
ATOM      7  C   UNL     1       4.248   2.670  20.385  0.00  0.00    +0.000 C 
ATOM      8  N   UNL     1       5.146   1.736  20.271  0.00  0.00    +0.000 NA
BRANCH   8   9
ATOM      9  O   UNL     1       5.447   1.232  21.545  0.00  0.00    +0.000 OA
ATOM     10  H   UNL     1       4.706   1.552  22.099  0.00  0.00    +0.000 HD
ENDBRANCH   8   9
ENDBRANCH   6   7
BRANCH   1  11
ATOM     11  C   UNL     1       5.294   5.329  19.083  0.00  0.00    +0.000 C 
BRANCH  11  12
ATOM     12  O   UNL     1       6.440   4.511  19.099  0.00  0.00    +0.000 OA
BRANCH  12  13
ATOM     13  C   UNL     1       7.380   4.866  18.072  0.00  0.00    +0.000 C 
BRANCH  13  14
ATOM     14  C   UNL     1       7.013   6.190  17.409  0.00  0.00    +0.000 C 
BRANCH  14  15
ATOM     15  C   UNL     1       6.820   6.070  15.908  0.00  0.00    +0.000 C 
BRANCH  15  16
ATOM     16  C   UNL     1       6.814   4.591  15.522  0.00  0.00    +0.000 C 
BRANCH  16  18
ATOM     17  C   UNL     1       6.031   3.710  13.309  0.00  0.00    +0.000 C 
ATOM     18  C   UNL     1       5.608   4.264  14.658  0.00  0.00    +0.000 C 
ENDBRANCH  16  18
ENDBRANCH  15  16
ENDBRANCH  14  15
ENDBRANCH  13  14
ENDBRANCH  12  13
ENDBRANCH  11  12
ENDBRANCH   1  11
TORSDOF 9
ENDMDL
MODEL 7
REMARK VINA RESULT:      -5.6      2.776      5.748
REMARK  Name = 
REMARK  11 active torsions:
REMARK  status: ('A' for Active; 'I' for Inactive)
REMARK    1  A    between atoms: C_1  and  C_2
REMARK    2  A    between atoms: C_2  and  C_3
REMARK    3  A    between atoms: C_3  and  C_4
REMARK    4  A    between atoms: C_4  and  C_5
REMARK    5  A    between atoms: C_5  and  C_6
REMARK    6  A    between atoms: C_6  and  O_7
REMARK    7  A    between atoms: O_7  and  C_8
REMARK    8  A    between atoms: C_8  and  N_9
REMARK    9  A    between atoms: N_12  and  C_13
REMARK   10  A    between atoms: C_14  and  C_15
REMARK   11  A    between atoms: N_16  and  O_17
REMARK                            x       y       z     vdW  Elec       q    Type
REMARK                         _______ _______ _______ _____ _____    ______ ____
ROOT
ATOM      1  N   UNL     1       5.407   4.731  17.632  0.00  0.00    +0.000 N 
ATOM      2  C   UNL     1       5.108   5.140  16.343  0.00  0.00    +0.000 A 
ATOM      3  C   UNL     1       5.826   6.264  16.107  0.00  0.00    +0.000 A 
ATOM      4  N   UNL     1       6.551   6.518  17.254  0.00  0.00    +0.000 N 
ATOM      5  C   UNL     1       7.474   7.642  17.414  0.00  0.00    +0.000 C 
ATOM      6  C   UNL     1       6.314   5.570  18.209  0.00  0.00    +0.000 A 
ENDROOT
BRANCH   6   7
ATOM      7  C   UNL     1       6.926   5.500  19.483  0.00  0.00    +0.000 C 
ATOM      8  N   UNL     1       8.161   5.146  19.697  0.00  0.00    +0.000 NA
BRANCH   8   9
ATOM      9  O   UNL     1       8.414   5.180  21.075  0.00  0.00    +0.000 OA
ATOM     10  H   UNL     1       7.715   5.770  21.424  0.00  0.00    +0.000 HD
ENDBRANCH   8   9
ENDBRANCH   6   7
BRANCH   1  11
ATOM     11  C   UNL     1       4.887   3.495  18.188  0.00  0.00    +0.000 C 
BRANCH  11  12
ATOM     12  O   UNL     1       3.726   3.116  17.487  0.00  0.00    +0.000 OA
BRANCH  12  13
ATOM     13  C   UNL     1       3.001   2.070  18.151  0.00  0.00    +0.000 C 
BRANCH  13  14
ATOM     14  C   UNL     1       1.710   2.591  18.775  0.00  0.00    +0.000 C 
BRANCH  14  15
ATOM     15  C   UNL     1       1.558   4.097  18.657  0.00  0.00    +0.000 C 
BRANCH  15  16
ATOM     16  C   UNL     1       1.859   4.737  20.011  0.00  0.00    +0.000 C 
BRANCH  16  18
ATOM     17  C   UNL     1       2.522   6.557  18.418  0.00  0.00    +0.000 C 
ATOM     18  C   UNL     1       2.161   6.218  19.853  0.00  0.00    +0.000 C 
ENDBRANCH  16  18
ENDBRANCH  15  16
ENDBRANCH  14  15
ENDBRANCH  13  14
ENDBRANCH  12  13
ENDBRANCH  11  12
ENDBRANCH   1  11
TORSDOF 9
ENDMDL
MODEL 8
REMARK VINA RESULT:      -5.6      0.989      1.543
REMARK  Name = 
REMARK  11 active torsions:
REMARK  status: ('A' for Active; 'I' for Inactive)
REMARK    1  A    between atoms: C_1  and  C_2
REMARK    2  A    between atoms: C_2  and  C_3
REMARK    3  A    between atoms: C_3  and  C_4
REMARK    4  A    between atoms: C_4  and  C_5
REMARK    5  A    between atoms: C_5  and  C_6
REMARK    6  A    between atoms: C_6  and  O_7
REMARK    7  A    between atoms: O_7  and  C_8
REMARK    8  A    between atoms: C_8  and  N_9
REMARK    9  A    between atoms: N_12  and  C_13
REMARK   10  A    between atoms: C_14  and  C_15
REMARK   11  A    between atoms: N_16  and  O_17
REMARK                            x       y       z     vdW  Elec       q    Type
REMARK                         _______ _______ _______ _____ _____    ______ ____
ROOT
ATOM      1  N   UNL     1       2.884   4.932  18.861  0.00  0.00    +0.000 N 
ATOM      2  C   UNL     1       2.356   5.920  19.676  0.00  0.00    +0.000 A 
ATOM      3  C   UNL     1       1.796   5.298  20.741  0.00  0.00    +0.000 A 
ATOM      4  N   UNL     1       1.993   3.945  20.557  0.00  0.00    +0.000 N 
ATOM      5  C   UNL     1       1.550   2.912  21.495  0.00  0.00    +0.000 C 
ATOM      6  C   UNL     1       2.679   3.696  19.401  0.00  0.00    +0.000 A 
ENDROOT
BRANCH   6   7
ATOM      7  C   UNL     1       3.090   2.426  18.933  0.00  0.00    +0.000 C 
ATOM      8  N   UNL     1       4.236   1.869  19.203  0.00  0.00    +0.000 NA
BRANCH   8   9
ATOM      9  O   UNL     1       4.301   0.624  18.561  0.00  0.00    +0.000 OA
ATOM     10  H   UNL     1       5.176   0.636  18.124  0.00  0.00    +0.000 HD
ENDBRANCH   8   9
ENDBRANCH   6   7
BRANCH   1  11
ATOM     11  C   UNL     1       3.652   5.244  17.669  0.00  0.00    +0.000 C 
BRANCH  11  12
ATOM     12  O   UNL     1       4.284   6.492  17.832  0.00  0.00    +0.000 OA
BRANCH  12  13
ATOM     13  C   UNL     1       5.688   6.438  17.539  0.00  0.00    +0.000 C 
BRANCH  13  14
ATOM     14  C   UNL     1       6.316   5.141  18.039  0.00  0.00    +0.000 C 
BRANCH  14  15
ATOM     15  C   UNL     1       7.324   4.555  17.067  0.00  0.00    +0.000 C 
BRANCH  15  16
ATOM     16  C   UNL     1       6.918   4.927  15.641  0.00  0.00    +0.000 C 
BRANCH  16  18
ATOM     17  C   UNL     1       6.174   3.865  13.496  0.00  0.00    +0.000 C 
ATOM     18  C   UNL     1       6.086   3.824  15.011  0.00  0.00    +0.000 C 
ENDBRANCH  16  18
ENDBRANCH  15  16
ENDBRANCH  14  15
ENDBRANCH  13  14
ENDBRANCH  12  13
ENDBRANCH  11  12
ENDBRANCH   1  11
TORSDOF 9
ENDMDL
MODEL 9
REMARK VINA RESULT:      -5.5      1.619      1.691
REMARK  Name = 
REMARK  11 active torsions:
REMARK  status: ('A' for Active; 'I' for Inactive)
REMARK    1  A    between atoms: C_1  and  C_2
REMARK    2  A    between atoms: C_2  and  C_3
REMARK    3  A    between atoms: C_3  and  C_4
REMARK    4  A    between atoms: C_4  and  C_5
REMARK    5  A    between atoms: C_5  and  C_6
REMARK    6  A    between atoms: C_6  and  O_7
REMARK    7  A    between atoms: O_7  and  C_8
REMARK    8  A    between atoms: C_8  and  N_9
REMARK    9  A    between atoms: N_12  and  C_13
REMARK   10  A    between atoms: C_14  and  C_15
REMARK   11  A    between atoms: N_16  and  O_17
REMARK                            x       y       z     vdW  Elec       q    Type
REMARK                         _______ _______ _______ _____ _____    ______ ____
ROOT
ATOM      1  N   UNL     1       3.698   4.420  18.441  0.00  0.00    +0.000 N 
ATOM      2  C   UNL     1       2.553   4.868  17.803  0.00  0.00    +0.000 A 
ATOM      3  C   UNL     1       1.501   4.265  18.408  0.00  0.00    +0.000 A 
ATOM      4  N   UNL     1       2.023   3.463  19.403  0.00  0.00    +0.000 N 
ATOM      5  C   UNL     1       1.218   2.644  20.309  0.00  0.00    +0.000 C 
ATOM      6  C   UNL     1       3.387   3.555  19.448  0.00  0.00    +0.000 A 
ENDROOT
BRANCH   6   7
ATOM      7  C   UNL     1       4.235   2.904  20.375  0.00  0.00    +0.000 C 
ATOM      8  N   UNL     1       4.766   1.728  20.199  0.00  0.00    +0.000 NA
BRANCH   8   9
ATOM      9  O   UNL     1       5.533   1.400  21.326  0.00  0.00    +0.000 OA
ATOM     10  H   UNL     1       6.185   2.128  21.380  0.00  0.00    +0.000 HD
ENDBRANCH   8   9
ENDBRANCH   6   7
BRANCH   1  11
ATOM     11  C   UNL     1       5.015   4.938  18.114  0.00  0.00    +0.000 C 
BRANCH  11  12
ATOM     12  O   UNL     1       5.258   4.768  16.738  0.00  0.00    +0.000 OA
BRANCH  12  13
ATOM     13  C   UNL     1       6.489   5.377  16.319  0.00  0.00    +0.000 C 
BRANCH  13  14
ATOM     14  C   UNL     1       7.029   4.733  15.046  0.00  0.00    +0.000 C 
BRANCH  14  15
ATOM     15  C   UNL     1       5.972   3.967  14.272  0.00  0.00    +0.000 C 
BRANCH  15  16
ATOM     16  C   UNL     1       6.409   3.847  12.813  0.00  0.00    +0.000 C 
BRANCH  16  18
ATOM     17  C   UNL     1       5.781   1.829  11.464  0.00  0.00    +0.000 C 
ATOM     18  C   UNL     1       5.327   3.183  11.978  0.00  0.00    +0.000 C 
ENDBRANCH  16  18
ENDBRANCH  15  16
ENDBRANCH  14  15
ENDBRANCH  13  14
ENDBRANCH  12  13
ENDBRANCH  11  12
ENDBRANCH   1  11
TORSDOF 9
ENDMDL
