MODEL 1
REMARK VINA RESULT:      -6.3      0.000      0.000
REMARK  Name = 
REMARK  5 active torsions:
REMARK  status: ('A' for Active; 'I' for Inactive)
REMARK    1  A    between atoms: C_1  and  C_2
REMARK    2  A    between atoms: C_13  and  C_14
REMARK    3  A    between atoms: N_16  and  C_17
REMARK    4  A    between atoms: N_16  and  C_18
REMARK    5  A    between atoms: C_27  and  N_28
REMARK                            x       y       z     vdW  Elec       q    Type
REMARK                         _______ _______ _______ _____ _____    ______ ____
ROOT
ATOM      1  C   UNL     1       1.440  15.134  20.558  0.00  0.00    +0.000 C 
ATOM      2  O   UNL     1       2.105  14.554  21.421  0.00  0.00    +0.000 OA
ATOM      3  N   UNL     1       0.043  15.081  20.567  0.00  0.00    +0.000 N 
ATOM      4  C   UNL     1      -0.828  15.807  19.654  0.00  0.00    +0.000 C 
ENDROOT
BRANCH   1  17
ATOM      5  C   UNL     1       2.650  13.351  18.667  0.00  0.00    +0.000 C 
ATOM      6  C   UNL     1       2.832  14.840  18.374  0.00  0.00    +0.000 C 
ATOM      7  C   UNL     1       4.287  15.225  18.429  0.00  0.00    +0.000 A 
ATOM      8  C   UNL     1       5.370  14.662  17.760  0.00  0.00    +0.000 A 
ATOM      9  C   UNL     1       6.638  15.189  18.060  0.00  0.00    +0.000 A 
ATOM     10  C   UNL     1       6.808  16.250  18.970  0.00  0.00    +0.000 A 
ATOM     11  C   UNL     1       5.691  16.819  19.608  0.00  0.00    +0.000 A 
ATOM     12  C   UNL     1       5.700  17.881  20.529  0.00  0.00    +0.000 A 
ATOM     13  C   UNL     1       4.496  18.338  21.093  0.00  0.00    +0.000 A 
ATOM     14  C   UNL     1       3.257  17.753  20.776  0.00  0.00    +0.000 A 
ATOM     15  C   UNL     1       3.285  16.692  19.878  0.00  0.00    +0.000 A 
ATOM     16  C   UNL     1       4.469  16.271  19.311  0.00  0.00    +0.000 A 
ATOM     17  C   UNL     1       2.140  15.845  19.395  0.00  0.00    +0.000 C 
ENDBRANCH   1  17
BRANCH   3  18
ATOM     18  C   UNL     1      -0.644  14.242  21.587  0.00  0.00    +0.000 C 
ATOM     19  C   UNL     1      -1.440  15.130  22.565  0.00  0.00    +0.000 C 
ATOM     20  C   UNL     1      -2.137  14.318  23.651  0.00  0.00    +0.000 C 
ATOM     21  C   UNL     1      -3.059  13.251  23.055  0.00  0.00    +0.000 C 
ATOM     22  C   UNL     1      -3.763  12.430  24.147  0.00  0.00    +0.000 C 
ATOM     23  C   UNL     1      -5.210  12.854  24.063  0.00  0.00    +0.000 C 
ATOM     24  C   UNL     1      -5.348  13.301  22.629  0.00  0.00    +0.000 C 
ATOM     25  O   UNL     1      -4.095  13.903  22.301  0.00  0.00    +0.000 OA
ATOM     26  C   UNL     1      -2.265  12.326  22.125  0.00  0.00    +0.000 C 
ATOM     27  C   UNL     1      -1.496  13.062  20.999  0.00  0.00    +0.000 C 
BRANCH  27  28
ATOM     28  N   UNL     1      -0.675  12.140  20.165  0.00  0.00    +0.000 NA
ATOM     29  C   UNL     1      -0.173  10.928  20.809  0.00  0.00    +0.000 C 
ATOM     30  C   UNL     1       0.211  10.043  19.639  0.00  0.00    +0.000 C 
ATOM     31  C   UNL     1      -0.878  10.323  18.623  0.00  0.00    +0.000 C 
ATOM     32  C   UNL     1      -1.308  11.759  18.897  0.00  0.00    +0.000 C 
ENDBRANCH  27  28
ENDBRANCH   3  18
TORSDOF 3
ENDMDL
MODEL 2
REMARK VINA RESULT:      -6.3      2.854      7.674
REMARK  Name = 
REMARK  5 active torsions:
REMARK  status: ('A' for Active; 'I' for Inactive)
REMARK    1  A    between atoms: C_1  and  C_2
REMARK    2  A    between atoms: C_13  and  C_14
REMARK    3  A    between atoms: N_16  and  C_17
REMARK    4  A    between atoms: N_16  and  C_18
REMARK    5  A    between atoms: C_27  and  N_28
REMARK                            x       y       z     vdW  Elec       q    Type
REMARK                         _______ _______ _______ _____ _____    ______ ____
ROOT
ATOM      1  C   UNL     1      -1.480  12.680  20.451  0.00  0.00    +0.000 C 
ATOM      2  O   UNL     1      -1.400  13.654  19.699  0.00  0.00    +0.000 OA
ATOM      3  N   UNL     1      -0.836  12.673  21.693  0.00  0.00    +0.000 N 
ATOM      4  C   UNL     1      -0.949  11.616  22.687  0.00  0.00    +0.000 C 
ENDROOT
BRANCH   1  17
ATOM      5  C   UNL     1       0.074  11.013  18.712  0.00  0.00    +0.000 C 
ATOM      6  C   UNL     1      -1.340  10.516  19.006  0.00  0.00    +0.000 C 
ATOM      7  C   UNL     1      -2.168  10.475  17.747  0.00  0.00    +0.000 A 
ATOM      8  C   UNL     1      -1.888   9.857  16.532  0.00  0.00    +0.000 A 
ATOM      9  C   UNL     1      -2.824  10.045  15.500  0.00  0.00    +0.000 A 
ATOM     10  C   UNL     1      -3.999  10.797  15.688  0.00  0.00    +0.000 A 
ATOM     11  C   UNL     1      -4.269  11.384  16.937  0.00  0.00    +0.000 A 
ATOM     12  C   UNL     1      -5.397  12.152  17.278  0.00  0.00    +0.000 A 
ATOM     13  C   UNL     1      -5.525  12.684  18.572  0.00  0.00    +0.000 A 
ATOM     14  C   UNL     1      -4.542  12.487  19.559  0.00  0.00    +0.000 A 
ATOM     15  C   UNL     1      -3.430  11.741  19.183  0.00  0.00    +0.000 A 
ATOM     16  C   UNL     1      -3.329  11.201  17.919  0.00  0.00    +0.000 A 
ATOM     17  C   UNL     1      -2.207  11.411  19.995  0.00  0.00    +0.000 C 
ENDBRANCH   1  17
BRANCH   3  18
ATOM     18  C   UNL     1       0.024  13.828  22.070  0.00  0.00    +0.000 C 
ATOM     19  C   UNL     1       1.240  13.923  21.127  0.00  0.00    +0.000 C 
ATOM     20  C   UNL     1       2.171  15.074  21.494  0.00  0.00    +0.000 C 
ATOM     21  C   UNL     1       1.430  16.413  21.520  0.00  0.00    +0.000 C 
ATOM     22  C   UNL     1       2.365  17.575  21.890  0.00  0.00    +0.000 C 
ATOM     23  C   UNL     1       2.501  18.371  20.614  0.00  0.00    +0.000 C 
ATOM     24  C   UNL     1       1.221  18.054  19.881  0.00  0.00    +0.000 C 
ATOM     25  O   UNL     1       0.932  16.693  20.201  0.00  0.00    +0.000 OA
ATOM     26  C   UNL     1       0.252  16.347  22.500  0.00  0.00    +0.000 C 
ATOM     27  C   UNL     1      -0.741  15.190  22.226  0.00  0.00    +0.000 C 
BRANCH  27  28
ATOM     28  N   UNL     1      -1.826  15.111  23.243  0.00  0.00    +0.000 NA
ATOM     29  C   UNL     1      -1.424  14.923  24.635  0.00  0.00    +0.000 C 
ATOM     30  C   UNL     1      -2.662  15.319  25.415  0.00  0.00    +0.000 C 
ATOM     31  C   UNL     1      -3.208  16.491  24.623  0.00  0.00    +0.000 C 
ATOM     32  C   UNL     1      -2.780  16.225  23.184  0.00  0.00    +0.000 C 
ENDBRANCH  27  28
ENDBRANCH   3  18
TORSDOF 3
ENDMDL
MODEL 3
REMARK VINA RESULT:      -6.2      1.057      1.148
REMARK  Name = 
REMARK  5 active torsions:
REMARK  status: ('A' for Active; 'I' for Inactive)
REMARK    1  A    between atoms: C_1  and  C_2
REMARK    2  A    between atoms: C_13  and  C_14
REMARK    3  A    between atoms: N_16  and  C_17
REMARK    4  A    between atoms: N_16  and  C_18
REMARK    5  A    between atoms: C_27  and  N_28
REMARK                            x       y       z     vdW  Elec       q    Type
REMARK                         _______ _______ _______ _____ _____    ______ ____
ROOT
ATOM      1  C   UNL     1       2.319  14.908  20.991  0.00  0.00    +0.000 C 
ATOM      2  O   UNL     1       2.851  14.029  21.674  0.00  0.00    +0.000 OA
ATOM      3  N   UNL     1       0.932  15.084  20.996  0.00  0.00    +0.000 N 
ATOM      4  C   UNL     1       0.221  16.149  20.304  0.00  0.00    +0.000 C 
ENDROOT
BRANCH   1  17
ATOM      5  C   UNL     1       2.909  13.633  18.493  0.00  0.00    +0.000 C 
ATOM      6  C   UNL     1       3.507  15.028  18.675  0.00  0.00    +0.000 C 
ATOM      7  C   UNL     1       5.012  14.972  18.670  0.00  0.00    +0.000 A 
ATOM      8  C   UNL     1       5.867  14.409  17.727  0.00  0.00    +0.000 A 
ATOM      9  C   UNL     1       7.241  14.447  18.021  0.00  0.00    +0.000 A 
ATOM     10  C   UNL     1       7.735  15.044  19.196  0.00  0.00    +0.000 A 
ATOM     11  C   UNL     1       6.849  15.633  20.116  0.00  0.00    +0.000 A 
ATOM     12  C   UNL     1       7.190  16.270  21.322  0.00  0.00    +0.000 A 
ATOM     13  C   UNL     1       6.186  16.806  22.148  0.00  0.00    +0.000 A 
ATOM     14  C   UNL     1       4.822  16.715  21.815  0.00  0.00    +0.000 A 
ATOM     15  C   UNL     1       4.518  16.060  20.627  0.00  0.00    +0.000 A 
ATOM     16  C   UNL     1       5.513  15.564  19.812  0.00  0.00    +0.000 A 
ATOM     17  C   UNL     1       3.164  15.765  20.043  0.00  0.00    +0.000 C 
ENDBRANCH   1  17
BRANCH   3  18
ATOM     18  C   UNL     1       0.084  14.140  21.775  0.00  0.00    +0.000 C 
ATOM     19  C   UNL     1      -0.622  14.880  22.929  0.00  0.00    +0.000 C 
ATOM     20  C   UNL     1      -1.480  13.947  23.778  0.00  0.00    +0.000 C 
ATOM     21  C   UNL     1      -2.515  13.203  22.931  0.00  0.00    +0.000 C 
ATOM     22  C   UNL     1      -3.381  12.262  23.783  0.00  0.00    +0.000 C 
ATOM     23  C   UNL     1      -4.747  12.906  23.787  0.00  0.00    +0.000 C 
ATOM     24  C   UNL     1      -4.750  13.697  22.503  0.00  0.00    +0.000 C 
ATOM     25  O   UNL     1      -3.410  14.164  22.345  0.00  0.00    +0.000 OA
ATOM     26  C   UNL     1      -1.818  12.417  21.813  0.00  0.00    +0.000 C 
ATOM     27  C   UNL     1      -0.899  13.276  20.908  0.00  0.00    +0.000 C 
BRANCH  27  28
ATOM     28  N   UNL     1      -0.180  12.466  19.886  0.00  0.00    +0.000 NA
ATOM     29  C   UNL     1       0.647  11.363  20.369  0.00  0.00    +0.000 C 
ATOM     30  C   UNL     1       0.860  10.514  19.131  0.00  0.00    +0.000 C 
ATOM     31  C   UNL     1      -0.479  10.597  18.424  0.00  0.00    +0.000 C 
ATOM     32  C   UNL     1      -1.043  11.958  18.812  0.00  0.00    +0.000 C 
ENDBRANCH  27  28
ENDBRANCH   3  18
TORSDOF 3
ENDMDL
MODEL 4
REMARK VINA RESULT:      -6.1      1.868      8.348
REMARK  Name = 
REMARK  5 active torsions:
REMARK  status: ('A' for Active; 'I' for Inactive)
REMARK    1  A    between atoms: C_1  and  C_2
REMARK    2  A    between atoms: C_13  and  C_14
REMARK    3  A    between atoms: N_16  and  C_17
REMARK    4  A    between atoms: N_16  and  C_18
REMARK    5  A    between atoms: C_27  and  N_28
REMARK                            x       y       z     vdW  Elec       q    Type
REMARK                         _______ _______ _______ _____ _____    ______ ____
ROOT
ATOM      1  C   UNL     1      -2.263  15.234  21.964  0.00  0.00    +0.000 C 
ATOM      2  O   UNL     1      -2.916  15.140  20.921  0.00  0.00    +0.000 OA
ATOM      3  N   UNL     1      -0.873  15.375  21.933  0.00  0.00    +0.000 N 
ATOM      4  C   UNL     1      -0.028  15.590  23.099  0.00  0.00    +0.000 C 
ENDROOT
BRANCH   1  17
ATOM      5  C   UNL     1      -2.979  12.541  22.636  0.00  0.00    +0.000 C 
ATOM      6  C   UNL     1      -3.375  13.601  23.663  0.00  0.00    +0.000 C 
ATOM      7  C   UNL     1      -4.873  13.675  23.809  0.00  0.00    +0.000 A 
ATOM      8  C   UNL     1      -5.780  12.655  24.079  0.00  0.00    +0.000 A 
ATOM      9  C   UNL     1      -7.140  13.009  24.092  0.00  0.00    +0.000 A 
ATOM     10  C   UNL     1      -7.567  14.332  23.870  0.00  0.00    +0.000 A 
ATOM     11  C   UNL     1      -6.625  15.348  23.631  0.00  0.00    +0.000 A 
ATOM     12  C   UNL     1      -6.895  16.708  23.401  0.00  0.00    +0.000 A 
ATOM     13  C   UNL     1      -5.842  17.609  23.167  0.00  0.00    +0.000 A 
ATOM     14  C   UNL     1      -4.499  17.192  23.138  0.00  0.00    +0.000 A 
ATOM     15  C   UNL     1      -4.267  15.837  23.348  0.00  0.00    +0.000 A 
ATOM     16  C   UNL     1      -5.306  14.969  23.604  0.00  0.00    +0.000 A 
ATOM     17  C   UNL     1      -2.957  15.098  23.323  0.00  0.00    +0.000 C 
ENDBRANCH   1  17
BRANCH   3  18
ATOM     18  C   UNL     1      -0.167  15.327  20.623  0.00  0.00    +0.000 C 
ATOM     19  C   UNL     1       0.708  16.583  20.438  0.00  0.00    +0.000 C 
ATOM     20  C   UNL     1       1.428  16.596  19.093  0.00  0.00    +0.000 C 
ATOM     21  C   UNL     1       2.279  15.339  18.896  0.00  0.00    +0.000 C 
ATOM     22  C   UNL     1       3.006  15.349  17.542  0.00  0.00    +0.000 C 
ATOM     23  C   UNL     1       4.461  15.538  17.896  0.00  0.00    +0.000 C 
ATOM     24  C   UNL     1       4.544  14.974  19.292  0.00  0.00    +0.000 C 
ATOM     25  O   UNL     1       3.300  15.308  19.907  0.00  0.00    +0.000 OA
ATOM     26  C   UNL     1       1.407  14.084  19.022  0.00  0.00    +0.000 C 
ATOM     27  C   UNL     1       0.610  13.991  20.348  0.00  0.00    +0.000 C 
BRANCH  27  28
ATOM     28  N   UNL     1      -0.283  12.801  20.400  0.00  0.00    +0.000 NA
ATOM     29  C   UNL     1      -1.101  12.529  19.220  0.00  0.00    +0.000 C 
ATOM     30  C   UNL     1      -1.524  11.086  19.411  0.00  0.00    +0.000 C 
ATOM     31  C   UNL     1      -0.289  10.442  20.010  0.00  0.00    +0.000 C 
ATOM     32  C   UNL     1       0.399  11.560  20.784  0.00  0.00    +0.000 C 
ENDBRANCH  27  28
ENDBRANCH   3  18
TORSDOF 3
ENDMDL
MODEL 5
REMARK VINA RESULT:      -6.1      5.118      8.092
REMARK  Name = 
REMARK  5 active torsions:
REMARK  status: ('A' for Active; 'I' for Inactive)
REMARK    1  A    between atoms: C_1  and  C_2
REMARK    2  A    between atoms: C_13  and  C_14
REMARK    3  A    between atoms: N_16  and  C_17
REMARK    4  A    between atoms: N_16  and  C_18
REMARK    5  A    between atoms: C_27  and  N_28
REMARK                            x       y       z     vdW  Elec       q    Type
REMARK                         _______ _______ _______ _____ _____    ______ ____
ROOT
ATOM      1  C   UNL     1       8.665  14.410  21.709  0.00  0.00    +0.000 C 
ATOM      2  O   UNL     1       7.724  14.172  20.948  0.00  0.00    +0.000 OA
ATOM      3  N   UNL     1       8.464  15.089  22.914  0.00  0.00    +0.000 N 
ATOM      4  C   UNL     1       9.489  15.331  23.919  0.00  0.00    +0.000 C 
ENDROOT
BRANCH   1  17
ATOM      5  C   UNL     1      10.040  16.514  20.331  0.00  0.00    +0.000 C 
ATOM      6  C   UNL     1      10.831  15.219  20.508  0.00  0.00    +0.000 C 
ATOM      7  C   UNL     1      11.152  14.598  19.174  0.00  0.00    +0.000 A 
ATOM      8  C   UNL     1      11.770  15.168  18.065  0.00  0.00    +0.000 A 
ATOM      9  C   UNL     1      11.878  14.360  16.920  0.00  0.00    +0.000 A 
ATOM     10  C   UNL     1      11.409  13.033  16.897  0.00  0.00    +0.000 A 
ATOM     11  C   UNL     1      10.816  12.474  18.043  0.00  0.00    +0.000 A 
ATOM     12  C   UNL     1      10.310  11.169  18.176  0.00  0.00    +0.000 A 
ATOM     13  C   UNL     1       9.734  10.753  19.389  0.00  0.00    +0.000 A 
ATOM     14  C   UNL     1       9.628  11.615  20.496  0.00  0.00    +0.000 A 
ATOM     15  C   UNL     1      10.119  12.905  20.325  0.00  0.00    +0.000 A 
ATOM     16  C   UNL     1      10.707  13.291  19.140  0.00  0.00    +0.000 A 
ATOM     17  C   UNL     1      10.097  14.050  21.299  0.00  0.00    +0.000 C 
ENDBRANCH   1  17
BRANCH   3  18
ATOM     18  C   UNL     1       7.105  15.604  23.239  0.00  0.00    +0.000 C 
ATOM     19  C   UNL     1       6.717  16.742  22.273  0.00  0.00    +0.000 C 
ATOM     20  C   UNL     1       5.343  17.326  22.587  0.00  0.00    +0.000 C 
ATOM     21  C   UNL     1       4.256  16.249  22.579  0.00  0.00    +0.000 C 
ATOM     22  C   UNL     1       2.871  16.833  22.894  0.00  0.00    +0.000 C 
ATOM     23  C   UNL     1       2.116  16.739  21.590  0.00  0.00    +0.000 C 
ATOM     24  C   UNL     1       2.796  15.590  20.889  0.00  0.00    +0.000 C 
ATOM     25  O   UNL     1       4.172  15.685  21.259  0.00  0.00    +0.000 OA
ATOM     26  C   UNL     1       4.604  15.139  23.579  0.00  0.00    +0.000 C 
ATOM     27  C   UNL     1       5.998  14.498  23.360  0.00  0.00    +0.000 C 
BRANCH  27  28
ATOM     28  N   UNL     1       6.332  13.481  24.396  0.00  0.00    +0.000 NA
ATOM     29  C   UNL     1       5.532  13.486  25.618  0.00  0.00    +0.000 C 
ATOM     30  C   UNL     1       5.810  12.125  26.226  0.00  0.00    +0.000 C 
ATOM     31  C   UNL     1       5.881  11.216  25.015  0.00  0.00    +0.000 C 
ATOM     32  C   UNL     1       6.387  12.106  23.886  0.00  0.00    +0.000 C 
ENDBRANCH  27  28
ENDBRANCH   3  18
TORSDOF 3
ENDMDL
MODEL 6
REMARK VINA RESULT:      -6.0      3.346      7.058
REMARK  Name = 
REMARK  5 active torsions:
REMARK  status: ('A' for Active; 'I' for Inactive)
REMARK    1  A    between atoms: C_1  and  C_2
REMARK    2  A    between atoms: C_13  and  C_14
REMARK    3  A    between atoms: N_16  and  C_17
REMARK    4  A    between atoms: N_16  and  C_18
REMARK    5  A    between atoms: C_27  and  N_28
REMARK                            x       y       z     vdW  Elec       q    Type
REMARK                         _______ _______ _______ _____ _____    ______ ____
ROOT
ATOM      1  C   UNL     1      -1.120  13.765  20.430  0.00  0.00    +0.000 C 
ATOM      2  O   UNL     1      -1.232  12.663  20.973  0.00  0.00    +0.000 OA
ATOM      3  N   UNL     1      -0.522  13.892  19.172  0.00  0.00    +0.000 N 
ATOM      4  C   UNL     1      -0.431  15.129  18.410  0.00  0.00    +0.000 C 
ENDROOT
BRANCH   1  17
ATOM      5  C   UNL     1       0.885  14.810  22.192  0.00  0.00    +0.000 C 
ATOM      6  C   UNL     1      -0.433  15.582  22.166  0.00  0.00    +0.000 C 
ATOM      7  C   UNL     1      -1.108  15.537  23.513  0.00  0.00    +0.000 A 
ATOM      8  C   UNL     1      -0.597  15.873  24.763  0.00  0.00    +0.000 A 
ATOM      9  C   UNL     1      -1.443  15.665  25.866  0.00  0.00    +0.000 A 
ATOM     10  C   UNL     1      -2.752  15.166  25.717  0.00  0.00    +0.000 A 
ATOM     11  C   UNL     1      -3.251  14.865  24.437  0.00  0.00    +0.000 A 
ATOM     12  C   UNL     1      -4.531  14.370  24.129  0.00  0.00    +0.000 A 
ATOM     13  C   UNL     1      -4.886  14.106  22.796  0.00  0.00    +0.000 A 
ATOM     14  C   UNL     1      -3.986  14.308  21.733  0.00  0.00    +0.000 A 
ATOM     15  C   UNL     1      -2.722  14.778  22.073  0.00  0.00    +0.000 A 
ATOM     16  C   UNL     1      -2.396  15.059  23.382  0.00  0.00    +0.000 A 
ATOM     17  C   UNL     1      -1.547  15.036  21.171  0.00  0.00    +0.000 C 
ENDBRANCH   1  17
BRANCH   3  18
ATOM     18  C   UNL     1       0.061  12.686  18.521  0.00  0.00    +0.000 C 
ATOM     19  C   UNL     1       1.462  12.391  19.095  0.00  0.00    +0.000 C 
ATOM     20  C   UNL     1       2.116  11.181  18.435  0.00  0.00    +0.000 C 
ATOM     21  C   UNL     1       1.237   9.933  18.547  0.00  0.00    +0.000 C 
ATOM     22  C   UNL     1       1.893   8.712  17.883  0.00  0.00    +0.000 C 
ATOM     23  C   UNL     1       2.262   7.808  19.035  0.00  0.00    +0.000 C 
ATOM     24  C   UNL     1       1.269   8.199  20.101  0.00  0.00    +0.000 C 
ATOM     25  O   UNL     1       1.074   9.604  19.937  0.00  0.00    +0.000 OA
ATOM     26  C   UNL     1      -0.140  10.198  17.927  0.00  0.00    +0.000 C 
ATOM     27  C   UNL     1      -0.877  11.428  18.514  0.00  0.00    +0.000 C 
BRANCH  27  28
ATOM     28  N   UNL     1      -2.174  11.700  17.834  0.00  0.00    +0.000 NA
ATOM     29  C   UNL     1      -2.412  11.028  16.559  0.00  0.00    +0.000 C 
ATOM     30  C   UNL     1      -3.911  11.152  16.370  0.00  0.00    +0.000 C 
ATOM     31  C   UNL     1      -4.451  10.970  17.775  0.00  0.00    +0.000 C 
ATOM     32  C   UNL     1      -3.350  11.497  18.688  0.00  0.00    +0.000 C 
ENDBRANCH  27  28
ENDBRANCH   3  18
TORSDOF 3
ENDMDL
MODEL 7
REMARK VINA RESULT:      -5.9      6.270      8.138
REMARK  Name = 
REMARK  5 active torsions:
REMARK  status: ('A' for Active; 'I' for Inactive)
REMARK    1  A    between atoms: C_1  and  C_2
REMARK    2  A    between atoms: C_13  and  C_14
REMARK    3  A    between atoms: N_16  and  C_17
REMARK    4  A    between atoms: N_16  and  C_18
REMARK    5  A    between atoms: C_27  and  N_28
REMARK                            x       y       z     vdW  Elec       q    Type
REMARK                         _______ _______ _______ _____ _____    ______ ____
ROOT
ATOM      1  C   UNL     1       8.208  15.370  20.656  0.00  0.00    +0.000 C 
ATOM      2  O   UNL     1       9.272  15.751  21.151  0.00  0.00    +0.000 OA
ATOM      3  N   UNL     1       6.997  15.533  21.335  0.00  0.00    +0.000 N 
ATOM      4  C   UNL     1       5.685  15.206  20.797  0.00  0.00    +0.000 C 
ENDROOT
BRANCH   1  17
ATOM      5  C   UNL     1       8.957  12.612  20.882  0.00  0.00    +0.000 C 
ATOM      6  C   UNL     1       8.654  13.096  19.465  0.00  0.00    +0.000 C 
ATOM      7  C   UNL     1       9.880  13.004  18.593  0.00  0.00    +0.000 A 
ATOM      8  C   UNL     1      10.711  11.913  18.357  0.00  0.00    +0.000 A 
ATOM      9  C   UNL     1      11.832  12.140  17.541  0.00  0.00    +0.000 A 
ATOM     10  C   UNL     1      12.093  13.399  16.967  0.00  0.00    +0.000 A 
ATOM     11  C   UNL     1      11.218  14.476  17.198  0.00  0.00    +0.000 A 
ATOM     12  C   UNL     1      11.339  15.782  16.691  0.00  0.00    +0.000 A 
ATOM     13  C   UNL     1      10.385  16.759  17.019  0.00  0.00    +0.000 A 
ATOM     14  C   UNL     1       9.295  16.482  17.865  0.00  0.00    +0.000 A 
ATOM     15  C   UNL     1       9.216  15.187  18.366  0.00  0.00    +0.000 A 
ATOM     16  C   UNL     1      10.143  14.230  18.014  0.00  0.00    +0.000 A 
ATOM     17  C   UNL     1       8.206  14.615  19.323  0.00  0.00    +0.000 C 
ENDBRANCH   1  17
BRANCH   3  18
ATOM     18  C   UNL     1       7.008  16.101  22.711  0.00  0.00    +0.000 C 
ATOM     19  C   UNL     1       6.309  17.476  22.730  0.00  0.00    +0.000 C 
ATOM     20  C   UNL     1       6.324  18.115  24.115  0.00  0.00    +0.000 C 
ATOM     21  C   UNL     1       5.692  17.200  25.167  0.00  0.00    +0.000 C 
ATOM     22  C   UNL     1       5.705  17.840  26.564  0.00  0.00    +0.000 C 
ATOM     23  C   UNL     1       4.255  18.150  26.850  0.00  0.00    +0.000 C 
ATOM     24  C   UNL     1       3.521  17.138  26.007  0.00  0.00    +0.000 C 
ATOM     25  O   UNL     1       4.312  16.987  24.827  0.00  0.00    +0.000 OA
ATOM     26  C   UNL     1       6.418  15.849  25.196  0.00  0.00    +0.000 C 
ATOM     27  C   UNL     1       6.481  15.129  23.825  0.00  0.00    +0.000 C 
BRANCH  27  28
ATOM     28  N   UNL     1       7.260  13.861  23.877  0.00  0.00    +0.000 NA
ATOM     29  C   UNL     1       8.134  13.661  25.030  0.00  0.00    +0.000 C 
ATOM     30  C   UNL     1       8.413  12.171  25.006  0.00  0.00    +0.000 C 
ATOM     31  C   UNL     1       7.086  11.580  24.574  0.00  0.00    +0.000 C 
ATOM     32  C   UNL     1       6.444  12.653  23.702  0.00  0.00    +0.000 C 
ENDBRANCH  27  28
ENDBRANCH   3  18
TORSDOF 3
ENDMDL
MODEL 8
REMARK VINA RESULT:      -5.9      4.232      7.512
REMARK  Name = 
REMARK  5 active torsions:
REMARK  status: ('A' for Active; 'I' for Inactive)
REMARK    1  A    between atoms: C_1  and  C_2
REMARK    2  A    between atoms: C_13  and  C_14
REMARK    3  A    between atoms: N_16  and  C_17
REMARK    4  A    between atoms: N_16  and  C_18
REMARK    5  A    between atoms: C_27  and  N_28
REMARK                            x       y       z     vdW  Elec       q    Type
REMARK                         _______ _______ _______ _____ _____    ______ ____
ROOT
ATOM      1  C   UNL     1       7.746  15.542  20.166  0.00  0.00    +0.000 C 
ATOM      2  O   UNL     1       7.107  14.543  19.828  0.00  0.00    +0.000 OA
ATOM      3  N   UNL     1       7.096  16.719  20.549  0.00  0.00    +0.000 N 
ATOM      4  C   UNL     1       7.756  17.914  21.054  0.00  0.00    +0.000 C 
ENDROOT
BRANCH   1  17
ATOM      5  C   UNL     1       8.757  16.410  17.627  0.00  0.00    +0.000 C 
ATOM      6  C   UNL     1       9.816  16.000  18.649  0.00  0.00    +0.000 C 
ATOM      7  C   UNL     1      10.594  14.804  18.166  0.00  0.00    +0.000 A 
ATOM      8  C   UNL     1      11.265  14.620  16.961  0.00  0.00    +0.000 A 
ATOM      9  C   UNL     1      11.853  13.360  16.754  0.00  0.00    +0.000 A 
ATOM     10  C   UNL     1      11.792  12.341  17.722  0.00  0.00    +0.000 A 
ATOM     11  C   UNL     1      11.132  12.566  18.944  0.00  0.00    +0.000 A 
ATOM     12  C   UNL     1      10.994  11.654  20.006  0.00  0.00    +0.000 A 
ATOM     13  C   UNL     1      10.296  12.022  21.168  0.00  0.00    +0.000 A 
ATOM     14  C   UNL     1       9.703  13.290  21.310  0.00  0.00    +0.000 A 
ATOM     15  C   UNL     1       9.839  14.160  20.234  0.00  0.00    +0.000 A 
ATOM     16  C   UNL     1      10.551  13.798  19.111  0.00  0.00    +0.000 A 
ATOM     17  C   UNL     1       9.276  15.546  20.075  0.00  0.00    +0.000 C 
ENDBRANCH   1  17
BRANCH   3  18
ATOM     18  C   UNL     1       5.611  16.786  20.467  0.00  0.00    +0.000 C 
ATOM     19  C   UNL     1       5.146  16.626  19.005  0.00  0.00    +0.000 C 
ATOM     20  C   UNL     1       3.630  16.721  18.865  0.00  0.00    +0.000 C 
ATOM     21  C   UNL     1       2.915  15.697  19.749  0.00  0.00    +0.000 C 
ATOM     22  C   UNL     1       1.388  15.789  19.610  0.00  0.00    +0.000 C 
ATOM     23  C   UNL     1       0.998  14.524  18.884  0.00  0.00    +0.000 C 
ATOM     24  C   UNL     1       2.108  13.571  19.248  0.00  0.00    +0.000 C 
ATOM     25  O   UNL     1       3.285  14.375  19.321  0.00  0.00    +0.000 OA
ATOM     26  C   UNL     1       3.327  15.885  21.215  0.00  0.00    +0.000 C 
ATOM     27  C   UNL     1       4.856  15.832  21.459  0.00  0.00    +0.000 C 
BRANCH  27  28
ATOM     28  N   UNL     1       5.221  16.096  22.878  0.00  0.00    +0.000 NA
ATOM     29  C   UNL     1       4.151  16.531  23.772  0.00  0.00    +0.000 C 
ATOM     30  C   UNL     1       4.726  16.286  25.154  0.00  0.00    +0.000 C 
ATOM     31  C   UNL     1       5.496  14.991  24.982  0.00  0.00    +0.000 C 
ATOM     32  C   UNL     1       5.942  14.992  23.525  0.00  0.00    +0.000 C 
ENDBRANCH  27  28
ENDBRANCH   3  18
TORSDOF 3
ENDMDL
MODEL 9
REMARK VINA RESULT:      -5.9      2.492      8.794
REMARK  Name = 
REMARK  5 active torsions:
REMARK  status: ('A' for Active; 'I' for Inactive)
REMARK    1  A    between atoms: C_1  and  C_2
REMARK    2  A    between atoms: C_13  and  C_14
REMARK    3  A    between atoms: N_16  and  C_17
REMARK    4  A    between atoms: N_16  and  C_18
REMARK    5  A    between atoms: C_27  and  N_28
REMARK                            x       y       z     vdW  Elec       q    Type
REMARK                         _______ _______ _______ _____ _____    ______ ____
ROOT
ATOM      1  C   UNL     1       2.319  14.451  19.559  0.00  0.00    +0.000 C 
ATOM      2  O   UNL     1       2.575  13.273  19.821  0.00  0.00    +0.000 OA
ATOM      3  N   UNL     1       3.328  15.342  19.181  0.00  0.00    +0.000 N 
ATOM      4  C   UNL     1       3.113  16.720  18.762  0.00  0.00    +0.000 C 
ENDROOT
BRANCH   1  17
ATOM      5  C   UNL     1       1.735  15.307  22.232  0.00  0.00    +0.000 C 
ATOM      6  C   UNL     1       0.581  15.428  21.237  0.00  0.00    +0.000 C 
ATOM      7  C   UNL     1      -0.567  14.538  21.635  0.00  0.00    +0.000 A 
ATOM      8  C   UNL     1      -1.238  14.461  22.852  0.00  0.00    +0.000 A 
ATOM      9  C   UNL     1      -2.238  13.479  22.958  0.00  0.00    +0.000 A 
ATOM     10  C   UNL     1      -2.566  12.630  21.884  0.00  0.00    +0.000 A 
ATOM     11  C   UNL     1      -1.891  12.752  20.656  0.00  0.00    +0.000 A 
ATOM     12  C   UNL     1      -2.110  11.987  19.497  0.00  0.00    +0.000 A 
ATOM     13  C   UNL     1      -1.346  12.220  18.341  0.00  0.00    +0.000 A 
ATOM     14  C   UNL     1      -0.338  13.200  18.300  0.00  0.00    +0.000 A 
ATOM     15  C   UNL     1      -0.132  13.924  19.469  0.00  0.00    +0.000 A 
ATOM     16  C   UNL     1      -0.907  13.706  20.588  0.00  0.00    +0.000 A 
ATOM     17  C   UNL     1       0.895  14.988  19.741  0.00  0.00    +0.000 C 
ENDBRANCH   1  17
BRANCH   3  18
ATOM     18  C   UNL     1       4.742  14.877  19.177  0.00  0.00    +0.000 C 
ATOM     19  C   UNL     1       5.304  14.881  17.740  0.00  0.00    +0.000 C 
ATOM     20  C   UNL     1       6.743  14.380  17.679  0.00  0.00    +0.000 C 
ATOM     21  C   UNL     1       7.663  15.190  18.596  0.00  0.00    +0.000 C 
ATOM     22  C   UNL     1       9.114  14.688  18.536  0.00  0.00    +0.000 C 
ATOM     23  C   UNL     1       9.865  15.789  17.827  0.00  0.00    +0.000 C 
ATOM     24  C   UNL     1       9.036  17.012  18.129  0.00  0.00    +0.000 C 
ATOM     25  O   UNL     1       7.684  16.554  18.144  0.00  0.00    +0.000 OA
ATOM     26  C   UNL     1       7.144  15.145  20.039  0.00  0.00    +0.000 C 
ATOM     27  C   UNL     1       5.676  15.611  20.203  0.00  0.00    +0.000 C 
BRANCH  27  28
ATOM     28  N   UNL     1       5.184  15.479  21.602  0.00  0.00    +0.000 NA
ATOM     29  C   UNL     1       5.378  14.189  22.259  0.00  0.00    +0.000 C 
ATOM     30  C   UNL     1       5.192  14.511  23.729  0.00  0.00    +0.000 C 
ATOM     31  C   UNL     1       5.843  15.873  23.867  0.00  0.00    +0.000 C 
ATOM     32  C   UNL     1       5.664  16.532  22.505  0.00  0.00    +0.000 C 
ENDBRANCH  27  28
ENDBRANCH   3  18
TORSDOF 3
ENDMDL
