MODEL 1
REMARK VINA RESULT:      -8.3      0.000      0.000
REMARK  Name = 
REMARK  12 active torsions:
REMARK  status: ('A' for Active; 'I' for Inactive)
REMARK    1  A    between atoms: C_1  and  C_2
REMARK    2  A    between atoms: C_2  and  C_3
REMARK    3  A    between atoms: C_2  and  C_4
REMARK    4  A    between atoms: C_2  and  C_5
REMARK    5  A    between atoms: C_6  and  C_7
REMARK    6  A    between atoms: C_13  and  C_14
REMARK    7  A    between atoms: C_14  and  N_15
REMARK    8  A    between atoms: C_16  and  C_18
REMARK    9  A    between atoms: C_18  and  O_19
REMARK   10  A    between atoms: O_19  and  C_20
REMARK   11  A    between atoms: C_20  and  C_22
REMARK   12  A    between atoms: C_22  and  C_23
REMARK                            x       y       z     vdW  Elec       q    Type
REMARK                         _______ _______ _______ _____ _____    ______ ____
ROOT
ATOM      1  C   UNL     1       5.305   6.460  15.919  0.00  0.00    +0.000 C 
ENDROOT
BRANCH   1   7
ATOM      2  C   UNL     1       3.194   4.469  19.606  0.00  0.00    +0.000 C 
ATOM      3  C   UNL     1       4.140   3.628  19.141  0.00  0.00    +0.000 C 
ATOM      4  N   UNL     1       5.049   4.303  18.330  0.00  0.00    +0.000 N 
ATOM      5  C   UNL     1       4.954   4.180  16.968  0.00  0.00    +0.000 C 
ATOM      6  O   UNL     1       5.220   3.313  16.163  0.00  0.00    +0.000 OA
ATOM      7  C   UNL     1       4.423   5.603  16.785  0.00  0.00    +0.000 C 
ATOM      8  C   UNL     1       4.550   5.694  18.327  0.00  0.00    +0.000 C 
ATOM      9  O   UNL     1       3.348   5.796  19.125  0.00  0.00    +0.000 OA
BRANCH   2  11
ATOM     10  C   UNL     1       0.853   3.336  19.768  0.00  0.00    +0.000 C 
ATOM     11  C   UNL     1       1.918   4.229  20.436  0.00  0.00    +0.000 C 
ATOM     12  C   UNL     1       1.278   5.580  20.800  0.00  0.00    +0.000 C 
ATOM     13  C   UNL     1       2.277   3.501  21.760  0.00  0.00    +0.000 C 
ENDBRANCH   2  11
BRANCH   3  14
ATOM     14  C   UNL     1       4.346   2.111  19.432  0.00  0.00    +0.000 C 
ATOM     15  O   UNL     1       4.999   1.794  20.446  0.00  0.00    +0.000 OA
ATOM     16  O   UNL     1       3.574   1.375  18.737  0.00  0.00    +0.000 OA
ENDBRANCH   3  14
ENDBRANCH   1   7
BRANCH   1  17
ATOM     17  N   UNL     1       6.116   7.274  16.815  0.00  0.00    +0.000 N 
ATOM     18  C   UNL     1       7.401   6.914  17.167  0.00  0.00    +0.000 C 
ATOM     19  O   UNL     1       7.889   5.821  16.899  0.00  0.00    +0.000 OA
ATOM     20  H   UNL     1       5.927   8.276  16.862  0.00  0.00    +0.000 HD
BRANCH  18  21
ATOM     21  C   UNL     1       8.120   7.970  18.016  0.00  0.00    +0.000 C 
BRANCH  21  22
ATOM     22  O   UNL     1       7.470   9.250  18.001  0.00  0.00    +0.000 OA
BRANCH  22  23
ATOM     23  C   UNL     1       8.313  10.316  18.105  0.00  0.00    +0.000 C 
ATOM     24  O   UNL     1       8.226  11.338  17.443  0.00  0.00    +0.000 OA
BRANCH  23  25
ATOM     25  C   UNL     1       9.392  10.058  19.137  0.00  0.00    +0.000 C 
BRANCH  25  26
ATOM     26  C   UNL     1      10.257  11.265  19.411  0.00  0.00    +0.000 A 
ATOM     27  C   UNL     1       9.905  12.195  20.401  0.00  0.00    +0.000 A 
ATOM     28  C   UNL     1      10.695  13.323  20.629  0.00  0.00    +0.000 A 
ATOM     29  C   UNL     1      11.855  13.527  19.883  0.00  0.00    +0.000 A 
ATOM     30  C   UNL     1      12.234  12.592  18.923  0.00  0.00    +0.000 A 
ATOM     31  C   UNL     1      11.441  11.466  18.688  0.00  0.00    +0.000 A 
ENDBRANCH  25  26
ENDBRANCH  23  25
ENDBRANCH  22  23
ENDBRANCH  21  22
ENDBRANCH  18  21
ENDBRANCH   1  17
TORSDOF 9
ENDMDL
MODEL 2
REMARK VINA RESULT:      -7.9      0.887      1.380
REMARK  Name = 
REMARK  12 active torsions:
REMARK  status: ('A' for Active; 'I' for Inactive)
REMARK    1  A    between atoms: C_1  and  C_2
REMARK    2  A    between atoms: C_2  and  C_3
REMARK    3  A    between atoms: C_2  and  C_4
REMARK    4  A    between atoms: C_2  and  C_5
REMARK    5  A    between atoms: C_6  and  C_7
REMARK    6  A    between atoms: C_13  and  C_14
REMARK    7  A    between atoms: C_14  and  N_15
REMARK    8  A    between atoms: C_16  and  C_18
REMARK    9  A    between atoms: C_18  and  O_19
REMARK   10  A    between atoms: O_19  and  C_20
REMARK   11  A    between atoms: C_20  and  C_22
REMARK   12  A    between atoms: C_22  and  C_23
REMARK                            x       y       z     vdW  Elec       q    Type
REMARK                         _______ _______ _______ _____ _____    ______ ____
ROOT
ATOM      1  C   UNL     1       5.083   6.542  16.192  0.00  0.00    +0.000 C 
ENDROOT
BRANCH   1   7
ATOM      2  C   UNL     1       2.942   4.213  19.657  0.00  0.00    +0.000 C 
ATOM      3  C   UNL     1       3.970   3.466  19.202  0.00  0.00    +0.000 C 
ATOM      4  N   UNL     1       4.866   4.246  18.475  0.00  0.00    +0.000 N 
ATOM      5  C   UNL     1       4.848   4.190  17.105  0.00  0.00    +0.000 C 
ATOM      6  O   UNL     1       5.216   3.389  16.273  0.00  0.00    +0.000 OA
ATOM      7  C   UNL     1       4.224   5.580  16.965  0.00  0.00    +0.000 C 
ATOM      8  C   UNL     1       4.267   5.597  18.515  0.00  0.00    +0.000 C 
ATOM      9  O   UNL     1       3.023   5.571  19.251  0.00  0.00    +0.000 OA
BRANCH   2  11
ATOM     10  C   UNL     1       0.657   4.998  20.631  0.00  0.00    +0.000 C 
ATOM     11  C   UNL     1       1.648   3.838  20.404  0.00  0.00    +0.000 C 
ATOM     12  C   UNL     1       2.001   3.212  21.765  0.00  0.00    +0.000 C 
ATOM     13  C   UNL     1       0.851   2.785  19.588  0.00  0.00    +0.000 C 
ENDBRANCH   2  11
BRANCH   3  14
ATOM     14  C   UNL     1       4.270   1.954  19.427  0.00  0.00    +0.000 C 
ATOM     15  O   UNL     1       3.879   1.146  18.561  0.00  0.00    +0.000 OA
ATOM     16  O   UNL     1       5.131   1.762  20.345  0.00  0.00    +0.000 OA
ENDBRANCH   3  14
ENDBRANCH   1   7
BRANCH   1  17
ATOM     17  N   UNL     1       5.931   7.225  17.160  0.00  0.00    +0.000 N 
ATOM     18  C   UNL     1       7.307   7.208  17.068  0.00  0.00    +0.000 C 
ATOM     19  O   UNL     1       7.918   6.490  16.281  0.00  0.00    +0.000 OA
ATOM     20  H   UNL     1       5.548   8.034  17.652  0.00  0.00    +0.000 HD
BRANCH  18  21
ATOM     21  C   UNL     1       8.001   8.091  18.112  0.00  0.00    +0.000 C 
BRANCH  21  22
ATOM     22  O   UNL     1       8.441   9.352  17.587  0.00  0.00    +0.000 OA
BRANCH  22  23
ATOM     23  C   UNL     1       8.929  10.218  18.522  0.00  0.00    +0.000 C 
ATOM     24  O   UNL     1       9.268   9.901  19.651  0.00  0.00    +0.000 OA
BRANCH  23  25
ATOM     25  C   UNL     1       8.972  11.633  17.983  0.00  0.00    +0.000 C 
BRANCH  25  26
ATOM     26  C   UNL     1       9.668  12.602  18.908  0.00  0.00    +0.000 A 
ATOM     27  C   UNL     1       8.950  13.309  19.884  0.00  0.00    +0.000 A 
ATOM     28  C   UNL     1       9.596  14.225  20.717  0.00  0.00    +0.000 A 
ATOM     29  C   UNL     1      10.969  14.433  20.596  0.00  0.00    +0.000 A 
ATOM     30  C   UNL     1      11.698  13.711  19.655  0.00  0.00    +0.000 A 
ATOM     31  C   UNL     1      11.053  12.799  18.816  0.00  0.00    +0.000 A 
ENDBRANCH  25  26
ENDBRANCH  23  25
ENDBRANCH  22  23
ENDBRANCH  21  22
ENDBRANCH  18  21
ENDBRANCH   1  17
TORSDOF 9
ENDMDL
MODEL 3
REMARK VINA RESULT:      -7.7      1.725      2.145
REMARK  Name = 
REMARK  12 active torsions:
REMARK  status: ('A' for Active; 'I' for Inactive)
REMARK    1  A    between atoms: C_1  and  C_2
REMARK    2  A    between atoms: C_2  and  C_3
REMARK    3  A    between atoms: C_2  and  C_4
REMARK    4  A    between atoms: C_2  and  C_5
REMARK    5  A    between atoms: C_6  and  C_7
REMARK    6  A    between atoms: C_13  and  C_14
REMARK    7  A    between atoms: C_14  and  N_15
REMARK    8  A    between atoms: C_16  and  C_18
REMARK    9  A    between atoms: C_18  and  O_19
REMARK   10  A    between atoms: O_19  and  C_20
REMARK   11  A    between atoms: C_20  and  C_22
REMARK   12  A    between atoms: C_22  and  C_23
REMARK                            x       y       z     vdW  Elec       q    Type
REMARK                         _______ _______ _______ _____ _____    ______ ____
ROOT
ATOM      1  C   UNL     1       7.075   6.139  16.714  0.00  0.00    +0.000 C 
ENDROOT
BRANCH   1   7
ATOM      2  C   UNL     1       3.581   4.514  19.391  0.00  0.00    +0.000 C 
ATOM      3  C   UNL     1       3.900   3.574  18.478  0.00  0.00    +0.000 C 
ATOM      4  N   UNL     1       5.158   3.820  17.933  0.00  0.00    +0.000 N 
ATOM      5  C   UNL     1       5.252   4.379  16.684  0.00  0.00    +0.000 C 
ATOM      6  O   UNL     1       5.084   3.981  15.551  0.00  0.00    +0.000 OA
ATOM      7  C   UNL     1       5.719   5.732  17.224  0.00  0.00    +0.000 C 
ATOM      8  C   UNL     1       5.600   5.056  18.614  0.00  0.00    +0.000 C 
ATOM      9  O   UNL     1       4.579   5.513  19.531  0.00  0.00    +0.000 OA
BRANCH   2  11
ATOM     10  C   UNL     1       2.014   6.251  20.540  0.00  0.00    +0.000 C 
ATOM     11  C   UNL     1       2.292   4.774  20.195  0.00  0.00    +0.000 C 
ATOM     12  C   UNL     1       2.324   3.956  21.499  0.00  0.00    +0.000 C 
ATOM     13  C   UNL     1       1.055   4.314  19.377  0.00  0.00    +0.000 C 
ENDBRANCH   2  11
BRANCH   3  14
ATOM     14  C   UNL     1       3.103   2.311  18.037  0.00  0.00    +0.000 C 
ATOM     15  O   UNL     1       2.268   2.439  17.119  0.00  0.00    +0.000 OA
ATOM     16  O   UNL     1       3.610   1.235  18.489  0.00  0.00    +0.000 OA
ENDBRANCH   3  14
ENDBRANCH   1   7
BRANCH   1  17
ATOM     17  N   UNL     1       7.233   7.555  17.016  0.00  0.00    +0.000 N 
ATOM     18  C   UNL     1       8.073   8.000  18.015  0.00  0.00    +0.000 C 
ATOM     19  O   UNL     1       8.610   7.250  18.825  0.00  0.00    +0.000 OA
ATOM     20  H   UNL     1       7.067   8.230  16.268  0.00  0.00    +0.000 HD
BRANCH  18  21
ATOM     21  C   UNL     1       8.187   9.528  18.082  0.00  0.00    +0.000 C 
BRANCH  21  22
ATOM     22  O   UNL     1       8.893   9.995  19.242  0.00  0.00    +0.000 OA
BRANCH  22  23
ATOM     23  C   UNL     1       9.816  10.967  18.991  0.00  0.00    +0.000 C 
ATOM     24  O   UNL     1      10.910  11.042  19.528  0.00  0.00    +0.000 OA
BRANCH  23  25
ATOM     25  C   UNL     1       9.296  11.962  17.974  0.00  0.00    +0.000 C 
BRANCH  25  26
ATOM     26  C   UNL     1       9.960  13.315  18.068  0.00  0.00    +0.000 A 
ATOM     27  C   UNL     1       9.748  14.146  19.179  0.00  0.00    +0.000 A 
ATOM     28  C   UNL     1      10.342  15.407  19.246  0.00  0.00    +0.000 A 
ATOM     29  C   UNL     1      11.170  15.846  18.213  0.00  0.00    +0.000 A 
ATOM     30  C   UNL     1      11.417  15.015  17.123  0.00  0.00    +0.000 A 
ATOM     31  C   UNL     1      10.817  13.756  17.050  0.00  0.00    +0.000 A 
ENDBRANCH  25  26
ENDBRANCH  23  25
ENDBRANCH  22  23
ENDBRANCH  21  22
ENDBRANCH  18  21
ENDBRANCH   1  17
TORSDOF 9
ENDMDL
MODEL 4
REMARK VINA RESULT:      -7.7      1.692      2.765
REMARK  Name = 
REMARK  12 active torsions:
REMARK  status: ('A' for Active; 'I' for Inactive)
REMARK    1  A    between atoms: C_1  and  C_2
REMARK    2  A    between atoms: C_2  and  C_3
REMARK    3  A    between atoms: C_2  and  C_4
REMARK    4  A    between atoms: C_2  and  C_5
REMARK    5  A    between atoms: C_6  and  C_7
REMARK    6  A    between atoms: C_13  and  C_14
REMARK    7  A    between atoms: C_14  and  N_15
REMARK    8  A    between atoms: C_16  and  C_18
REMARK    9  A    between atoms: C_18  and  O_19
REMARK   10  A    between atoms: O_19  and  C_20
REMARK   11  A    between atoms: C_20  and  C_22
REMARK   12  A    between atoms: C_22  and  C_23
REMARK                            x       y       z     vdW  Elec       q    Type
REMARK                         _______ _______ _______ _____ _____    ______ ____
ROOT
ATOM      1  C   UNL     1       7.636   5.534  18.257  0.00  0.00    +0.000 C 
ENDROOT
BRANCH   1   7
ATOM      2  C   UNL     1       3.474   3.707  19.421  0.00  0.00    +0.000 C 
ATOM      3  C   UNL     1       3.315   4.490  18.335  0.00  0.00    +0.000 C 
ATOM      4  N   UNL     1       4.539   4.730  17.714  0.00  0.00    +0.000 N 
ATOM      5  C   UNL     1       5.160   5.939  17.899  0.00  0.00    +0.000 C 
ATOM      6  O   UNL     1       4.984   7.066  17.490  0.00  0.00    +0.000 OA
ATOM      7  C   UNL     1       6.246   5.346  18.799  0.00  0.00    +0.000 C 
ATOM      8  C   UNL     1       5.509   4.003  18.559  0.00  0.00    +0.000 C 
ATOM      9  O   UNL     1       4.830   3.368  19.666  0.00  0.00    +0.000 OA
BRANCH   2  11
ATOM     10  C   UNL     1       1.273   2.436  19.995  0.00  0.00    +0.000 C 
ATOM     11  C   UNL     1       2.486   3.238  20.507  0.00  0.00    +0.000 C 
ATOM     12  C   UNL     1       1.979   4.455  21.303  0.00  0.00    +0.000 C 
ATOM     13  C   UNL     1       3.205   2.287  21.502  0.00  0.00    +0.000 C 
ENDBRANCH   2  11
BRANCH   3  14
ATOM     14  C   UNL     1       2.009   5.067  17.713  0.00  0.00    +0.000 C 
ATOM     15  O   UNL     1       1.180   4.261  17.243  0.00  0.00    +0.000 OA
ATOM     16  O   UNL     1       1.826   6.290  18.015  0.00  0.00    +0.000 OA
ENDBRANCH   3  14
ENDBRANCH   1   7
BRANCH   1  17
ATOM     17  N   UNL     1       8.143   6.781  18.814  0.00  0.00    +0.000 N 
ATOM     18  C   UNL     1       8.176   7.949  18.082  0.00  0.00    +0.000 C 
ATOM     19  O   UNL     1       7.948   7.993  16.877  0.00  0.00    +0.000 OA
ATOM     20  H   UNL     1       8.092   6.914  19.825  0.00  0.00    +0.000 HD
BRANCH  18  21
ATOM     21  C   UNL     1       8.628   9.168  18.896  0.00  0.00    +0.000 C 
BRANCH  21  22
ATOM     22  O   UNL     1       8.668  10.380  18.128  0.00  0.00    +0.000 OA
BRANCH  22  23
ATOM     23  C   UNL     1       9.781  11.143  18.329  0.00  0.00    +0.000 C 
ATOM     24  O   UNL     1      10.296  11.858  17.483  0.00  0.00    +0.000 OA
BRANCH  23  25
ATOM     25  C   UNL     1      10.314  10.968  19.736  0.00  0.00    +0.000 C 
BRANCH  25  26
ATOM     26  C   UNL     1       9.924  12.092  20.666  0.00  0.00    +0.000 A 
ATOM     27  C   UNL     1      10.552  13.344  20.586  0.00  0.00    +0.000 A 
ATOM     28  C   UNL     1      10.206  14.370  21.468  0.00  0.00    +0.000 A 
ATOM     29  C   UNL     1       9.217  14.163  22.427  0.00  0.00    +0.000 A 
ATOM     30  C   UNL     1       8.561  12.936  22.493  0.00  0.00    +0.000 A 
ATOM     31  C   UNL     1       8.911  11.906  21.616  0.00  0.00    +0.000 A 
ENDBRANCH  25  26
ENDBRANCH  23  25
ENDBRANCH  22  23
ENDBRANCH  21  22
ENDBRANCH  18  21
ENDBRANCH   1  17
TORSDOF 9
ENDMDL
MODEL 5
REMARK VINA RESULT:      -7.6      2.063      2.484
REMARK  Name = 
REMARK  12 active torsions:
REMARK  status: ('A' for Active; 'I' for Inactive)
REMARK    1  A    between atoms: C_1  and  C_2
REMARK    2  A    between atoms: C_2  and  C_3
REMARK    3  A    between atoms: C_2  and  C_4
REMARK    4  A    between atoms: C_2  and  C_5
REMARK    5  A    between atoms: C_6  and  C_7
REMARK    6  A    between atoms: C_13  and  C_14
REMARK    7  A    between atoms: C_14  and  N_15
REMARK    8  A    between atoms: C_16  and  C_18
REMARK    9  A    between atoms: C_18  and  O_19
REMARK   10  A    between atoms: O_19  and  C_20
REMARK   11  A    between atoms: C_20  and  C_22
REMARK   12  A    between atoms: C_22  and  C_23
REMARK                            x       y       z     vdW  Elec       q    Type
REMARK                         _______ _______ _______ _____ _____    ______ ____
ROOT
ATOM      1  C   UNL     1       7.128   6.211  16.889  0.00  0.00    +0.000 C 
ENDROOT
BRANCH   1   7
ATOM      2  C   UNL     1       3.573   4.461  19.402  0.00  0.00    +0.000 C 
ATOM      3  C   UNL     1       3.863   3.602  18.404  0.00  0.00    +0.000 C 
ATOM      4  N   UNL     1       5.129   3.855  17.884  0.00  0.00    +0.000 N 
ATOM      5  C   UNL     1       5.246   4.525  16.693  0.00  0.00    +0.000 C 
ATOM      6  O   UNL     1       5.068   4.242  15.528  0.00  0.00    +0.000 OA
ATOM      7  C   UNL     1       5.758   5.804  17.358  0.00  0.00    +0.000 C 
ATOM      8  C   UNL     1       5.611   5.004  18.678  0.00  0.00    +0.000 C 
ATOM      9  O   UNL     1       4.605   5.408  19.635  0.00  0.00    +0.000 OA
BRANCH   2  11
ATOM     10  C   UNL     1       1.002   4.098  19.623  0.00  0.00    +0.000 C 
ATOM     11  C   UNL     1       2.292   4.688  20.228  0.00  0.00    +0.000 C 
ATOM     12  C   UNL     1       2.088   6.196  20.459  0.00  0.00    +0.000 C 
ATOM     13  C   UNL     1       2.430   4.009  21.617  0.00  0.00    +0.000 C 
ENDBRANCH   2  11
BRANCH   3  14
ATOM     14  C   UNL     1       3.024   2.414  17.846  0.00  0.00    +0.000 C 
ATOM     15  O   UNL     1       3.027   1.344  18.488  0.00  0.00    +0.000 OA
ATOM     16  O   UNL     1       2.209   2.779  16.939  0.00  0.00    +0.000 OA
ENDBRANCH   3  14
ENDBRANCH   1   7
BRANCH   1  17
ATOM     17  N   UNL     1       7.219   7.656  17.049  0.00  0.00    +0.000 N 
ATOM     18  C   UNL     1       8.042   8.236  17.991  0.00  0.00    +0.000 C 
ATOM     19  O   UNL     1       8.619   7.595  18.865  0.00  0.00    +0.000 OA
ATOM     20  H   UNL     1       7.016   8.246  16.241  0.00  0.00    +0.000 HD
BRANCH  18  21
ATOM     21  C   UNL     1       8.082   9.767  17.908  0.00  0.00    +0.000 C 
BRANCH  21  22
ATOM     22  O   UNL     1       8.615  10.387  19.088  0.00  0.00    +0.000 OA
BRANCH  22  23
ATOM     23  C   UNL     1       9.751  11.114  18.885  0.00  0.00    +0.000 C 
ATOM     24  O   UNL     1      10.761  11.029  19.564  0.00  0.00    +0.000 OA
BRANCH  23  25
ATOM     25  C   UNL     1       9.586  12.064  17.716  0.00  0.00    +0.000 C 
BRANCH  25  26
ATOM     26  C   UNL     1       8.736  13.269  18.041  0.00  0.00    +0.000 A 
ATOM     27  C   UNL     1       9.181  14.241  18.950  0.00  0.00    +0.000 A 
ATOM     28  C   UNL     1       8.377  15.337  19.267  0.00  0.00    +0.000 A 
ATOM     29  C   UNL     1       7.128  15.486  18.667  0.00  0.00    +0.000 A 
ATOM     30  C   UNL     1       6.691  14.546  17.736  0.00  0.00    +0.000 A 
ATOM     31  C   UNL     1       7.490  13.444  17.423  0.00  0.00    +0.000 A 
ENDBRANCH  25  26
ENDBRANCH  23  25
ENDBRANCH  22  23
ENDBRANCH  21  22
ENDBRANCH  18  21
ENDBRANCH   1  17
TORSDOF 9
ENDMDL
MODEL 6
REMARK VINA RESULT:      -7.4      5.579      8.233
REMARK  Name = 
REMARK  12 active torsions:
REMARK  status: ('A' for Active; 'I' for Inactive)
REMARK    1  A    between atoms: C_1  and  C_2
REMARK    2  A    between atoms: C_2  and  C_3
REMARK    3  A    between atoms: C_2  and  C_4
REMARK    4  A    between atoms: C_2  and  C_5
REMARK    5  A    between atoms: C_6  and  C_7
REMARK    6  A    between atoms: C_13  and  C_14
REMARK    7  A    between atoms: C_14  and  N_15
REMARK    8  A    between atoms: C_16  and  C_18
REMARK    9  A    between atoms: C_18  and  O_19
REMARK   10  A    between atoms: O_19  and  C_20
REMARK   11  A    between atoms: C_20  and  C_22
REMARK   12  A    between atoms: C_22  and  C_23
REMARK                            x       y       z     vdW  Elec       q    Type
REMARK                         _______ _______ _______ _____ _____    ______ ____
ROOT
ATOM      1  C   UNL     1       2.202   9.061  17.800  0.00  0.00    +0.000 C 
ENDROOT
BRANCH   1   7
ATOM      2  C   UNL     1       2.793   4.737  19.524  0.00  0.00    +0.000 C 
ATOM      3  C   UNL     1       3.938   5.127  18.928  0.00  0.00    +0.000 C 
ATOM      4  N   UNL     1       3.964   6.509  18.758  0.00  0.00    +0.000 N 
ATOM      5  C   UNL     1       3.704   7.038  17.520  0.00  0.00    +0.000 C 
ATOM      6  O   UNL     1       4.315   7.123  16.477  0.00  0.00    +0.000 OA
ATOM      7  C   UNL     1       2.329   7.568  17.934  0.00  0.00    +0.000 C 
ATOM      8  C   UNL     1       2.670   6.954  19.317  0.00  0.00    +0.000 C 
ATOM      9  O   UNL     1       1.910   5.817  19.785  0.00  0.00    +0.000 OA
BRANCH   2  11
ATOM     10  C   UNL     1       0.924   3.335  20.679  0.00  0.00    +0.000 C 
ATOM     11  C   UNL     1       2.217   3.342  19.839  0.00  0.00    +0.000 C 
ATOM     12  C   UNL     1       3.283   2.496  20.559  0.00  0.00    +0.000 C 
ATOM     13  C   UNL     1       1.843   2.613  18.520  0.00  0.00    +0.000 C 
ENDBRANCH   2  11
BRANCH   3  14
ATOM     14  C   UNL     1       5.166   4.274  18.490  0.00  0.00    +0.000 C 
ATOM     15  O   UNL     1       6.115   4.162  19.293  0.00  0.00    +0.000 OA
ATOM     16  O   UNL     1       4.922   3.563  17.464  0.00  0.00    +0.000 OA
ENDBRANCH   3  14
ENDBRANCH   1   7
BRANCH   1  17
ATOM     17  N   UNL     1       1.308   9.507  18.860  0.00  0.00    +0.000 N 
ATOM     18  C   UNL     1       1.159  10.841  19.177  0.00  0.00    +0.000 C 
ATOM     19  O   UNL     1       1.878  11.724  18.720  0.00  0.00    +0.000 OA
ATOM     20  H   UNL     1       0.504   8.922  19.092  0.00  0.00    +0.000 HD
BRANCH  18  21
ATOM     21  C   UNL     1       0.078  11.100  20.235  0.00  0.00    +0.000 C 
BRANCH  21  22
ATOM     22  O   UNL     1       0.571  11.023  21.581  0.00  0.00    +0.000 OA
BRANCH  22  23
ATOM     23  C   UNL     1      -0.398  10.916  22.535  0.00  0.00    +0.000 C 
ATOM     24  O   UNL     1      -0.272  10.315  23.590  0.00  0.00    +0.000 OA
BRANCH  23  25
ATOM     25  C   UNL     1      -1.667  11.624  22.103  0.00  0.00    +0.000 C 
BRANCH  25  26
ATOM     26  C   UNL     1      -2.136  12.664  23.092  0.00  0.00    +0.000 A 
ATOM     27  C   UNL     1      -1.323  13.758  23.427  0.00  0.00    +0.000 A 
ATOM     28  C   UNL     1      -1.752  14.700  24.363  0.00  0.00    +0.000 A 
ATOM     29  C   UNL     1      -3.003  14.571  24.963  0.00  0.00    +0.000 A 
ATOM     30  C   UNL     1      -3.833  13.509  24.612  0.00  0.00    +0.000 A 
ATOM     31  C   UNL     1      -3.404  12.561  23.681  0.00  0.00    +0.000 A 
ENDBRANCH  25  26
ENDBRANCH  23  25
ENDBRANCH  22  23
ENDBRANCH  21  22
ENDBRANCH  18  21
ENDBRANCH   1  17
TORSDOF 9
ENDMDL
MODEL 7
REMARK VINA RESULT:      -7.4      5.464      8.130
REMARK  Name = 
REMARK  12 active torsions:
REMARK  status: ('A' for Active; 'I' for Inactive)
REMARK    1  A    between atoms: C_1  and  C_2
REMARK    2  A    between atoms: C_2  and  C_3
REMARK    3  A    between atoms: C_2  and  C_4
REMARK    4  A    between atoms: C_2  and  C_5
REMARK    5  A    between atoms: C_6  and  C_7
REMARK    6  A    between atoms: C_13  and  C_14
REMARK    7  A    between atoms: C_14  and  N_15
REMARK    8  A    between atoms: C_16  and  C_18
REMARK    9  A    between atoms: C_18  and  O_19
REMARK   10  A    between atoms: O_19  and  C_20
REMARK   11  A    between atoms: C_20  and  C_22
REMARK   12  A    between atoms: C_22  and  C_23
REMARK                            x       y       z     vdW  Elec       q    Type
REMARK                         _______ _______ _______ _____ _____    ______ ____
ROOT
ATOM      1  C   UNL     1       2.267   8.966  17.812  0.00  0.00    +0.000 C 
ENDROOT
BRANCH   1   7
ATOM      2  C   UNL     1       2.724   4.643  19.580  0.00  0.00    +0.000 C 
ATOM      3  C   UNL     1       3.901   5.017  19.038  0.00  0.00    +0.000 C 
ATOM      4  N   UNL     1       3.951   6.398  18.864  0.00  0.00    +0.000 N 
ATOM      5  C   UNL     1       3.757   6.925  17.613  0.00  0.00    +0.000 C 
ATOM      6  O   UNL     1       4.418   6.998  16.600  0.00  0.00    +0.000 OA
ATOM      7  C   UNL     1       2.370   7.472  17.959  0.00  0.00    +0.000 C 
ATOM      8  C   UNL     1       2.637   6.861  19.359  0.00  0.00    +0.000 C 
ATOM      9  O   UNL     1       1.842   5.735  19.795  0.00  0.00    +0.000 OA
BRANCH   2  11
ATOM     10  C   UNL     1       2.046   2.299  18.668  0.00  0.00    +0.000 C 
ATOM     11  C   UNL     1       2.118   3.257  19.873  0.00  0.00    +0.000 C 
ATOM     12  C   UNL     1       0.704   3.426  20.459  0.00  0.00    +0.000 C 
ATOM     13  C   UNL     1       2.983   2.513  20.926  0.00  0.00    +0.000 C 
ENDBRANCH   2  11
BRANCH   3  14
ATOM     14  C   UNL     1       5.138   4.148  18.664  0.00  0.00    +0.000 C 
ATOM     15  O   UNL     1       5.080   3.468  17.619  0.00  0.00    +0.000 OA
ATOM     16  O   UNL     1       6.173   4.462  19.336  0.00  0.00    +0.000 OA
ENDBRANCH   3  14
ENDBRANCH   1   7
BRANCH   1  17
ATOM     17  N   UNL     1       1.359   9.432  18.852  0.00  0.00    +0.000 N 
ATOM     18  C   UNL     1       1.130  10.773  19.075  0.00  0.00    +0.000 C 
ATOM     19  O   UNL     1       1.786  11.664  18.543  0.00  0.00    +0.000 OA
ATOM     20  H   UNL     1       0.597   8.817  19.139  0.00  0.00    +0.000 HD
BRANCH  18  21
ATOM     21  C   UNL     1       0.048  11.042  20.128  0.00  0.00    +0.000 C 
BRANCH  21  22
ATOM     22  O   UNL     1       0.145  10.181  21.273  0.00  0.00    +0.000 OA
BRANCH  22  23
ATOM     23  C   UNL     1      -0.536  10.619  22.372  0.00  0.00    +0.000 C 
ATOM     24  O   UNL     1      -0.222  10.377  23.526  0.00  0.00    +0.000 OA
BRANCH  23  25
ATOM     25  C   UNL     1      -1.752  11.428  21.971  0.00  0.00    +0.000 C 
BRANCH  25  26
ATOM     26  C   UNL     1      -2.112  12.500  22.971  0.00  0.00    +0.000 A 
ATOM     27  C   UNL     1      -3.333  12.462  23.661  0.00  0.00    +0.000 A 
ATOM     28  C   UNL     1      -3.671  13.473  24.563  0.00  0.00    +0.000 A 
ATOM     29  C   UNL     1      -2.786  14.523  24.800  0.00  0.00    +0.000 A 
ATOM     30  C   UNL     1      -1.556  14.553  24.148  0.00  0.00    +0.000 A 
ATOM     31  C   UNL     1      -1.219  13.547  23.240  0.00  0.00    +0.000 A 
ENDBRANCH  25  26
ENDBRANCH  23  25
ENDBRANCH  22  23
ENDBRANCH  21  22
ENDBRANCH  18  21
ENDBRANCH   1  17
TORSDOF 9
ENDMDL
MODEL 8
REMARK VINA RESULT:      -7.4      5.616      9.207
REMARK  Name = 
REMARK  12 active torsions:
REMARK  status: ('A' for Active; 'I' for Inactive)
REMARK    1  A    between atoms: C_1  and  C_2
REMARK    2  A    between atoms: C_2  and  C_3
REMARK    3  A    between atoms: C_2  and  C_4
REMARK    4  A    between atoms: C_2  and  C_5
REMARK    5  A    between atoms: C_6  and  C_7
REMARK    6  A    between atoms: C_13  and  C_14
REMARK    7  A    between atoms: C_14  and  N_15
REMARK    8  A    between atoms: C_16  and  C_18
REMARK    9  A    between atoms: C_18  and  O_19
REMARK   10  A    between atoms: O_19  and  C_20
REMARK   11  A    between atoms: C_20  and  C_22
REMARK   12  A    between atoms: C_22  and  C_23
REMARK                            x       y       z     vdW  Elec       q    Type
REMARK                         _______ _______ _______ _____ _____    ______ ____
ROOT
ATOM      1  C   UNL     1       2.253   9.147  17.818  0.00  0.00    +0.000 C 
ENDROOT
BRANCH   1   7
ATOM      2  C   UNL     1       2.793   4.784  19.457  0.00  0.00    +0.000 C 
ATOM      3  C   UNL     1       3.943   5.172  18.868  0.00  0.00    +0.000 C 
ATOM      4  N   UNL     1       3.984   6.556  18.725  0.00  0.00    +0.000 N 
ATOM      5  C   UNL     1       3.730   7.113  17.498  0.00  0.00    +0.000 C 
ATOM      6  O   UNL     1       4.342   7.211  16.456  0.00  0.00    +0.000 OA
ATOM      7  C   UNL     1       2.362   7.651  17.924  0.00  0.00    +0.000 C 
ATOM      8  C   UNL     1       2.696   7.006  19.294  0.00  0.00    +0.000 C 
ATOM      9  O   UNL     1       1.923   5.869  19.740  0.00  0.00    +0.000 OA
BRANCH   2  11
ATOM     10  C   UNL     1       3.072   2.472  20.627  0.00  0.00    +0.000 C 
ATOM     11  C   UNL     1       2.201   3.391  19.745  0.00  0.00    +0.000 C 
ATOM     12  C   UNL     1       1.906   2.671  18.417  0.00  0.00    +0.000 C 
ATOM     13  C   UNL     1       0.861   3.533  20.517  0.00  0.00    +0.000 C 
ENDBRANCH   2  11
BRANCH   3  14
ATOM     14  C   UNL     1       5.160   4.313  18.413  0.00  0.00    +0.000 C 
ATOM     15  O   UNL     1       6.036   4.046  19.261  0.00  0.00    +0.000 OA
ATOM     16  O   UNL     1       4.966   3.754  17.287  0.00  0.00    +0.000 OA
ENDBRANCH   3  14
ENDBRANCH   1   7
BRANCH   1  17
ATOM     17  N   UNL     1       0.968   9.519  18.397  0.00  0.00    +0.000 N 
ATOM     18  C   UNL     1       0.720  10.792  18.867  0.00  0.00    +0.000 C 
ATOM     19  O   UNL     1       1.594  11.645  18.990  0.00  0.00    +0.000 OA
ATOM     20  H   UNL     1       0.138   9.006  18.100  0.00  0.00    +0.000 HD
BRANCH  18  21
ATOM     21  C   UNL     1      -0.731  11.005  19.318  0.00  0.00    +0.000 C 
BRANCH  21  22
ATOM     22  O   UNL     1      -1.638  10.026  18.791  0.00  0.00    +0.000 OA
BRANCH  22  23
ATOM     23  C   UNL     1      -2.270  10.398  17.641  0.00  0.00    +0.000 C 
ATOM     24  O   UNL     1      -2.279   9.745  16.610  0.00  0.00    +0.000 OA
BRANCH  23  25
ATOM     25  C   UNL     1      -2.943  11.746  17.802  0.00  0.00    +0.000 C 
BRANCH  25  26
ATOM     26  C   UNL     1      -4.300  11.661  18.459  0.00  0.00    +0.000 A 
ATOM     27  C   UNL     1      -4.556  12.319  19.672  0.00  0.00    +0.000 A 
ATOM     28  C   UNL     1      -5.804  12.213  20.288  0.00  0.00    +0.000 A 
ATOM     29  C   UNL     1      -6.816  11.463  19.692  0.00  0.00    +0.000 A 
ATOM     30  C   UNL     1      -6.585  10.835  18.470  0.00  0.00    +0.000 A 
ATOM     31  C   UNL     1      -5.335  10.934  17.856  0.00  0.00    +0.000 A 
ENDBRANCH  25  26
ENDBRANCH  23  25
ENDBRANCH  22  23
ENDBRANCH  21  22
ENDBRANCH  18  21
ENDBRANCH   1  17
TORSDOF 9
ENDMDL
MODEL 9
REMARK VINA RESULT:      -7.4      5.398      8.501
REMARK  Name = 
REMARK  12 active torsions:
REMARK  status: ('A' for Active; 'I' for Inactive)
REMARK    1  A    between atoms: C_1  and  C_2
REMARK    2  A    between atoms: C_2  and  C_3
REMARK    3  A    between atoms: C_2  and  C_4
REMARK    4  A    between atoms: C_2  and  C_5
REMARK    5  A    between atoms: C_6  and  C_7
REMARK    6  A    between atoms: C_13  and  C_14
REMARK    7  A    between atoms: C_14  and  N_15
REMARK    8  A    between atoms: C_16  and  C_18
REMARK    9  A    between atoms: C_18  and  O_19
REMARK   10  A    between atoms: O_19  and  C_20
REMARK   11  A    between atoms: C_20  and  C_22
REMARK   12  A    between atoms: C_22  and  C_23
REMARK                            x       y       z     vdW  Elec       q    Type
REMARK                         _______ _______ _______ _____ _____    ______ ____
ROOT
ATOM      1  C   UNL     1       1.336   8.157  18.771  0.00  0.00    +0.000 C 
ENDROOT
BRANCH   1   7
ATOM      2  C   UNL     1       5.361   5.904  17.913  0.00  0.00    +0.000 C 
ATOM      3  C   UNL     1       4.411   4.995  18.213  0.00  0.00    +0.000 C 
ATOM      4  N   UNL     1       3.139   5.547  18.084  0.00  0.00    +0.000 N 
ATOM      5  C   UNL     1       2.453   5.925  19.210  0.00  0.00    +0.000 C 
ATOM      6  O   UNL     1       1.866   5.341  20.096  0.00  0.00    +0.000 OA
ATOM      7  C   UNL     1       2.637   7.419  18.931  0.00  0.00    +0.000 C 
ATOM      8  C   UNL     1       3.402   6.941  17.670  0.00  0.00    +0.000 C 
ATOM      9  O   UNL     1       4.826   7.177  17.583  0.00  0.00    +0.000 OA
BRANCH   2  11
ATOM     10  C   UNL     1       7.480   5.709  19.417  0.00  0.00    +0.000 C 
ATOM     11  C   UNL     1       6.899   5.853  17.996  0.00  0.00    +0.000 C 
ATOM     12  C   UNL     1       7.493   7.114  17.342  0.00  0.00    +0.000 C 
ATOM     13  C   UNL     1       7.432   4.619  17.218  0.00  0.00    +0.000 C 
ENDBRANCH   2  11
BRANCH   3  14
ATOM     14  C   UNL     1       4.564   3.496  18.607  0.00  0.00    +0.000 C 
ATOM     15  O   UNL     1       5.065   3.232  19.719  0.00  0.00    +0.000 OA
ATOM     16  O   UNL     1       3.896   2.724  17.848  0.00  0.00    +0.000 OA
ENDBRANCH   3  14
ENDBRANCH   1   7
BRANCH   1  17
ATOM     17  N   UNL     1       1.296   9.175  19.812  0.00  0.00    +0.000 N 
ATOM     18  C   UNL     1       1.094  10.509  19.523  0.00  0.00    +0.000 C 
ATOM     19  O   UNL     1       1.102  10.957  18.381  0.00  0.00    +0.000 OA
ATOM     20  H   UNL     1       1.009   8.895  20.751  0.00  0.00    +0.000 HD
BRANCH  18  21
ATOM     21  C   UNL     1       0.961  11.391  20.771  0.00  0.00    +0.000 C 
BRANCH  21  22
ATOM     22  O   UNL     1       0.946  10.643  21.996  0.00  0.00    +0.000 OA
BRANCH  22  23
ATOM     23  C   UNL     1      -0.259  10.624  22.635  0.00  0.00    +0.000 C 
ATOM     24  O   UNL     1      -0.515   9.943  23.615  0.00  0.00    +0.000 OA
BRANCH  23  25
ATOM     25  C   UNL     1      -1.251  11.544  21.953  0.00  0.00    +0.000 C 
BRANCH  25  26
ATOM     26  C   UNL     1      -1.911  12.517  22.900  0.00  0.00    +0.000 A 
ATOM     27  C   UNL     1      -3.215  12.294  23.369  0.00  0.00    +0.000 A 
ATOM     28  C   UNL     1      -3.830  13.213  24.221  0.00  0.00    +0.000 A 
ATOM     29  C   UNL     1      -3.144  14.355  24.630  0.00  0.00    +0.000 A 
ATOM     30  C   UNL     1      -1.837  14.569  24.200  0.00  0.00    +0.000 A 
ATOM     31  C   UNL     1      -1.222  13.655  23.341  0.00  0.00    +0.000 A 
ENDBRANCH  25  26
ENDBRANCH  23  25
ENDBRANCH  22  23
ENDBRANCH  21  22
ENDBRANCH  18  21
ENDBRANCH   1  17
TORSDOF 9
ENDMDL
