MODEL 1
REMARK VINA RESULT:      -7.4      0.000      0.000
REMARK  Name = 
REMARK  6 active torsions:
REMARK  status: ('A' for Active; 'I' for Inactive)
REMARK    1  A    between atoms: C_2  and  C_3
REMARK    2  A    between atoms: C_3  and  C_4
REMARK    3  A    between atoms: C_4  and  C_5
REMARK    4  A    between atoms: C_5  and  O_6
REMARK    5  A    between atoms: O_6  and  N_7
REMARK    6  A    between atoms: N_27  and  O_28
REMARK                            x       y       z     vdW  Elec       q    Type
REMARK                         _______ _______ _______ _____ _____    ______ ____
ROOT
ATOM      1  N   UNL     1       3.637   6.221  17.854  0.00  0.00    +0.000 NA
ATOM      2  C   UNL     1       2.794   6.572  18.764  0.00  0.00    +0.000 C 
ATOM      3  C   UNL     1       2.342   5.712  19.935  0.00  0.00    +0.000 C 
ATOM      4  C   UNL     1       2.488   4.375  19.957  0.00  0.00    +0.000 C 
ATOM      5  C   UNL     1       2.251   3.558  21.200  0.00  0.00    +0.000 C 
ATOM      6  O   UNL     1       1.699   3.913  22.229  0.00  0.00    +0.000 OA
ATOM      7  N   UNL     1       2.846   2.326  20.937  0.00  0.00    +0.000 N 
ATOM      8  C   UNL     1       3.330   2.262  19.628  0.00  0.00    +0.000 A 
ATOM      9  C   UNL     1       3.973   1.203  19.015  0.00  0.00    +0.000 A 
ATOM     10  C   UNL     1       4.330   1.348  17.668  0.00  0.00    +0.000 A 
ATOM     11  C   UNL     1       3.945   2.485  16.952  0.00  0.00    +0.000 A 
ATOM     12  C   UNL     1       3.240   3.507  17.585  0.00  0.00    +0.000 A 
ATOM     13  C   UNL     1       3.041   3.447  18.954  0.00  0.00    +0.000 A 
ATOM     14  N   UNL     1       1.772   6.581  20.852  0.00  0.00    +0.000 N 
ATOM     15  C   UNL     1       1.556   7.823  20.240  0.00  0.00    +0.000 A 
ATOM     16  C   UNL     1       0.997   8.970  20.773  0.00  0.00    +0.000 A 
ATOM     17  C   UNL     1       0.999  10.143  19.997  0.00  0.00    +0.000 A 
ATOM     18  C   UNL     1       1.568  10.169  18.715  0.00  0.00    +0.000 A 
ATOM     19  C   UNL     1       2.161   9.027  18.194  0.00  0.00    +0.000 A 
ATOM     20  C   UNL     1       2.157   7.878  18.977  0.00  0.00    +0.000 A 
ATOM     21  H   UNL     1       2.862   1.565  21.599  0.00  0.00    +0.000 HD
ATOM     22  H   UNL     1       1.175   6.211  21.579  0.00  0.00    +0.000 HD
ENDROOT
BRANCH   1  23
ATOM     23  O   UNL     1       3.731   7.123  16.808  0.00  0.00    +0.000 OA
BRANCH  23  24
ATOM     24  C   UNL     1       4.962   6.928  16.126  0.00  0.00    +0.000 C 
BRANCH  24  25
ATOM     25  C   UNL     1       6.070   7.176  17.130  0.00  0.00    +0.000 C 
BRANCH  25  26
ATOM     26  C   UNL     1       7.081   6.031  17.121  0.00  0.00    +0.000 C 
BRANCH  26  28
ATOM     27  O   UNL     1       6.561   4.323  18.764  0.00  0.00    +0.000 OA
ATOM     28  C   UNL     1       7.166   5.348  18.463  0.00  0.00    +0.000 C 
ATOM     29  N   UNL     1       8.001   5.988  19.342  0.00  0.00    +0.000 N 
ATOM     30  H   UNL     1       8.568   6.802  19.128  0.00  0.00    +0.000 HD
BRANCH  29  31
ATOM     31  O   UNL     1       8.150   5.398  20.615  0.00  0.00    +0.000 OA
ATOM     32  H   UNL     1       7.217   5.328  20.918  0.00  0.00    +0.000 HD
ENDBRANCH  29  31
ENDBRANCH  26  28
ENDBRANCH  25  26
ENDBRANCH  24  25
ENDBRANCH  23  24
ENDBRANCH   1  23
TORSDOF 6
ENDMDL
MODEL 2
REMARK VINA RESULT:      -7.3      2.206      6.546
REMARK  Name = 
REMARK  6 active torsions:
REMARK  status: ('A' for Active; 'I' for Inactive)
REMARK    1  A    between atoms: C_2  and  C_3
REMARK    2  A    between atoms: C_3  and  C_4
REMARK    3  A    between atoms: C_4  and  C_5
REMARK    4  A    between atoms: C_5  and  O_6
REMARK    5  A    between atoms: O_6  and  N_7
REMARK    6  A    between atoms: N_27  and  O_28
REMARK                            x       y       z     vdW  Elec       q    Type
REMARK                         _______ _______ _______ _____ _____    ______ ____
ROOT
ATOM      1  N   UNL     1       2.485   6.591  20.282  0.00  0.00    +0.000 NA
ATOM      2  C   UNL     1       2.815   6.936  19.084  0.00  0.00    +0.000 C 
ATOM      3  C   UNL     1       2.636   8.319  18.478  0.00  0.00    +0.000 C 
ATOM      4  C   UNL     1       1.792   9.235  18.986  0.00  0.00    +0.000 C 
ATOM      5  C   UNL     1       1.785  10.668  18.525  0.00  0.00    +0.000 C 
ATOM      6  O   UNL     1       2.321  11.133  17.533  0.00  0.00    +0.000 OA
ATOM      7  N   UNL     1       1.076  11.356  19.508  0.00  0.00    +0.000 N 
ATOM      8  C   UNL     1       0.556  10.484  20.467  0.00  0.00    +0.000 A 
ATOM      9  C   UNL     1      -0.200  10.803  21.579  0.00  0.00    +0.000 A 
ATOM     10  C   UNL     1      -0.655   9.750  22.383  0.00  0.00    +0.000 A 
ATOM     11  C   UNL     1      -0.441   8.423  22.000  0.00  0.00    +0.000 A 
ATOM     12  C   UNL     1       0.271   8.136  20.836  0.00  0.00    +0.000 A 
ATOM     13  C   UNL     1       0.873   9.168  20.137  0.00  0.00    +0.000 A 
ATOM     14  N   UNL     1       3.459   8.359  17.363  0.00  0.00    +0.000 N 
ATOM     15  C   UNL     1       3.885   7.060  17.055  0.00  0.00    +0.000 A 
ATOM     16  C   UNL     1       4.698   6.633  16.022  0.00  0.00    +0.000 A 
ATOM     17  C   UNL     1       5.093   5.283  15.989  0.00  0.00    +0.000 A 
ATOM     18  C   UNL     1       4.691   4.381  16.986  0.00  0.00    +0.000 A 
ATOM     19  C   UNL     1       3.903   4.817  18.042  0.00  0.00    +0.000 A 
ATOM     20  C   UNL     1       3.529   6.157  18.063  0.00  0.00    +0.000 A 
ATOM     21  H   UNL     1       0.914  12.351  19.481  0.00  0.00    +0.000 HD
ATOM     22  H   UNL     1       3.309   9.073  16.663  0.00  0.00    +0.000 HD
ENDROOT
BRANCH   1  23
ATOM     23  O   UNL     1       2.589   5.230  20.515  0.00  0.00    +0.000 OA
BRANCH  23  24
ATOM     24  C   UNL     1       1.288   4.661  20.573  0.00  0.00    +0.000 C 
BRANCH  24  25
ATOM     25  C   UNL     1       1.455   3.218  21.007  0.00  0.00    +0.000 C 
BRANCH  25  26
ATOM     26  C   UNL     1       1.507   2.288  19.796  0.00  0.00    +0.000 C 
BRANCH  26  28
ATOM     27  O   UNL     1       3.254   1.385  18.375  0.00  0.00    +0.000 OA
ATOM     28  C   UNL     1       2.924   1.932  19.424  0.00  0.00    +0.000 C 
ATOM     29  N   UNL     1       3.838   2.280  20.384  0.00  0.00    +0.000 N 
ATOM     30  H   UNL     1       3.628   2.784  21.240  0.00  0.00    +0.000 HD
BRANCH  29  31
ATOM     31  O   UNL     1       5.191   1.998  20.102  0.00  0.00    +0.000 OA
ATOM     32  H   UNL     1       5.558   1.838  20.999  0.00  0.00    +0.000 HD
ENDBRANCH  29  31
ENDBRANCH  26  28
ENDBRANCH  25  26
ENDBRANCH  24  25
ENDBRANCH  23  24
ENDBRANCH   1  23
TORSDOF 6
ENDMDL
MODEL 3
REMARK VINA RESULT:      -7.1      8.464     11.324
REMARK  Name = 
REMARK  6 active torsions:
REMARK  status: ('A' for Active; 'I' for Inactive)
REMARK    1  A    between atoms: C_2  and  C_3
REMARK    2  A    between atoms: C_3  and  C_4
REMARK    3  A    between atoms: C_4  and  C_5
REMARK    4  A    between atoms: C_5  and  O_6
REMARK    5  A    between atoms: O_6  and  N_7
REMARK    6  A    between atoms: N_27  and  O_28
REMARK                            x       y       z     vdW  Elec       q    Type
REMARK                         _______ _______ _______ _____ _____    ______ ____
ROOT
ATOM      1  N   UNL     1      -2.918  12.741  21.430  0.00  0.00    +0.000 NA
ATOM      2  C   UNL     1      -3.346  13.365  22.474  0.00  0.00    +0.000 C 
ATOM      3  C   UNL     1      -4.736  13.238  23.077  0.00  0.00    +0.000 C 
ATOM      4  C   UNL     1      -5.786  12.744  22.395  0.00  0.00    +0.000 C 
ATOM      5  C   UNL     1      -7.094  12.409  23.060  0.00  0.00    +0.000 C 
ATOM      6  O   UNL     1      -7.466  12.733  24.176  0.00  0.00    +0.000 OA
ATOM      7  N   UNL     1      -7.766  11.605  22.141  0.00  0.00    +0.000 N 
ATOM      8  C   UNL     1      -7.057  11.498  20.943  0.00  0.00    +0.000 A 
ATOM      9  C   UNL     1      -7.413  10.791  19.809  0.00  0.00    +0.000 A 
ATOM     10  C   UNL     1      -6.563  10.866  18.699  0.00  0.00    +0.000 A 
ATOM     11  C   UNL     1      -5.454  11.717  18.712  0.00  0.00    +0.000 A 
ATOM     12  C   UNL     1      -5.160  12.466  19.850  0.00  0.00    +0.000 A 
ATOM     13  C   UNL     1      -5.893  12.261  21.006  0.00  0.00    +0.000 A 
ATOM     14  N   UNL     1      -4.645  13.745  24.365  0.00  0.00    +0.000 N 
ATOM     15  C   UNL     1      -3.435  14.439  24.503  0.00  0.00    +0.000 A 
ATOM     16  C   UNL     1      -2.941  15.114  25.604  0.00  0.00    +0.000 A 
ATOM     17  C   UNL     1      -1.634  15.632  25.545  0.00  0.00    +0.000 A 
ATOM     18  C   UNL     1      -0.832  15.463  24.407  0.00  0.00    +0.000 A 
ATOM     19  C   UNL     1      -1.316  14.755  23.315  0.00  0.00    +0.000 A 
ATOM     20  C   UNL     1      -2.606  14.242  23.393  0.00  0.00    +0.000 A 
ATOM     21  H   UNL     1      -8.677  11.209  22.313  0.00  0.00    +0.000 HD
ATOM     22  H   UNL     1      -5.489  14.002  24.856  0.00  0.00    +0.000 HD
ENDROOT
BRANCH   1  23
ATOM     23  O   UNL     1      -1.680  13.178  20.992  0.00  0.00    +0.000 OA
BRANCH  23  24
ATOM     24  C   UNL     1      -0.963  12.083  20.437  0.00  0.00    +0.000 C 
BRANCH  24  25
ATOM     25  C   UNL     1      -1.312  12.028  18.963  0.00  0.00    +0.000 C 
BRANCH  25  26
ATOM     26  C   UNL     1      -1.464  10.582  18.493  0.00  0.00    +0.000 C 
BRANCH  26  28
ATOM     27  O   UNL     1      -3.115   9.528  17.062  0.00  0.00    +0.000 OA
ATOM     28  C   UNL     1      -2.370  10.476  17.292  0.00  0.00    +0.000 C 
ATOM     29  N   UNL     1      -2.287  11.560  16.457  0.00  0.00    +0.000 N 
ATOM     30  H   UNL     1      -1.734  12.393  16.628  0.00  0.00    +0.000 HD
BRANCH  29  31
ATOM     31  O   UNL     1      -3.121  11.545  15.319  0.00  0.00    +0.000 OA
ATOM     32  H   UNL     1      -2.558  11.083  14.658  0.00  0.00    +0.000 HD
ENDBRANCH  29  31
ENDBRANCH  26  28
ENDBRANCH  25  26
ENDBRANCH  24  25
ENDBRANCH  23  24
ENDBRANCH   1  23
TORSDOF 6
ENDMDL
MODEL 4
REMARK VINA RESULT:      -7.1      8.132     10.525
REMARK  Name = 
REMARK  6 active torsions:
REMARK  status: ('A' for Active; 'I' for Inactive)
REMARK    1  A    between atoms: C_2  and  C_3
REMARK    2  A    between atoms: C_3  and  C_4
REMARK    3  A    between atoms: C_4  and  C_5
REMARK    4  A    between atoms: C_5  and  O_6
REMARK    5  A    between atoms: O_6  and  N_7
REMARK    6  A    between atoms: N_27  and  O_28
REMARK                            x       y       z     vdW  Elec       q    Type
REMARK                         _______ _______ _______ _____ _____    ______ ____
ROOT
ATOM      1  N   UNL     1      -2.286  11.119  18.726  0.00  0.00    +0.000 NA
ATOM      2  C   UNL     1      -1.733  11.968  19.523  0.00  0.00    +0.000 C 
ATOM      3  C   UNL     1      -2.400  12.625  20.722  0.00  0.00    +0.000 C 
ATOM      4  C   UNL     1      -3.736  12.677  20.877  0.00  0.00    +0.000 C 
ATOM      5  C   UNL     1      -4.382  13.121  22.162  0.00  0.00    +0.000 C 
ATOM      6  O   UNL     1      -3.853  13.691  23.102  0.00  0.00    +0.000 OA
ATOM      7  N   UNL     1      -5.704  12.692  22.064  0.00  0.00    +0.000 N 
ATOM      8  C   UNL     1      -5.965  12.127  20.814  0.00  0.00    +0.000 A 
ATOM      9  C   UNL     1      -7.159  11.600  20.357  0.00  0.00    +0.000 A 
ATOM     10  C   UNL     1      -7.202  11.126  19.040  0.00  0.00    +0.000 A 
ATOM     11  C   UNL     1      -6.102  11.289  18.193  0.00  0.00    +0.000 A 
ATOM     12  C   UNL     1      -4.934  11.884  18.668  0.00  0.00    +0.000 A 
ATOM     13  C   UNL     1      -4.827  12.191  20.013  0.00  0.00    +0.000 A 
ATOM     14  N   UNL     1      -1.373  13.131  21.504  0.00  0.00    +0.000 N 
ATOM     15  C   UNL     1      -0.181  13.119  20.766  0.00  0.00    +0.000 A 
ATOM     16  C   UNL     1       1.079  13.544  21.142  0.00  0.00    +0.000 A 
ATOM     17  C   UNL     1       2.157  13.314  20.268  0.00  0.00    +0.000 A 
ATOM     18  C   UNL     1       1.975  12.654  19.044  0.00  0.00    +0.000 A 
ATOM     19  C   UNL     1       0.716  12.195  18.681  0.00  0.00    +0.000 A 
ATOM     20  C   UNL     1      -0.337  12.423  19.561  0.00  0.00    +0.000 A 
ATOM     21  H   UNL     1      -6.389  12.836  22.790  0.00  0.00    +0.000 HD
ATOM     22  H   UNL     1      -1.582  13.828  22.205  0.00  0.00    +0.000 HD
ENDROOT
BRANCH   1  23
ATOM     23  O   UNL     1      -1.516  10.818  17.616  0.00  0.00    +0.000 OA
BRANCH  23  24
ATOM     24  C   UNL     1      -2.262   9.988  16.735  0.00  0.00    +0.000 C 
BRANCH  24  25
ATOM     25  C   UNL     1      -2.697  10.855  15.571  0.00  0.00    +0.000 C 
BRANCH  25  26
ATOM     26  C   UNL     1      -3.762  10.149  14.734  0.00  0.00    +0.000 C 
BRANCH  26  28
ATOM     27  O   UNL     1      -2.135   9.488  13.060  0.00  0.00    +0.000 OA
ATOM     28  C   UNL     1      -3.274   9.853  13.338  0.00  0.00    +0.000 C 
ATOM     29  N   UNL     1      -4.238  10.031  12.380  0.00  0.00    +0.000 N 
ATOM     30  H   UNL     1      -5.207  10.274  12.559  0.00  0.00    +0.000 HD
BRANCH  29  31
ATOM     31  O   UNL     1      -3.864   9.754  11.049  0.00  0.00    +0.000 OA
ATOM     32  H   UNL     1      -3.068   9.191  11.173  0.00  0.00    +0.000 HD
ENDBRANCH  29  31
ENDBRANCH  26  28
ENDBRANCH  25  26
ENDBRANCH  24  25
ENDBRANCH  23  24
ENDBRANCH   1  23
TORSDOF 6
ENDMDL
MODEL 5
REMARK VINA RESULT:      -7.0      1.304      1.531
REMARK  Name = 
REMARK  6 active torsions:
REMARK  status: ('A' for Active; 'I' for Inactive)
REMARK    1  A    between atoms: C_2  and  C_3
REMARK    2  A    between atoms: C_3  and  C_4
REMARK    3  A    between atoms: C_4  and  C_5
REMARK    4  A    between atoms: C_5  and  O_6
REMARK    5  A    between atoms: O_6  and  N_7
REMARK    6  A    between atoms: N_27  and  O_28
REMARK                            x       y       z     vdW  Elec       q    Type
REMARK                         _______ _______ _______ _____ _____    ______ ____
ROOT
ATOM      1  N   UNL     1       3.008   6.633  18.218  0.00  0.00    +0.000 NA
ATOM      2  C   UNL     1       2.314   6.817  19.288  0.00  0.00    +0.000 C 
ATOM      3  C   UNL     1       2.102   5.796  20.395  0.00  0.00    +0.000 C 
ATOM      4  C   UNL     1       2.309   4.478  20.223  0.00  0.00    +0.000 C 
ATOM      5  C   UNL     1       2.319   3.506  21.372  0.00  0.00    +0.000 C 
ATOM      6  O   UNL     1       1.931   3.698  22.512  0.00  0.00    +0.000 OA
ATOM      7  N   UNL     1       2.917   2.355  20.861  0.00  0.00    +0.000 N 
ATOM      8  C   UNL     1       3.179   2.480  19.495  0.00  0.00    +0.000 A 
ATOM      9  C   UNL     1       3.757   1.545  18.656  0.00  0.00    +0.000 A 
ATOM     10  C   UNL     1       3.878   1.873  17.300  0.00  0.00    +0.000 A 
ATOM     11  C   UNL     1       3.328   3.059  16.805  0.00  0.00    +0.000 A 
ATOM     12  C   UNL     1       2.694   3.950  17.669  0.00  0.00    +0.000 A 
ATOM     13  C   UNL     1       2.728   3.715  19.033  0.00  0.00    +0.000 A 
ATOM     14  N   UNL     1       1.654   6.510  21.496  0.00  0.00    +0.000 N 
ATOM     15  C   UNL     1       1.283   7.800  21.091  0.00  0.00    +0.000 A 
ATOM     16  C   UNL     1       0.770   8.835  21.848  0.00  0.00    +0.000 A 
ATOM     17  C   UNL     1       0.590  10.091  21.240  0.00  0.00    +0.000 A 
ATOM     18  C   UNL     1       0.936  10.307  19.897  0.00  0.00    +0.000 A 
ATOM     19  C   UNL     1       1.484   9.276  19.146  0.00  0.00    +0.000 A 
ATOM     20  C   UNL     1       1.663   8.044  19.766  0.00  0.00    +0.000 A 
ATOM     21  H   UNL     1       3.077   1.523  21.409  0.00  0.00    +0.000 HD
ATOM     22  H   UNL     1       1.203   6.018  22.255  0.00  0.00    +0.000 HD
ENDROOT
BRANCH   1  23
ATOM     23  O   UNL     1       2.885   7.657  17.295  0.00  0.00    +0.000 OA
BRANCH  23  24
ATOM     24  C   UNL     1       4.162   7.948  16.741  0.00  0.00    +0.000 C 
BRANCH  24  25
ATOM     25  C   UNL     1       5.063   6.773  17.062  0.00  0.00    +0.000 C 
BRANCH  25  26
ATOM     26  C   UNL     1       5.398   5.982  15.799  0.00  0.00    +0.000 C 
BRANCH  26  28
ATOM     27  O   UNL     1       7.602   5.342  15.011  0.00  0.00    +0.000 OA
ATOM     28  C   UNL     1       6.750   5.320  15.894  0.00  0.00    +0.000 C 
ATOM     29  N   UNL     1       6.950   4.674  17.087  0.00  0.00    +0.000 N 
ATOM     30  H   UNL     1       6.306   4.673  17.871  0.00  0.00    +0.000 HD
BRANCH  29  31
ATOM     31  O   UNL     1       8.201   4.046  17.262  0.00  0.00    +0.000 OA
ATOM     32  H   UNL     1       8.057   3.528  18.086  0.00  0.00    +0.000 HD
ENDBRANCH  29  31
ENDBRANCH  26  28
ENDBRANCH  25  26
ENDBRANCH  24  25
ENDBRANCH  23  24
ENDBRANCH   1  23
TORSDOF 6
ENDMDL
MODEL 6
REMARK VINA RESULT:      -7.0      1.778      2.172
REMARK  Name = 
REMARK  6 active torsions:
REMARK  status: ('A' for Active; 'I' for Inactive)
REMARK    1  A    between atoms: C_2  and  C_3
REMARK    2  A    between atoms: C_3  and  C_4
REMARK    3  A    between atoms: C_4  and  C_5
REMARK    4  A    between atoms: C_5  and  O_6
REMARK    5  A    between atoms: O_6  and  N_7
REMARK    6  A    between atoms: N_27  and  O_28
REMARK                            x       y       z     vdW  Elec       q    Type
REMARK                         _______ _______ _______ _____ _____    ______ ____
ROOT
ATOM      1  N   UNL     1       3.717   6.239  17.791  0.00  0.00    +0.000 NA
ATOM      2  C   UNL     1       2.866   6.624  18.680  0.00  0.00    +0.000 C 
ATOM      3  C   UNL     1       2.399   5.806  19.874  0.00  0.00    +0.000 C 
ATOM      4  C   UNL     1       2.540   4.470  19.944  0.00  0.00    +0.000 C 
ATOM      5  C   UNL     1       2.287   3.697  21.211  0.00  0.00    +0.000 C 
ATOM      6  O   UNL     1       1.726   4.088  22.222  0.00  0.00    +0.000 OA
ATOM      7  N   UNL     1       2.880   2.455  20.997  0.00  0.00    +0.000 N 
ATOM      8  C   UNL     1       3.377   2.345  19.696  0.00  0.00    +0.000 A 
ATOM      9  C   UNL     1       4.022   1.263  19.126  0.00  0.00    +0.000 A 
ATOM     10  C   UNL     1       4.394   1.360  17.779  0.00  0.00    +0.000 A 
ATOM     11  C   UNL     1       4.020   2.473  17.020  0.00  0.00    +0.000 A 
ATOM     12  C   UNL     1       3.313   3.519  17.611  0.00  0.00    +0.000 A 
ATOM     13  C   UNL     1       3.099   3.506  18.979  0.00  0.00    +0.000 A 
ATOM     14  N   UNL     1       1.822   6.707  20.756  0.00  0.00    +0.000 N 
ATOM     15  C   UNL     1       1.617   7.929  20.099  0.00  0.00    +0.000 A 
ATOM     16  C   UNL     1       1.057   9.095  20.586  0.00  0.00    +0.000 A 
ATOM     17  C   UNL     1       1.072  10.241  19.771  0.00  0.00    +0.000 A 
ATOM     18  C   UNL     1       1.654  10.222  18.495  0.00  0.00    +0.000 A 
ATOM     19  C   UNL     1       2.248   9.060  18.020  0.00  0.00    +0.000 A 
ATOM     20  C   UNL     1       2.232   7.939  18.842  0.00  0.00    +0.000 A 
ATOM     21  H   UNL     1       2.887   1.717  21.684  0.00  0.00    +0.000 HD
ATOM     22  H   UNL     1       1.216   6.365  21.488  0.00  0.00    +0.000 HD
ENDROOT
BRANCH   1  23
ATOM     23  O   UNL     1       3.825   7.104  16.716  0.00  0.00    +0.000 OA
BRANCH  23  24
ATOM     24  C   UNL     1       4.860   6.656  15.852  0.00  0.00    +0.000 C 
BRANCH  24  25
ATOM     25  C   UNL     1       6.076   6.392  16.717  0.00  0.00    +0.000 C 
BRANCH  25  26
ATOM     26  C   UNL     1       6.622   4.985  16.475  0.00  0.00    +0.000 C 
BRANCH  26  28
ATOM     27  O   UNL     1       7.699   5.425  14.346  0.00  0.00    +0.000 OA
ATOM     28  C   UNL     1       6.928   4.746  15.018  0.00  0.00    +0.000 C 
ATOM     29  N   UNL     1       6.253   3.674  14.494  0.00  0.00    +0.000 N 
ATOM     30  H   UNL     1       5.651   3.046  15.016  0.00  0.00    +0.000 HD
BRANCH  29  31
ATOM     31  O   UNL     1       6.501   3.372  13.139  0.00  0.00    +0.000 OA
ATOM     32  H   UNL     1       6.409   2.393  13.127  0.00  0.00    +0.000 HD
ENDBRANCH  29  31
ENDBRANCH  26  28
ENDBRANCH  25  26
ENDBRANCH  24  25
ENDBRANCH  23  24
ENDBRANCH   1  23
TORSDOF 6
ENDMDL
MODEL 7
REMARK VINA RESULT:      -7.0      6.490     10.386
REMARK  Name = 
REMARK  6 active torsions:
REMARK  status: ('A' for Active; 'I' for Inactive)
REMARK    1  A    between atoms: C_2  and  C_3
REMARK    2  A    between atoms: C_3  and  C_4
REMARK    3  A    between atoms: C_4  and  C_5
REMARK    4  A    between atoms: C_5  and  O_6
REMARK    5  A    between atoms: O_6  and  N_7
REMARK    6  A    between atoms: N_27  and  O_28
REMARK                            x       y       z     vdW  Elec       q    Type
REMARK                         _______ _______ _______ _____ _____    ______ ____
ROOT
ATOM      1  N   UNL     1      -1.994  12.493  20.141  0.00  0.00    +0.000 NA
ATOM      2  C   UNL     1      -2.991  12.153  19.397  0.00  0.00    +0.000 C 
ATOM      3  C   UNL     1      -4.438  12.574  19.604  0.00  0.00    +0.000 C 
ATOM      4  C   UNL     1      -4.900  13.045  20.776  0.00  0.00    +0.000 C 
ATOM      5  C   UNL     1      -6.264  13.670  20.913  0.00  0.00    +0.000 C 
ATOM      6  O   UNL     1      -7.184  13.629  20.113  0.00  0.00    +0.000 OA
ATOM      7  N   UNL     1      -6.226  14.347  22.130  0.00  0.00    +0.000 N 
ATOM      8  C   UNL     1      -5.024  14.119  22.804  0.00  0.00    +0.000 A 
ATOM      9  C   UNL     1      -4.635  14.619  24.033  0.00  0.00    +0.000 A 
ATOM     10  C   UNL     1      -3.394  14.213  24.539  0.00  0.00    +0.000 A 
ATOM     11  C   UNL     1      -2.635  13.250  23.867  0.00  0.00    +0.000 A 
ATOM     12  C   UNL     1      -3.088  12.718  22.661  0.00  0.00    +0.000 A 
ATOM     13  C   UNL     1      -4.224  13.245  22.071  0.00  0.00    +0.000 A 
ATOM     14  N   UNL     1      -5.084  12.333  18.401  0.00  0.00    +0.000 N 
ATOM     15  C   UNL     1      -4.266  11.535  17.589  0.00  0.00    +0.000 A 
ATOM     16  C   UNL     1      -4.515  11.043  16.322  0.00  0.00    +0.000 A 
ATOM     17  C   UNL     1      -3.483  10.364  15.648  0.00  0.00    +0.000 A 
ATOM     18  C   UNL     1      -2.218  10.196  16.231  0.00  0.00    +0.000 A 
ATOM     19  C   UNL     1      -1.957  10.721  17.489  0.00  0.00    +0.000 A 
ATOM     20  C   UNL     1      -2.986  11.397  18.137  0.00  0.00    +0.000 A 
ATOM     21  H   UNL     1      -7.001  14.881  22.492  0.00  0.00    +0.000 HD
ATOM     22  H   UNL     1      -6.093  12.289  18.382  0.00  0.00    +0.000 HD
ENDROOT
BRANCH   1  23
ATOM     23  O   UNL     1      -0.821  11.825  19.835  0.00  0.00    +0.000 OA
BRANCH  23  24
ATOM     24  C   UNL     1      -0.495  10.935  20.895  0.00  0.00    +0.000 C 
BRANCH  24  25
ATOM     25  C   UNL     1       0.884  10.380  20.599  0.00  0.00    +0.000 C 
BRANCH  25  26
ATOM     26  C   UNL     1       0.837   9.403  19.426  0.00  0.00    +0.000 C 
BRANCH  26  28
ATOM     27  O   UNL     1       2.102   9.173  17.368  0.00  0.00    +0.000 OA
ATOM     28  C   UNL     1       1.653   9.892  18.256  0.00  0.00    +0.000 C 
ATOM     29  N   UNL     1       1.855  11.248  18.270  0.00  0.00    +0.000 N 
ATOM     30  H   UNL     1       1.459  11.895  18.944  0.00  0.00    +0.000 HD
BRANCH  29  31
ATOM     31  O   UNL     1       2.594  11.788  17.196  0.00  0.00    +0.000 OA
ATOM     32  H   UNL     1       3.494  11.861  17.583  0.00  0.00    +0.000 HD
ENDBRANCH  29  31
ENDBRANCH  26  28
ENDBRANCH  25  26
ENDBRANCH  24  25
ENDBRANCH  23  24
ENDBRANCH   1  23
TORSDOF 6
ENDMDL
MODEL 8
REMARK VINA RESULT:      -6.9      1.640      5.365
REMARK  Name = 
REMARK  6 active torsions:
REMARK  status: ('A' for Active; 'I' for Inactive)
REMARK    1  A    between atoms: C_2  and  C_3
REMARK    2  A    between atoms: C_3  and  C_4
REMARK    3  A    between atoms: C_4  and  C_5
REMARK    4  A    between atoms: C_5  and  O_6
REMARK    5  A    between atoms: O_6  and  N_7
REMARK    6  A    between atoms: N_27  and  O_28
REMARK                            x       y       z     vdW  Elec       q    Type
REMARK                         _______ _______ _______ _____ _____    ______ ____
ROOT
ATOM      1  N   UNL     1       2.631   6.984  18.081  0.00  0.00    +0.000 NA
ATOM      2  C   UNL     1       2.407   6.413  19.215  0.00  0.00    +0.000 C 
ATOM      3  C   UNL     1       1.493   6.942  20.310  0.00  0.00    +0.000 C 
ATOM      4  C   UNL     1       1.101   8.227  20.376  0.00  0.00    +0.000 C 
ATOM      5  C   UNL     1       0.025   8.695  21.319  0.00  0.00    +0.000 C 
ATOM      6  O   UNL     1      -0.449   8.089  22.265  0.00  0.00    +0.000 OA
ATOM      7  N   UNL     1      -0.346   9.951  20.843  0.00  0.00    +0.000 N 
ATOM      8  C   UNL     1       0.459  10.349  19.773  0.00  0.00    +0.000 A 
ATOM      9  C   UNL     1       0.388  11.529  19.055  0.00  0.00    +0.000 A 
ATOM     10  C   UNL     1       1.337  11.736  18.046  0.00  0.00    +0.000 A 
ATOM     11  C   UNL     1       2.380  10.825  17.857  0.00  0.00    +0.000 A 
ATOM     12  C   UNL     1       2.459   9.677  18.643  0.00  0.00    +0.000 A 
ATOM     13  C   UNL     1       1.427   9.381  19.518  0.00  0.00    +0.000 A 
ATOM     14  N   UNL     1       1.234   5.868  21.147  0.00  0.00    +0.000 N 
ATOM     15  C   UNL     1       2.126   4.827  20.853  0.00  0.00    +0.000 A 
ATOM     16  C   UNL     1       2.238   3.584  21.448  0.00  0.00    +0.000 A 
ATOM     17  C   UNL     1       3.134   2.651  20.894  0.00  0.00    +0.000 A 
ATOM     18  C   UNL     1       3.892   2.955  19.754  0.00  0.00    +0.000 A 
ATOM     19  C   UNL     1       3.754   4.191  19.136  0.00  0.00    +0.000 A 
ATOM     20  C   UNL     1       2.858   5.098  19.691  0.00  0.00    +0.000 A 
ATOM     21  H   UNL     1      -1.067  10.514  21.268  0.00  0.00    +0.000 HD
ATOM     22  H   UNL     1       0.871   6.039  22.074  0.00  0.00    +0.000 HD
ENDROOT
BRANCH   1  23
ATOM     23  O   UNL     1       3.641   6.383  17.349  0.00  0.00    +0.000 OA
BRANCH  23  24
ATOM     24  C   UNL     1       4.799   7.207  17.378  0.00  0.00    +0.000 C 
BRANCH  24  25
ATOM     25  C   UNL     1       5.919   6.420  16.725  0.00  0.00    +0.000 C 
BRANCH  25  26
ATOM     26  C   UNL     1       7.244   6.656  17.448  0.00  0.00    +0.000 C 
BRANCH  26  28
ATOM     27  O   UNL     1       7.209   4.432  18.416  0.00  0.00    +0.000 OA
ATOM     28  C   UNL     1       7.490   5.622  18.518  0.00  0.00    +0.000 C 
ATOM     29  N   UNL     1       8.071   6.142  19.646  0.00  0.00    +0.000 N 
ATOM     30  H   UNL     1       8.377   7.103  19.761  0.00  0.00    +0.000 HD
BRANCH  29  31
ATOM     31  O   UNL     1       8.353   5.232  20.687  0.00  0.00    +0.000 OA
ATOM     32  H   UNL     1       8.519   5.835  21.446  0.00  0.00    +0.000 HD
ENDBRANCH  29  31
ENDBRANCH  26  28
ENDBRANCH  25  26
ENDBRANCH  24  25
ENDBRANCH  23  24
ENDBRANCH   1  23
TORSDOF 6
ENDMDL
MODEL 9
REMARK VINA RESULT:      -6.8      1.927      5.479
REMARK  Name = 
REMARK  6 active torsions:
REMARK  status: ('A' for Active; 'I' for Inactive)
REMARK    1  A    between atoms: C_2  and  C_3
REMARK    2  A    between atoms: C_3  and  C_4
REMARK    3  A    between atoms: C_4  and  C_5
REMARK    4  A    between atoms: C_5  and  O_6
REMARK    5  A    between atoms: O_6  and  N_7
REMARK    6  A    between atoms: N_27  and  O_28
REMARK                            x       y       z     vdW  Elec       q    Type
REMARK                         _______ _______ _______ _____ _____    ______ ____
ROOT
ATOM      1  N   UNL     1       2.496   6.789  18.132  0.00  0.00    +0.000 NA
ATOM      2  C   UNL     1       2.342   6.260  19.298  0.00  0.00    +0.000 C 
ATOM      3  C   UNL     1       1.511   6.840  20.433  0.00  0.00    +0.000 C 
ATOM      4  C   UNL     1       1.140   8.132  20.480  0.00  0.00    +0.000 C 
ATOM      5  C   UNL     1       0.136   8.646  21.477  0.00  0.00    +0.000 C 
ATOM      6  O   UNL     1      -0.281   8.079  22.474  0.00  0.00    +0.000 OA
ATOM      7  N   UNL     1      -0.253   9.890  20.983  0.00  0.00    +0.000 N 
ATOM      8  C   UNL     1       0.482  10.241  19.848  0.00  0.00    +0.000 A 
ATOM      9  C   UNL     1       0.377  11.396  19.096  0.00  0.00    +0.000 A 
ATOM     10  C   UNL     1       1.257  11.555  18.018  0.00  0.00    +0.000 A 
ATOM     11  C   UNL     1       2.274  10.624  17.791  0.00  0.00    +0.000 A 
ATOM     12  C   UNL     1       2.393   9.502  18.610  0.00  0.00    +0.000 A 
ATOM     13  C   UNL     1       1.420   9.251  19.562  0.00  0.00    +0.000 A 
ATOM     14  N   UNL     1       1.297   5.798  21.323  0.00  0.00    +0.000 N 
ATOM     15  C   UNL     1       2.155   4.735  21.006  0.00  0.00    +0.000 A 
ATOM     16  C   UNL     1       2.293   3.512  21.634  0.00  0.00    +0.000 A 
ATOM     17  C   UNL     1       3.138   2.548  21.054  0.00  0.00    +0.000 A 
ATOM     18  C   UNL     1       3.820   2.803  19.855  0.00  0.00    +0.000 A 
ATOM     19  C   UNL     1       3.655   4.019  19.206  0.00  0.00    +0.000 A 
ATOM     20  C   UNL     1       2.809   4.957  19.788  0.00  0.00    +0.000 A 
ATOM     21  H   UNL     1      -0.936  10.478  21.436  0.00  0.00    +0.000 HD
ATOM     22  H   UNL     1       1.000   6.006  22.266  0.00  0.00    +0.000 HD
ENDROOT
BRANCH   1  23
ATOM     23  O   UNL     1       3.446   6.150  17.355  0.00  0.00    +0.000 OA
BRANCH  23  24
ATOM     24  C   UNL     1       4.568   7.006  17.182  0.00  0.00    +0.000 C 
BRANCH  24  25
ATOM     25  C   UNL     1       5.189   6.658  15.844  0.00  0.00    +0.000 C 
BRANCH  25  26
ATOM     26  C   UNL     1       5.425   5.153  15.728  0.00  0.00    +0.000 C 
BRANCH  26  28
ATOM     27  O   UNL     1       7.787   4.857  15.259  0.00  0.00    +0.000 OA
ATOM     28  C   UNL     1       6.851   4.783  16.049  0.00  0.00    +0.000 C 
ATOM     29  N   UNL     1       7.016   4.343  17.338  0.00  0.00    +0.000 N 
ATOM     30  H   UNL     1       6.291   4.317  18.048  0.00  0.00    +0.000 HD
BRANCH  29  31
ATOM     31  O   UNL     1       8.328   3.996  17.723  0.00  0.00    +0.000 OA
ATOM     32  H   UNL     1       8.269   3.017  17.792  0.00  0.00    +0.000 HD
ENDBRANCH  29  31
ENDBRANCH  26  28
ENDBRANCH  25  26
ENDBRANCH  24  25
ENDBRANCH  23  24
ENDBRANCH   1  23
TORSDOF 6
ENDMDL
