MODEL 1
REMARK VINA RESULT:      -7.4      0.000      0.000
REMARK  Name = 
REMARK  4 active torsions:
REMARK  status: ('A' for Active; 'I' for Inactive)
REMARK    1  A    between atoms: C_1  and  C_2
REMARK    2  A    between atoms: C_8  and  C_9
REMARK    3  A    between atoms: N_14  and  S_15
REMARK    4  A    between atoms: S_15  and  C_18
REMARK                            x       y       z     vdW  Elec       q    Type
REMARK                         _______ _______ _______ _____ _____    ______ ____
ROOT
ATOM      1  C   UNL     1       3.224   6.752  18.935  0.00  0.00    +0.000 C 
ATOM      2  O   UNL     1       3.988   7.115  18.041  0.00  0.00    +0.000 OA
ATOM      3  N   UNL     1       2.159   7.559  19.352  0.00  0.00    +0.000 N 
ATOM      4  C   UNL     1       1.855   8.743  18.536  0.00  0.00    +0.000 C 
ATOM      5  C   UNL     1       0.418   9.267  18.747  0.00  0.00    +0.000 C 
ATOM      6  N   UNL     1       0.073   9.442  20.193  0.00  0.00    +0.000 NA
ATOM      7  C   UNL     1       0.315   8.137  20.913  0.00  0.00    +0.000 C 
ATOM      8  C   UNL     1       1.776   7.681  20.770  0.00  0.00    +0.000 C 
ENDROOT
BRANCH   1  16
ATOM      9  C   UNL     1       1.178   4.430  17.272  0.00  0.00    +0.000 C 
ATOM     10  C   UNL     1       2.120   3.783  18.288  0.00  0.00    +0.000 C 
ATOM     11  C   UNL     1       1.625   2.392  18.678  0.00  0.00    +0.000 C 
ATOM     12  C   UNL     1       2.030   2.234  20.130  0.00  0.00    +0.000 C 
ATOM     13  C   UNL     1       2.060   3.653  20.629  0.00  0.00    +0.000 C 
ATOM     14  O   UNL     1       2.145   3.972  21.804  0.00  0.00    +0.000 OA
ATOM     15  N   UNL     1       2.209   4.522  19.542  0.00  0.00    +0.000 N 
ATOM     16  C   UNL     1       3.402   5.386  19.645  0.00  0.00    +0.000 C 
ATOM     17  C   UNL     1       4.546   4.535  19.078  0.00  0.00    +0.000 C 
ATOM     18  S   UNL     1       3.824   3.720  17.620  0.00  0.00    +0.000 S 
ENDBRANCH   1  16
BRANCH   6  19
ATOM     19  S   UNL     1       0.712  10.819  20.988  0.00  0.00    +0.000 S 
ATOM     20  O   UNL     1       1.512  10.373  22.106  0.00  0.00    +0.000 OA
ATOM     21  O   UNL     1       1.317  11.661  19.972  0.00  0.00    +0.000 OA
BRANCH  19  22
ATOM     22  C   UNL     1      -0.671  11.713  21.637  0.00  0.00    +0.000 A 
ATOM     23  C   UNL     1      -0.978  12.988  21.125  0.00  0.00    +0.000 A 
ATOM     24  C   UNL     1      -1.975  13.759  21.729  0.00  0.00    +0.000 A 
ATOM     25  C   UNL     1      -2.670  13.268  22.834  0.00  0.00    +0.000 A 
ATOM     26  C   UNL     1      -2.354  12.000  23.341  0.00  0.00    +0.000 A 
ATOM     27  C   UNL     1      -1.353  11.239  22.750  0.00  0.00    +0.000 A 
ATOM     28  F   UNL     1      -1.056  10.044  23.287  0.00  0.00    +0.000 F 
ENDBRANCH  19  22
ENDBRANCH   6  19
TORSDOF 3
ENDMDL
MODEL 2
REMARK VINA RESULT:      -7.3      0.972      1.241
REMARK  Name = 
REMARK  4 active torsions:
REMARK  status: ('A' for Active; 'I' for Inactive)
REMARK    1  A    between atoms: C_1  and  C_2
REMARK    2  A    between atoms: C_8  and  C_9
REMARK    3  A    between atoms: N_14  and  S_15
REMARK    4  A    between atoms: S_15  and  C_18
REMARK                            x       y       z     vdW  Elec       q    Type
REMARK                         _______ _______ _______ _____ _____    ______ ____
ROOT
ATOM      1  C   UNL     1       3.254   6.808  18.926  0.00  0.00    +0.000 C 
ATOM      2  O   UNL     1       4.022   7.179  18.038  0.00  0.00    +0.000 OA
ATOM      3  N   UNL     1       2.166   7.596  19.320  0.00  0.00    +0.000 N 
ATOM      4  C   UNL     1       1.850   8.767  18.489  0.00  0.00    +0.000 C 
ATOM      5  C   UNL     1       0.400   9.263  18.675  0.00  0.00    +0.000 C 
ATOM      6  N   UNL     1       0.031   9.443  20.116  0.00  0.00    +0.000 NA
ATOM      7  C   UNL     1       0.290   8.150  20.850  0.00  0.00    +0.000 C 
ATOM      8  C   UNL     1       1.761   7.723  20.732  0.00  0.00    +0.000 C 
ENDROOT
BRANCH   1  16
ATOM      9  C   UNL     1       1.243   4.439  17.285  0.00  0.00    +0.000 C 
ATOM     10  C   UNL     1       2.193   3.817  18.309  0.00  0.00    +0.000 C 
ATOM     11  C   UNL     1       1.717   2.423  18.713  0.00  0.00    +0.000 C 
ATOM     12  C   UNL     1       2.121   2.287  20.167  0.00  0.00    +0.000 C 
ATOM     13  C   UNL     1       2.131   3.711  20.651  0.00  0.00    +0.000 C 
ATOM     14  O   UNL     1       2.209   4.044  21.823  0.00  0.00    +0.000 OA
ATOM     15  N   UNL     1       2.269   4.571  19.555  0.00  0.00    +0.000 N 
ATOM     16  C   UNL     1       3.449   5.452  19.650  0.00  0.00    +0.000 C 
ATOM     17  C   UNL     1       4.606   4.611  19.094  0.00  0.00    +0.000 C 
ATOM     18  S   UNL     1       3.899   3.771  17.644  0.00  0.00    +0.000 S 
ENDBRANCH   1  16
BRANCH   6  19
ATOM     19  S   UNL     1       0.630  10.841  20.906  0.00  0.00    +0.000 S 
ATOM     20  O   UNL     1       1.359  10.424  22.084  0.00  0.00    +0.000 OA
ATOM     21  O   UNL     1       1.301  11.648  19.904  0.00  0.00    +0.000 OA
BRANCH  19  22
ATOM     22  C   UNL     1      -0.783  11.760  21.444  0.00  0.00    +0.000 A 
ATOM     23  C   UNL     1      -1.067  11.859  22.820  0.00  0.00    +0.000 A 
ATOM     24  C   UNL     1      -2.255  12.459  23.244  0.00  0.00    +0.000 A 
ATOM     25  C   UNL     1      -3.161  12.963  22.309  0.00  0.00    +0.000 A 
ATOM     26  C   UNL     1      -2.873  12.855  20.942  0.00  0.00    +0.000 A 
ATOM     27  C   UNL     1      -1.697  12.246  20.520  0.00  0.00    +0.000 A 
ATOM     28  F   UNL     1      -1.476  12.130  19.199  0.00  0.00    +0.000 F 
ENDBRANCH  19  22
ENDBRANCH   6  19
TORSDOF 3
ENDMDL
MODEL 3
REMARK VINA RESULT:      -7.2      1.594      1.990
REMARK  Name = 
REMARK  4 active torsions:
REMARK  status: ('A' for Active; 'I' for Inactive)
REMARK    1  A    between atoms: C_1  and  C_2
REMARK    2  A    between atoms: C_8  and  C_9
REMARK    3  A    between atoms: N_14  and  S_15
REMARK    4  A    between atoms: S_15  and  C_18
REMARK                            x       y       z     vdW  Elec       q    Type
REMARK                         _______ _______ _______ _____ _____    ______ ____
ROOT
ATOM      1  C   UNL     1       2.515   7.428  18.546  0.00  0.00    +0.000 C 
ATOM      2  O   UNL     1       3.270   7.985  17.750  0.00  0.00    +0.000 OA
ATOM      3  N   UNL     1       1.551   8.151  19.260  0.00  0.00    +0.000 N 
ATOM      4  C   UNL     1       1.328   9.547  18.859  0.00  0.00    +0.000 C 
ATOM      5  C   UNL     1      -0.042  10.094  19.318  0.00  0.00    +0.000 C 
ATOM      6  N   UNL     1      -0.305   9.846  20.772  0.00  0.00    +0.000 NA
ATOM      7  C   UNL     1      -0.159   8.368  21.048  0.00  0.00    +0.000 C 
ATOM      8  C   UNL     1       1.243   7.864  20.672  0.00  0.00    +0.000 C 
ENDROOT
BRANCH   1  16
ATOM      9  C   UNL     1       4.895   6.109  16.322  0.00  0.00    +0.000 C 
ATOM     10  C   UNL     1       4.426   5.100  17.371  0.00  0.00    +0.000 C 
ATOM     11  C   UNL     1       4.725   3.672  16.920  0.00  0.00    +0.000 C 
ATOM     12  C   UNL     1       3.586   2.846  17.484  0.00  0.00    +0.000 C 
ATOM     13  C   UNL     1       2.459   3.839  17.573  0.00  0.00    +0.000 C 
ATOM     14  O   UNL     1       1.293   3.547  17.789  0.00  0.00    +0.000 OA
ATOM     15  N   UNL     1       2.986   5.135  17.600  0.00  0.00    +0.000 N 
ATOM     16  C   UNL     1       2.590   5.901  18.799  0.00  0.00    +0.000 C 
ATOM     17  C   UNL     1       3.611   5.498  19.871  0.00  0.00    +0.000 C 
ATOM     18  S   UNL     1       5.202   5.463  18.990  0.00  0.00    +0.000 S 
ENDBRANCH   1  16
BRANCH   6  19
ATOM     19  S   UNL     1       0.497  10.860  21.896  0.00  0.00    +0.000 S 
ATOM     20  O   UNL     1       0.737  10.105  23.105  0.00  0.00    +0.000 OA
ATOM     21  O   UNL     1       1.619  11.467  21.203  0.00  0.00    +0.000 OA
BRANCH  19  22
ATOM     22  C   UNL     1      -0.630  12.166  22.290  0.00  0.00    +0.000 A 
ATOM     23  C   UNL     1      -0.304  13.493  21.950  0.00  0.00    +0.000 A 
ATOM     24  C   UNL     1      -1.118  14.543  22.385  0.00  0.00    +0.000 A 
ATOM     25  C   UNL     1      -2.254  14.280  23.151  0.00  0.00    +0.000 A 
ATOM     26  C   UNL     1      -2.567  12.957  23.490  0.00  0.00    +0.000 A 
ATOM     27  C   UNL     1      -1.751  11.914  23.069  0.00  0.00    +0.000 A 
ATOM     28  F   UNL     1      -2.067  10.664  23.445  0.00  0.00    +0.000 F 
ENDBRANCH  19  22
ENDBRANCH   6  19
TORSDOF 3
ENDMDL
MODEL 4
REMARK VINA RESULT:      -7.1      3.161      8.615
REMARK  Name = 
REMARK  4 active torsions:
REMARK  status: ('A' for Active; 'I' for Inactive)
REMARK    1  A    between atoms: C_1  and  C_2
REMARK    2  A    between atoms: C_8  and  C_9
REMARK    3  A    between atoms: N_14  and  S_15
REMARK    4  A    between atoms: S_15  and  C_18
REMARK                            x       y       z     vdW  Elec       q    Type
REMARK                         _______ _______ _______ _____ _____    ______ ____
ROOT
ATOM      1  C   UNL     1       1.443   8.498  20.132  0.00  0.00    +0.000 C 
ATOM      2  O   UNL     1       1.458   8.752  21.337  0.00  0.00    +0.000 OA
ATOM      3  N   UNL     1       1.900   7.268  19.645  0.00  0.00    +0.000 N 
ATOM      4  C   UNL     1       2.183   6.218  20.634  0.00  0.00    +0.000 C 
ATOM      5  C   UNL     1       2.180   4.799  20.023  0.00  0.00    +0.000 C 
ATOM      6  N   UNL     1       3.030   4.698  18.794  0.00  0.00    +0.000 NA
ATOM      7  C   UNL     1       2.580   5.746  17.804  0.00  0.00    +0.000 C 
ATOM      8  C   UNL     1       2.680   7.159  18.399  0.00  0.00    +0.000 C 
ENDROOT
BRANCH   1  16
ATOM      9  C   UNL     1      -0.754  10.666  21.812  0.00  0.00    +0.000 C 
ATOM     10  C   UNL     1      -0.421  11.126  20.393  0.00  0.00    +0.000 C 
ATOM     11  C   UNL     1      -1.466  12.120  19.887  0.00  0.00    +0.000 C 
ATOM     12  C   UNL     1      -1.560  11.851  18.399  0.00  0.00    +0.000 C 
ATOM     13  C   UNL     1      -1.165  10.404  18.289  0.00  0.00    +0.000 C 
ATOM     14  O   UNL     1      -1.299   9.723  17.285  0.00  0.00    +0.000 OA
ATOM     15  N   UNL     1      -0.424  10.040  19.420  0.00  0.00    +0.000 N 
ATOM     16  C   UNL     1       0.921   9.524  19.096  0.00  0.00    +0.000 C 
ATOM     17  C   UNL     1       1.795  10.779  18.966  0.00  0.00    +0.000 C 
ATOM     18  S   UNL     1       1.262  11.846  20.339  0.00  0.00    +0.000 S 
ENDBRANCH   1  16
BRANCH   6  19
ATOM     19  S   UNL     1       4.726   4.618  19.020  0.00  0.00    +0.000 S 
ATOM     20  O   UNL     1       5.153   5.811  19.716  0.00  0.00    +0.000 OA
ATOM     21  O   UNL     1       5.023   3.318  19.593  0.00  0.00    +0.000 OA
BRANCH  19  22
ATOM     22  C   UNL     1       5.452   4.646  17.407  0.00  0.00    +0.000 A 
ATOM     23  C   UNL     1       4.689   4.245  16.294  0.00  0.00    +0.000 A 
ATOM     24  C   UNL     1       5.295   4.126  15.040  0.00  0.00    +0.000 A 
ATOM     25  C   UNL     1       6.653   4.407  14.887  0.00  0.00    +0.000 A 
ATOM     26  C   UNL     1       7.406   4.801  16.002  0.00  0.00    +0.000 A 
ATOM     27  C   UNL     1       6.806   4.905  17.251  0.00  0.00    +0.000 A 
ATOM     28  F   UNL     1       7.571   5.250  18.300  0.00  0.00    +0.000 F 
ENDBRANCH  19  22
ENDBRANCH   6  19
TORSDOF 3
ENDMDL
MODEL 5
REMARK VINA RESULT:      -7.0      1.796      2.319
REMARK  Name = 
REMARK  4 active torsions:
REMARK  status: ('A' for Active; 'I' for Inactive)
REMARK    1  A    between atoms: C_1  and  C_2
REMARK    2  A    between atoms: C_8  and  C_9
REMARK    3  A    between atoms: N_14  and  S_15
REMARK    4  A    between atoms: S_15  and  C_18
REMARK                            x       y       z     vdW  Elec       q    Type
REMARK                         _______ _______ _______ _____ _____    ______ ____
ROOT
ATOM      1  C   UNL     1       2.522   7.451  18.617  0.00  0.00    +0.000 C 
ATOM      2  O   UNL     1       3.292   8.041  17.859  0.00  0.00    +0.000 OA
ATOM      3  N   UNL     1       1.539   8.143  19.336  0.00  0.00    +0.000 N 
ATOM      4  C   UNL     1       1.318   9.553  18.982  0.00  0.00    +0.000 C 
ATOM      5  C   UNL     1      -0.064  10.076  19.431  0.00  0.00    +0.000 C 
ATOM      6  N   UNL     1      -0.359   9.773  20.867  0.00  0.00    +0.000 NA
ATOM      7  C   UNL     1      -0.211   8.287  21.092  0.00  0.00    +0.000 C 
ATOM      8  C   UNL     1       1.201   7.803  20.729  0.00  0.00    +0.000 C 
ENDROOT
BRANCH   1  16
ATOM      9  C   UNL     1       4.904   6.216  16.348  0.00  0.00    +0.000 C 
ATOM     10  C   UNL     1       4.436   5.170  17.360  0.00  0.00    +0.000 C 
ATOM     11  C   UNL     1       4.737   3.758  16.858  0.00  0.00    +0.000 C 
ATOM     12  C   UNL     1       3.599   2.912  17.392  0.00  0.00    +0.000 C 
ATOM     13  C   UNL     1       2.471   3.899  17.516  0.00  0.00    +0.000 C 
ATOM     14  O   UNL     1       1.306   3.598  17.721  0.00  0.00    +0.000 OA
ATOM     15  N   UNL     1       2.997   5.195  17.590  0.00  0.00    +0.000 N 
ATOM     16  C   UNL     1       2.599   5.916  18.815  0.00  0.00    +0.000 C 
ATOM     17  C   UNL     1       3.621   5.476  19.873  0.00  0.00    +0.000 C 
ATOM     18  S   UNL     1       5.212   5.475  18.991  0.00  0.00    +0.000 S 
ENDBRANCH   1  16
BRANCH   6  19
ATOM     19  S   UNL     1       0.414  10.748  22.046  0.00  0.00    +0.000 S 
ATOM     20  O   UNL     1       0.769   9.913  23.171  0.00  0.00    +0.000 OA
ATOM     21  O   UNL     1       1.450  11.504  21.367  0.00  0.00    +0.000 OA
BRANCH  19  22
ATOM     22  C   UNL     1      -0.793  11.917  22.602  0.00  0.00    +0.000 A 
ATOM     23  C   UNL     1      -1.998  11.457  23.168  0.00  0.00    +0.000 A 
ATOM     24  C   UNL     1      -3.014  12.365  23.476  0.00  0.00    +0.000 A 
ATOM     25  C   UNL     1      -2.838  13.727  23.228  0.00  0.00    +0.000 A 
ATOM     26  C   UNL     1      -1.638  14.175  22.659  0.00  0.00    +0.000 A 
ATOM     27  C   UNL     1      -0.633  13.270  22.339  0.00  0.00    +0.000 A 
ATOM     28  F   UNL     1       0.487  13.736  21.762  0.00  0.00    +0.000 F 
ENDBRANCH  19  22
ENDBRANCH   6  19
TORSDOF 3
ENDMDL
MODEL 6
REMARK VINA RESULT:      -7.0      1.169      1.392
REMARK  Name = 
REMARK  4 active torsions:
REMARK  status: ('A' for Active; 'I' for Inactive)
REMARK    1  A    between atoms: C_1  and  C_2
REMARK    2  A    between atoms: C_8  and  C_9
REMARK    3  A    between atoms: N_14  and  S_15
REMARK    4  A    between atoms: S_15  and  C_18
REMARK                            x       y       z     vdW  Elec       q    Type
REMARK                         _______ _______ _______ _____ _____    ______ ____
ROOT
ATOM      1  C   UNL     1       2.833   7.271  18.722  0.00  0.00    +0.000 C 
ATOM      2  O   UNL     1       3.388   7.549  17.659  0.00  0.00    +0.000 OA
ATOM      3  N   UNL     1       1.831   8.092  19.254  0.00  0.00    +0.000 N 
ATOM      4  C   UNL     1       1.317   9.166  18.392  0.00  0.00    +0.000 C 
ATOM      5  C   UNL     1      -0.075   9.673  18.829  0.00  0.00    +0.000 C 
ATOM      6  N   UNL     1      -0.139  10.004  20.288  0.00  0.00    +0.000 NA
ATOM      7  C   UNL     1       0.303   8.797  21.080  0.00  0.00    +0.000 C 
ATOM      8  C   UNL     1       1.727   8.366  20.698  0.00  0.00    +0.000 C 
ENDROOT
BRANCH   1  16
ATOM      9  C   UNL     1       1.217   4.546  17.202  0.00  0.00    +0.000 C 
ATOM     10  C   UNL     1       2.230   4.127  18.268  0.00  0.00    +0.000 C 
ATOM     11  C   UNL     1       1.956   2.703  18.747  0.00  0.00    +0.000 C 
ATOM     12  C   UNL     1       2.351   2.708  20.210  0.00  0.00    +0.000 C 
ATOM     13  C   UNL     1       2.145   4.143  20.612  0.00  0.00    +0.000 C 
ATOM     14  O   UNL     1       2.153   4.548  21.764  0.00  0.00    +0.000 OA
ATOM     15  N   UNL     1       2.174   4.952  19.470  0.00  0.00    +0.000 N 
ATOM     16  C   UNL     1       3.211   6.001  19.525  0.00  0.00    +0.000 C 
ATOM     17  C   UNL     1       4.488   5.309  19.028  0.00  0.00    +0.000 C 
ATOM     18  S   UNL     1       3.935   4.295  17.622  0.00  0.00    +0.000 S 
ENDBRANCH   1  16
BRANCH   6  19
ATOM     19  S   UNL     1       0.575  11.480  20.786  0.00  0.00    +0.000 S 
ATOM     20  O   UNL     1       1.817  11.182  21.465  0.00  0.00    +0.000 OA
ATOM     21  O   UNL     1       0.590  12.362  19.634  0.00  0.00    +0.000 OA
BRANCH  19  22
ATOM     22  C   UNL     1      -0.527  12.199  21.969  0.00  0.00    +0.000 A 
ATOM     23  C   UNL     1      -1.678  11.491  22.367  0.00  0.00    +0.000 A 
ATOM     24  C   UNL     1      -2.626  12.109  23.187  0.00  0.00    +0.000 A 
ATOM     25  C   UNL     1      -2.435  13.424  23.615  0.00  0.00    +0.000 A 
ATOM     26  C   UNL     1      -1.290  14.122  23.209  0.00  0.00    +0.000 A 
ATOM     27  C   UNL     1      -0.354  13.512  22.382  0.00  0.00    +0.000 A 
ATOM     28  F   UNL     1       0.712  14.228  21.986  0.00  0.00    +0.000 F 
ENDBRANCH  19  22
ENDBRANCH   6  19
TORSDOF 3
ENDMDL
MODEL 7
REMARK VINA RESULT:      -7.0      3.152      8.513
REMARK  Name = 
REMARK  4 active torsions:
REMARK  status: ('A' for Active; 'I' for Inactive)
REMARK    1  A    between atoms: C_1  and  C_2
REMARK    2  A    between atoms: C_8  and  C_9
REMARK    3  A    between atoms: N_14  and  S_15
REMARK    4  A    between atoms: S_15  and  C_18
REMARK                            x       y       z     vdW  Elec       q    Type
REMARK                         _______ _______ _______ _____ _____    ______ ____
ROOT
ATOM      1  C   UNL     1       1.398   8.554  20.089  0.00  0.00    +0.000 C 
ATOM      2  O   UNL     1       1.405   8.841  21.286  0.00  0.00    +0.000 OA
ATOM      3  N   UNL     1       1.855   7.310  19.638  0.00  0.00    +0.000 N 
ATOM      4  C   UNL     1       2.129   6.287  20.657  0.00  0.00    +0.000 C 
ATOM      5  C   UNL     1       2.128   4.852  20.086  0.00  0.00    +0.000 C 
ATOM      6  N   UNL     1       2.985   4.715  18.866  0.00  0.00    +0.000 NA
ATOM      7  C   UNL     1       2.544   5.736  17.844  0.00  0.00    +0.000 C 
ATOM      8  C   UNL     1       2.643   7.165  18.401  0.00  0.00    +0.000 C 
ENDROOT
BRANCH   1  16
ATOM      9  C   UNL     1      -0.754  10.811  21.707  0.00  0.00    +0.000 C 
ATOM     10  C   UNL     1      -0.425  11.218  20.271  0.00  0.00    +0.000 C 
ATOM     11  C   UNL     1      -1.457  12.210  19.737  0.00  0.00    +0.000 C 
ATOM     12  C   UNL     1      -1.565  11.892  18.260  0.00  0.00    +0.000 C 
ATOM     13  C   UNL     1      -1.193  10.436  18.198  0.00  0.00    +0.000 C 
ATOM     14  O   UNL     1      -1.344   9.723  17.218  0.00  0.00    +0.000 OA
ATOM     15  N   UNL     1      -0.451  10.100  19.335  0.00  0.00    +0.000 N 
ATOM     16  C   UNL     1       0.884   9.552  19.020  0.00  0.00    +0.000 C 
ATOM     17  C   UNL     1       1.777  10.787  18.842  0.00  0.00    +0.000 C 
ATOM     18  S   UNL     1       1.269  11.909  20.181  0.00  0.00    +0.000 S 
ENDBRANCH   1  16
BRANCH   6  19
ATOM     19  S   UNL     1       4.680   4.638  19.105  0.00  0.00    +0.000 S 
ATOM     20  O   UNL     1       5.096   5.825  19.819  0.00  0.00    +0.000 OA
ATOM     21  O   UNL     1       4.976   3.332  19.665  0.00  0.00    +0.000 OA
BRANCH  19  22
ATOM     22  C   UNL     1       5.419   4.688  17.498  0.00  0.00    +0.000 A 
ATOM     23  C   UNL     1       6.262   5.761  17.153  0.00  0.00    +0.000 A 
ATOM     24  C   UNL     1       6.733   5.883  15.843  0.00  0.00    +0.000 A 
ATOM     25  C   UNL     1       6.372   4.943  14.877  0.00  0.00    +0.000 A 
ATOM     26  C   UNL     1       5.528   3.882  15.228  0.00  0.00    +0.000 A 
ATOM     27  C   UNL     1       5.048   3.768  16.527  0.00  0.00    +0.000 A 
ATOM     28  F   UNL     1       4.212   2.756  16.814  0.00  0.00    +0.000 F 
ENDBRANCH  19  22
ENDBRANCH   6  19
TORSDOF 3
ENDMDL
MODEL 8
REMARK VINA RESULT:      -7.0      1.320      1.425
REMARK  Name = 
REMARK  4 active torsions:
REMARK  status: ('A' for Active; 'I' for Inactive)
REMARK    1  A    between atoms: C_1  and  C_2
REMARK    2  A    between atoms: C_8  and  C_9
REMARK    3  A    between atoms: N_14  and  S_15
REMARK    4  A    between atoms: S_15  and  C_18
REMARK                            x       y       z     vdW  Elec       q    Type
REMARK                         _______ _______ _______ _____ _____    ______ ____
ROOT
ATOM      1  C   UNL     1       3.178   6.987  18.660  0.00  0.00    +0.000 C 
ATOM      2  O   UNL     1       3.879   7.254  17.683  0.00  0.00    +0.000 OA
ATOM      3  N   UNL     1       2.135   7.832  19.058  0.00  0.00    +0.000 N 
ATOM      4  C   UNL     1       1.769   8.922  18.142  0.00  0.00    +0.000 C 
ATOM      5  C   UNL     1       0.345   9.464  18.390  0.00  0.00    +0.000 C 
ATOM      6  N   UNL     1       0.093   9.791  19.830  0.00  0.00    +0.000 NA
ATOM      7  C   UNL     1       0.392   8.570  20.666  0.00  0.00    +0.000 C 
ATOM      8  C   UNL     1       1.844   8.104  20.477  0.00  0.00    +0.000 C 
ENDROOT
BRANCH   1  16
ATOM      9  C   UNL     1       1.217   4.436  17.248  0.00  0.00    +0.000 C 
ATOM     10  C   UNL     1       2.189   3.929  18.313  0.00  0.00    +0.000 C 
ATOM     11  C   UNL     1       1.751   2.563  18.840  0.00  0.00    +0.000 C 
ATOM     12  C   UNL     1       2.168   2.564  20.297  0.00  0.00    +0.000 C 
ATOM     13  C   UNL     1       2.145   4.024  20.656  0.00  0.00    +0.000 C 
ATOM     14  O   UNL     1       2.223   4.459  21.794  0.00  0.00    +0.000 OA
ATOM     15  N   UNL     1       2.254   4.789  19.489  0.00  0.00    +0.000 N 
ATOM     16  C   UNL     1       3.412   5.704  19.497  0.00  0.00    +0.000 C 
ATOM     17  C   UNL     1       4.587   4.847  19.006  0.00  0.00    +0.000 C 
ATOM     18  S   UNL     1       3.891   3.867  17.640  0.00  0.00    +0.000 S 
ENDBRANCH   1  16
BRANCH   6  19
ATOM     19  S   UNL     1       0.771  11.246  20.430  0.00  0.00    +0.000 S 
ATOM     20  O   UNL     1       1.398  10.968  21.703  0.00  0.00    +0.000 OA
ATOM     21  O   UNL     1       1.561  11.826  19.360  0.00  0.00    +0.000 OA
BRANCH  19  22
ATOM     22  C   UNL     1      -0.582  12.348  20.725  0.00  0.00    +0.000 A 
ATOM     23  C   UNL     1      -1.863  12.022  20.239  0.00  0.00    +0.000 A 
ATOM     24  C   UNL     1      -2.903  12.951  20.341  0.00  0.00    +0.000 A 
ATOM     25  C   UNL     1      -2.677  14.198  20.924  0.00  0.00    +0.000 A 
ATOM     26  C   UNL     1      -1.397  14.516  21.399  0.00  0.00    +0.000 A 
ATOM     27  C   UNL     1      -0.360  13.598  21.286  0.00  0.00    +0.000 A 
ATOM     28  F   UNL     1       0.860  13.955  21.721  0.00  0.00    +0.000 F 
ENDBRANCH  19  22
ENDBRANCH   6  19
TORSDOF 3
ENDMDL
MODEL 9
REMARK VINA RESULT:      -6.8      1.826      2.301
REMARK  Name = 
REMARK  4 active torsions:
REMARK  status: ('A' for Active; 'I' for Inactive)
REMARK    1  A    between atoms: C_1  and  C_2
REMARK    2  A    between atoms: C_8  and  C_9
REMARK    3  A    between atoms: N_14  and  S_15
REMARK    4  A    between atoms: S_15  and  C_18
REMARK                            x       y       z     vdW  Elec       q    Type
REMARK                         _______ _______ _______ _____ _____    ______ ____
ROOT
ATOM      1  C   UNL     1       2.762   7.468  18.222  0.00  0.00    +0.000 C 
ATOM      2  O   UNL     1       3.662   7.858  17.477  0.00  0.00    +0.000 OA
ATOM      3  N   UNL     1       1.793   8.352  18.713  0.00  0.00    +0.000 N 
ATOM      4  C   UNL     1       1.761   9.702  18.132  0.00  0.00    +0.000 C 
ATOM      5  C   UNL     1       0.406  10.414  18.338  0.00  0.00    +0.000 C 
ATOM      6  N   UNL     1      -0.059  10.371  19.761  0.00  0.00    +0.000 NA
ATOM      7  C   UNL     1      -0.095   8.932  20.218  0.00  0.00    +0.000 C 
ATOM      8  C   UNL     1       1.285   8.270  20.094  0.00  0.00    +0.000 C 
ENDROOT
BRANCH   1  16
ATOM      9  C   UNL     1       5.006   5.631  16.238  0.00  0.00    +0.000 C 
ATOM     10  C   UNL     1       4.406   4.814  17.383  0.00  0.00    +0.000 C 
ATOM     11  C   UNL     1       4.542   3.317  17.110  0.00  0.00    +0.000 C 
ATOM     12  C   UNL     1       3.305   2.701  17.732  0.00  0.00    +0.000 C 
ATOM     13  C   UNL     1       2.302   3.820  17.671  0.00  0.00    +0.000 C 
ATOM     14  O   UNL     1       1.106   3.691  17.885  0.00  0.00    +0.000 OA
ATOM     15  N   UNL     1       2.977   5.041  17.564  0.00  0.00    +0.000 N 
ATOM     16  C   UNL     1       2.653   5.984  18.652  0.00  0.00    +0.000 C 
ATOM     17  C   UNL     1       3.603   5.597  19.794  0.00  0.00    +0.000 C 
ATOM     18  S   UNL     1       5.193   5.275  18.971  0.00  0.00    +0.000 S 
ENDBRANCH   1  16
BRANCH   6  19
ATOM     19  S   UNL     1       0.694  11.447  20.862  0.00  0.00    +0.000 S 
ATOM     20  O   UNL     1       1.189  10.681  21.985  0.00  0.00    +0.000 OA
ATOM     21  O   UNL     1       1.617  12.267  20.099  0.00  0.00    +0.000 OA
BRANCH  19  22
ATOM     22  C   UNL     1      -0.575  12.525  21.461  0.00  0.00    +0.000 A 
ATOM     23  C   UNL     1      -0.984  12.438  22.806  0.00  0.00    +0.000 A 
ATOM     24  C   UNL     1      -2.081  13.182  23.249  0.00  0.00    +0.000 A 
ATOM     25  C   UNL     1      -2.770  14.013  22.365  0.00  0.00    +0.000 A 
ATOM     26  C   UNL     1      -2.360  14.088  21.027  0.00  0.00    +0.000 A 
ATOM     27  C   UNL     1      -1.278  13.337  20.583  0.00  0.00    +0.000 A 
ATOM     28  F   UNL     1      -0.939  13.411  19.284  0.00  0.00    +0.000 F 
ENDBRANCH  19  22
ENDBRANCH   6  19
TORSDOF 3
ENDMDL
