MODEL 1
REMARK VINA RESULT:      -7.7      0.000      0.000
REMARK  Name = 
REMARK  10 active torsions:
REMARK  status: ('A' for Active; 'I' for Inactive)
REMARK    1  A    between atoms: C_1  and  O_2
REMARK    2  A    between atoms: O_2  and  C_3
REMARK    3  A    between atoms: C_7  and  C_8
REMARK    4  A    between atoms: C_8  and  C_9
REMARK    5  A    between atoms: C_9  and  C_10
REMARK    6  A    between atoms: C_10  and  O_11
REMARK    7  A    between atoms: O_11  and  C_12
REMARK    8  A    between atoms: C_12  and  C_14
REMARK    9  A    between atoms: C_26  and  O_27
REMARK   10  A    between atoms: O_27  and  C_28
REMARK                            x       y       z     vdW  Elec       q    Type
REMARK                         _______ _______ _______ _____ _____    ______ ____
ROOT
ATOM      1  C   UNL     1       6.332   6.062  16.815  0.00  0.00    +0.000 A 
ATOM      2  C   UNL     1       5.535   6.432  17.905  0.00  0.00    +0.000 A 
ATOM      3  C   UNL     1       4.349   5.754  18.181  0.00  0.00    +0.000 A 
ATOM      4  C   UNL     1       3.559   6.109  19.345  0.00  0.00    +0.000 A 
ATOM      5  C   UNL     1       2.439   5.424  19.592  0.00  0.00    +0.000 A 
ATOM      6  O   UNL     1       1.999   4.380  18.744  0.00  0.00    +0.000 OA
ATOM      7  C   UNL     1       2.686   3.991  17.629  0.00  0.00    +0.000 A 
ATOM      8  O   UNL     1       2.298   3.095  16.896  0.00  0.00    +0.000 OA
ATOM      9  C   UNL     1       3.942   4.721  17.344  0.00  0.00    +0.000 A 
ATOM     10  C   UNL     1       4.708   4.366  16.226  0.00  0.00    +0.000 A 
ATOM     11  C   UNL     1       5.907   5.033  15.951  0.00  0.00    +0.000 A 
ENDROOT
BRANCH   1  13
ATOM     12  C   UNL     1       7.821   7.806  17.379  0.00  0.00    +0.000 C 
ATOM     13  O   UNL     1       7.520   6.696  16.534  0.00  0.00    +0.000 OA
ENDBRANCH   1  13
BRANCH  11  14
ATOM     14  O   UNL     1       6.718   4.736  14.883  0.00  0.00    +0.000 OA
ATOM     15  C   UNL     1       6.171   3.914  13.856  0.00  0.00    +0.000 C 
ENDBRANCH  11  14
BRANCH   5  16
ATOM     16  C   UNL     1       1.578   5.703  20.795  0.00  0.00    +0.000 C 
BRANCH  16  17
ATOM     17  C   UNL     1       0.741   6.979  20.674  0.00  0.00    +0.000 C 
BRANCH  17  18
ATOM     18  C   UNL     1       1.474   8.199  21.225  0.00  0.00    +0.000 C 
BRANCH  18  19
ATOM     19  O   UNL     1       0.862   9.415  20.769  0.00  0.00    +0.000 OA
BRANCH  19  20
ATOM     20  C   UNL     1       0.834   9.574  19.421  0.00  0.00    +0.000 C 
ATOM     21  O   UNL     1       1.691   9.195  18.639  0.00  0.00    +0.000 OA
BRANCH  20  22
ATOM     22  C   UNL     1      -0.412  10.258  18.990  0.00  0.00    +0.000 A 
ATOM     23  C   UNL     1      -1.067  11.209  19.785  0.00  0.00    +0.000 A 
ATOM     24  C   UNL     1      -2.230  11.828  19.320  0.00  0.00    +0.000 A 
ATOM     25  C   UNL     1      -2.744  11.499  18.065  0.00  0.00    +0.000 A 
ATOM     26  C   UNL     1      -2.094  10.548  17.279  0.00  0.00    +0.000 A 
ATOM     27 BR   UNL     1      -2.790  10.102  15.579  0.00  0.00    +0.000 Br
ATOM     28  C   UNL     1      -0.934   9.925  17.733  0.00  0.00    +0.000 A 
ENDBRANCH  20  22
ENDBRANCH  19  20
ENDBRANCH  18  19
ENDBRANCH  17  18
ENDBRANCH  16  17
ENDBRANCH   5  16
TORSDOF 8
ENDMDL
MODEL 2
REMARK VINA RESULT:      -7.5      3.190      7.763
REMARK  Name = 
REMARK  10 active torsions:
REMARK  status: ('A' for Active; 'I' for Inactive)
REMARK    1  A    between atoms: C_1  and  O_2
REMARK    2  A    between atoms: O_2  and  C_3
REMARK    3  A    between atoms: C_7  and  C_8
REMARK    4  A    between atoms: C_8  and  C_9
REMARK    5  A    between atoms: C_9  and  C_10
REMARK    6  A    between atoms: C_10  and  O_11
REMARK    7  A    between atoms: O_11  and  C_12
REMARK    8  A    between atoms: C_12  and  C_14
REMARK    9  A    between atoms: C_26  and  O_27
REMARK   10  A    between atoms: O_27  and  C_28
REMARK                            x       y       z     vdW  Elec       q    Type
REMARK                         _______ _______ _______ _____ _____    ______ ____
ROOT
ATOM      1  C   UNL     1       0.726  10.697  20.256  0.00  0.00    +0.000 A 
ATOM      2  C   UNL     1       0.686   9.436  20.863  0.00  0.00    +0.000 A 
ATOM      3  C   UNL     1       1.297   8.338  20.260  0.00  0.00    +0.000 A 
ATOM      4  C   UNL     1       1.297   7.048  20.924  0.00  0.00    +0.000 A 
ATOM      5  C   UNL     1       1.910   6.021  20.327  0.00  0.00    +0.000 A 
ATOM      6  O   UNL     1       2.539   6.156  19.067  0.00  0.00    +0.000 OA
ATOM      7  C   UNL     1       2.576   7.336  18.379  0.00  0.00    +0.000 A 
ATOM      8  O   UNL     1       3.114   7.446  17.289  0.00  0.00    +0.000 OA
ATOM      9  C   UNL     1       1.922   8.495  19.029  0.00  0.00    +0.000 A 
ATOM     10  C   UNL     1       1.935   9.742  18.390  0.00  0.00    +0.000 A 
ATOM     11  C   UNL     1       1.337  10.852  18.996  0.00  0.00    +0.000 A 
ENDROOT
BRANCH   1  13
ATOM     12  C   UNL     1      -1.006  11.535  21.625  0.00  0.00    +0.000 C 
ATOM     13  O   UNL     1       0.155  11.804  20.841  0.00  0.00    +0.000 OA
ENDBRANCH   1  13
BRANCH  11  14
ATOM     14  O   UNL     1       1.318  12.108  18.441  0.00  0.00    +0.000 OA
ATOM     15  C   UNL     1       2.575  12.735  18.203  0.00  0.00    +0.000 C 
ENDBRANCH  11  14
BRANCH   5  16
ATOM     16  C   UNL     1       1.988   4.657  20.960  0.00  0.00    +0.000 C 
BRANCH  16  17
ATOM     17  C   UNL     1       3.156   3.807  20.454  0.00  0.00    +0.000 C 
BRANCH  17  18
ATOM     18  C   UNL     1       2.683   2.648  19.581  0.00  0.00    +0.000 C 
BRANCH  18  19
ATOM     19  O   UNL     1       3.566   2.452  18.466  0.00  0.00    +0.000 OA
BRANCH  19  20
ATOM     20  C   UNL     1       3.366   3.294  17.420  0.00  0.00    +0.000 C 
ATOM     21  O   UNL     1       2.291   3.553  16.905  0.00  0.00    +0.000 OA
BRANCH  20  22
ATOM     22  C   UNL     1       4.646   3.906  16.977  0.00  0.00    +0.000 A 
ATOM     23  C   UNL     1       5.056   3.917  15.637  0.00  0.00    +0.000 A 
ATOM     24  C   UNL     1       6.265   4.520  15.280  0.00  0.00    +0.000 A 
ATOM     25  C   UNL     1       7.068   5.110  16.258  0.00  0.00    +0.000 A 
ATOM     26  C   UNL     1       6.661   5.092  17.591  0.00  0.00    +0.000 A 
ATOM     27 BR   UNL     1       7.748   5.890  18.915  0.00  0.00    +0.000 Br
ATOM     28  C   UNL     1       5.457   4.493  17.957  0.00  0.00    +0.000 A 
ENDBRANCH  20  22
ENDBRANCH  19  20
ENDBRANCH  18  19
ENDBRANCH  17  18
ENDBRANCH  16  17
ENDBRANCH   5  16
TORSDOF 8
ENDMDL
MODEL 3
REMARK VINA RESULT:      -7.5      3.008      8.151
REMARK  Name = 
REMARK  10 active torsions:
REMARK  status: ('A' for Active; 'I' for Inactive)
REMARK    1  A    between atoms: C_1  and  O_2
REMARK    2  A    between atoms: O_2  and  C_3
REMARK    3  A    between atoms: C_7  and  C_8
REMARK    4  A    between atoms: C_8  and  C_9
REMARK    5  A    between atoms: C_9  and  C_10
REMARK    6  A    between atoms: C_10  and  O_11
REMARK    7  A    between atoms: O_11  and  C_12
REMARK    8  A    between atoms: C_12  and  C_14
REMARK    9  A    between atoms: C_26  and  O_27
REMARK   10  A    between atoms: O_27  and  C_28
REMARK                            x       y       z     vdW  Elec       q    Type
REMARK                         _______ _______ _______ _____ _____    ______ ____
ROOT
ATOM      1  C   UNL     1      -0.538  11.041  20.914  0.00  0.00    +0.000 A 
ATOM      2  C   UNL     1      -0.168   9.767  21.361  0.00  0.00    +0.000 A 
ATOM      3  C   UNL     1       0.671   8.961  20.593  0.00  0.00    +0.000 A 
ATOM      4  C   UNL     1       1.094   7.666  21.090  0.00  0.00    +0.000 A 
ATOM      5  C   UNL     1       1.915   6.928  20.337  0.00  0.00    +0.000 A 
ATOM      6  O   UNL     1       2.365   7.368  19.069  0.00  0.00    +0.000 OA
ATOM      7  C   UNL     1       2.007   8.573  18.533  0.00  0.00    +0.000 A 
ATOM      8  O   UNL     1       2.392   8.945  17.436  0.00  0.00    +0.000 OA
ATOM      9  C   UNL     1       1.114   9.419  19.357  0.00  0.00    +0.000 A 
ATOM     10  C   UNL     1       0.718  10.675  18.878  0.00  0.00    +0.000 A 
ATOM     11  C   UNL     1      -0.111  11.495  19.650  0.00  0.00    +0.000 A 
ENDROOT
BRANCH   1  13
ATOM     12  C   UNL     1      -0.664  12.597  22.686  0.00  0.00    +0.000 C 
ATOM     13  O   UNL     1      -1.342  11.869  21.663  0.00  0.00    +0.000 OA
ENDBRANCH   1  13
BRANCH  11  14
ATOM     14  O   UNL     1      -0.533  12.742  19.257  0.00  0.00    +0.000 OA
ATOM     15  C   UNL     1      -0.796  12.934  17.870  0.00  0.00    +0.000 C 
ENDBRANCH  11  14
BRANCH   5  16
ATOM     16  C   UNL     1       2.430   5.588  20.790  0.00  0.00    +0.000 C 
BRANCH  16  17
ATOM     17  C   UNL     1       1.389   4.468  20.716  0.00  0.00    +0.000 C 
BRANCH  17  18
ATOM     18  C   UNL     1       1.314   3.849  19.323  0.00  0.00    +0.000 C 
BRANCH  18  19
ATOM     19  O   UNL     1       2.566   3.245  18.961  0.00  0.00    +0.000 OA
BRANCH  19  20
ATOM     20  C   UNL     1       2.906   3.367  17.653  0.00  0.00    +0.000 C 
ATOM     21  O   UNL     1       2.181   3.132  16.700  0.00  0.00    +0.000 OA
BRANCH  20  22
ATOM     22  C   UNL     1       4.299   3.865  17.508  0.00  0.00    +0.000 A 
ATOM     23  C   UNL     1       5.111   4.172  18.609  0.00  0.00    +0.000 A 
ATOM     24  C   UNL     1       6.418   4.624  18.409  0.00  0.00    +0.000 A 
ATOM     25  C   UNL     1       6.916   4.775  17.114  0.00  0.00    +0.000 A 
ATOM     26  C   UNL     1       6.103   4.476  16.021  0.00  0.00    +0.000 A 
ATOM     27 BR   UNL     1       6.777   4.681  14.267  0.00  0.00    +0.000 Br
ATOM     28  C   UNL     1       4.799   4.024  16.209  0.00  0.00    +0.000 A 
ENDBRANCH  20  22
ENDBRANCH  19  20
ENDBRANCH  18  19
ENDBRANCH  17  18
ENDBRANCH  16  17
ENDBRANCH   5  16
TORSDOF 8
ENDMDL
MODEL 4
REMARK VINA RESULT:      -7.4      3.192      8.313
REMARK  Name = 
REMARK  10 active torsions:
REMARK  status: ('A' for Active; 'I' for Inactive)
REMARK    1  A    between atoms: C_1  and  O_2
REMARK    2  A    between atoms: O_2  and  C_3
REMARK    3  A    between atoms: C_7  and  C_8
REMARK    4  A    between atoms: C_8  and  C_9
REMARK    5  A    between atoms: C_9  and  C_10
REMARK    6  A    between atoms: C_10  and  O_11
REMARK    7  A    between atoms: O_11  and  C_12
REMARK    8  A    between atoms: C_12  and  C_14
REMARK    9  A    between atoms: C_26  and  O_27
REMARK   10  A    between atoms: O_27  and  C_28
REMARK                            x       y       z     vdW  Elec       q    Type
REMARK                         _______ _______ _______ _____ _____    ______ ____
ROOT
ATOM      1  C   UNL     1      -0.080  11.237  21.068  0.00  0.00    +0.000 A 
ATOM      2  C   UNL     1       0.204   9.903  21.385  0.00  0.00    +0.000 A 
ATOM      3  C   UNL     1       0.892   9.090  20.487  0.00  0.00    +0.000 A 
ATOM      4  C   UNL     1       1.230   7.726  20.848  0.00  0.00    +0.000 A 
ATOM      5  C   UNL     1       1.909   6.981  19.971  0.00  0.00    +0.000 A 
ATOM      6  O   UNL     1       2.288   7.479  18.702  0.00  0.00    +0.000 OA
ATOM      7  C   UNL     1       2.002   8.750  18.289  0.00  0.00    +0.000 A 
ATOM      8  O   UNL     1       2.325   9.173  17.190  0.00  0.00    +0.000 OA
ATOM      9  C   UNL     1       1.269   9.604  19.251  0.00  0.00    +0.000 A 
ATOM     10  C   UNL     1       0.956  10.924  18.903  0.00  0.00    +0.000 A 
ATOM     11  C   UNL     1       0.278  11.751  19.805  0.00  0.00    +0.000 A 
ENDROOT
BRANCH   1  13
ATOM     12  C   UNL     1      -1.319  11.415  23.070  0.00  0.00    +0.000 C 
ATOM     13  O   UNL     1      -0.734  12.070  21.946  0.00  0.00    +0.000 OA
ENDBRANCH   1  13
BRANCH  11  14
ATOM     14  O   UNL     1      -0.055  13.057  19.543  0.00  0.00    +0.000 OA
ATOM     15  C   UNL     1       0.900  13.844  18.836  0.00  0.00    +0.000 C 
ENDBRANCH  11  14
BRANCH   5  16
ATOM     16  C   UNL     1       2.330   5.568  20.278  0.00  0.00    +0.000 C 
BRANCH  16  17
ATOM     17  C   UNL     1       1.680   4.519  19.373  0.00  0.00    +0.000 C 
BRANCH  17  18
ATOM     18  C   UNL     1       2.063   4.709  17.908  0.00  0.00    +0.000 C 
BRANCH  18  19
ATOM     19  O   UNL     1       2.401   3.454  17.298  0.00  0.00    +0.000 OA
BRANCH  19  20
ATOM     20  C   UNL     1       3.605   2.943  17.664  0.00  0.00    +0.000 C 
ATOM     21  O   UNL     1       3.784   1.905  18.279  0.00  0.00    +0.000 OA
BRANCH  20  22
ATOM     22  C   UNL     1       4.716   3.807  17.190  0.00  0.00    +0.000 A 
ATOM     23  C   UNL     1       4.912   4.113  15.836  0.00  0.00    +0.000 A 
ATOM     24  C   UNL     1       5.970   4.942  15.452  0.00  0.00    +0.000 A 
ATOM     25  C   UNL     1       6.834   5.464  16.415  0.00  0.00    +0.000 A 
ATOM     26  C   UNL     1       6.642   5.153  17.760  0.00  0.00    +0.000 A 
ATOM     27 BR   UNL     1       7.813   5.860  19.064  0.00  0.00    +0.000 Br
ATOM     28  C   UNL     1       5.590   4.328  18.153  0.00  0.00    +0.000 A 
ENDBRANCH  20  22
ENDBRANCH  19  20
ENDBRANCH  18  19
ENDBRANCH  17  18
ENDBRANCH  16  17
ENDBRANCH   5  16
TORSDOF 8
ENDMDL
MODEL 5
REMARK VINA RESULT:      -7.3      1.063      1.200
REMARK  Name = 
REMARK  10 active torsions:
REMARK  status: ('A' for Active; 'I' for Inactive)
REMARK    1  A    between atoms: C_1  and  O_2
REMARK    2  A    between atoms: O_2  and  C_3
REMARK    3  A    between atoms: C_7  and  C_8
REMARK    4  A    between atoms: C_8  and  C_9
REMARK    5  A    between atoms: C_9  and  C_10
REMARK    6  A    between atoms: C_10  and  O_11
REMARK    7  A    between atoms: O_11  and  C_12
REMARK    8  A    between atoms: C_12  and  C_14
REMARK    9  A    between atoms: C_26  and  O_27
REMARK   10  A    between atoms: O_27  and  C_28
REMARK                            x       y       z     vdW  Elec       q    Type
REMARK                         _______ _______ _______ _____ _____    ______ ____
ROOT
ATOM      1  C   UNL     1       6.073   5.695  16.869  0.00  0.00    +0.000 A 
ATOM      2  C   UNL     1       5.279   6.330  17.832  0.00  0.00    +0.000 A 
ATOM      3  C   UNL     1       4.074   5.765  18.244  0.00  0.00    +0.000 A 
ATOM      4  C   UNL     1       3.286   6.402  19.282  0.00  0.00    +0.000 A 
ATOM      5  C   UNL     1       2.146   5.822  19.669  0.00  0.00    +0.000 A 
ATOM      6  O   UNL     1       1.684   4.620  19.082  0.00  0.00    +0.000 OA
ATOM      7  C   UNL     1       2.367   3.964  18.098  0.00  0.00    +0.000 A 
ATOM      8  O   UNL     1       1.960   2.930  17.590  0.00  0.00    +0.000 OA
ATOM      9  C   UNL     1       3.645   4.575  17.666  0.00  0.00    +0.000 A 
ATOM     10  C   UNL     1       4.408   3.950  16.672  0.00  0.00    +0.000 A 
ATOM     11  C   UNL     1       5.626   4.503  16.264  0.00  0.00    +0.000 A 
ENDROOT
BRANCH   1  13
ATOM     12  C   UNL     1       7.728   7.344  17.213  0.00  0.00    +0.000 C 
ATOM     13  O   UNL     1       7.280   6.216  16.463  0.00  0.00    +0.000 OA
ENDBRANCH   1  13
BRANCH  11  14
ATOM     14  O   UNL     1       6.436   3.946  15.306  0.00  0.00    +0.000 OA
ATOM     15  C   UNL     1       6.039   4.098  13.946  0.00  0.00    +0.000 C 
ENDBRANCH  11  14
BRANCH   5  16
ATOM     16  C   UNL     1       1.286   6.396  20.762  0.00  0.00    +0.000 C 
BRANCH  16  17
ATOM     17  C   UNL     1       1.382   7.918  20.889  0.00  0.00    +0.000 C 
BRANCH  17  18
ATOM     18  C   UNL     1       0.054   8.542  21.311  0.00  0.00    +0.000 C 
BRANCH  18  19
ATOM     19  O   UNL     1       0.267   9.786  21.998  0.00  0.00    +0.000 OA
BRANCH  19  20
ATOM     20  C   UNL     1       0.488  10.856  21.192  0.00  0.00    +0.000 C 
ATOM     21  O   UNL     1       1.548  11.445  21.059  0.00  0.00    +0.000 OA
BRANCH  20  22
ATOM     22  C   UNL     1      -0.743  11.222  20.443  0.00  0.00    +0.000 A 
ATOM     23  C   UNL     1      -1.695  12.120  20.945  0.00  0.00    +0.000 A 
ATOM     24  C   UNL     1      -2.827  12.435  20.188  0.00  0.00    +0.000 A 
ATOM     25  C   UNL     1      -3.013  11.853  18.933  0.00  0.00    +0.000 A 
ATOM     26  C   UNL     1      -2.068  10.955  18.439  0.00  0.00    +0.000 A 
ATOM     27 BR   UNL     1      -2.320  10.167  16.740  0.00  0.00    +0.000 Br
ATOM     28  C   UNL     1      -0.936  10.635  19.186  0.00  0.00    +0.000 A 
ENDBRANCH  20  22
ENDBRANCH  19  20
ENDBRANCH  18  19
ENDBRANCH  17  18
ENDBRANCH  16  17
ENDBRANCH   5  16
TORSDOF 8
ENDMDL
MODEL 6
REMARK VINA RESULT:      -7.3      3.406      9.215
REMARK  Name = 
REMARK  10 active torsions:
REMARK  status: ('A' for Active; 'I' for Inactive)
REMARK    1  A    between atoms: C_1  and  O_2
REMARK    2  A    between atoms: O_2  and  C_3
REMARK    3  A    between atoms: C_7  and  C_8
REMARK    4  A    between atoms: C_8  and  C_9
REMARK    5  A    between atoms: C_9  and  C_10
REMARK    6  A    between atoms: C_10  and  O_11
REMARK    7  A    between atoms: O_11  and  C_12
REMARK    8  A    between atoms: C_12  and  C_14
REMARK    9  A    between atoms: C_26  and  O_27
REMARK   10  A    between atoms: O_27  and  C_28
REMARK                            x       y       z     vdW  Elec       q    Type
REMARK                         _______ _______ _______ _____ _____    ______ ____
ROOT
ATOM      1  C   UNL     1      -3.587  10.679  16.144  0.00  0.00    +0.000 A 
ATOM      2  C   UNL     1      -2.318  10.134  16.374  0.00  0.00    +0.000 A 
ATOM      3  C   UNL     1      -1.652  10.366  17.577  0.00  0.00    +0.000 A 
ATOM      4  C   UNL     1      -0.362   9.751  17.827  0.00  0.00    +0.000 A 
ATOM      5  C   UNL     1       0.238   9.977  18.999  0.00  0.00    +0.000 A 
ATOM      6  O   UNL     1      -0.340  10.810  19.987  0.00  0.00    +0.000 OA
ATOM      7  C   UNL     1      -1.548  11.427  19.822  0.00  0.00    +0.000 A 
ATOM      8  O   UNL     1      -2.040  12.149  20.675  0.00  0.00    +0.000 OA
ATOM      9  C   UNL     1      -2.245  11.174  18.540  0.00  0.00    +0.000 A 
ATOM     10  C   UNL     1      -3.496  11.761  18.308  0.00  0.00    +0.000 A 
ATOM     11  C   UNL     1      -4.177  11.521  17.110  0.00  0.00    +0.000 A 
ENDROOT
BRANCH   1  13
ATOM     12  C   UNL     1      -3.475  10.017  13.881  0.00  0.00    +0.000 C 
ATOM     13  O   UNL     1      -4.279  10.445  14.979  0.00  0.00    +0.000 OA
ENDBRANCH   1  13
BRANCH  11  14
ATOM     14  O   UNL     1      -5.409  12.047  16.812  0.00  0.00    +0.000 OA
ATOM     15  C   UNL     1      -6.294  12.294  17.902  0.00  0.00    +0.000 C 
ENDBRANCH  11  14
BRANCH   5  16
ATOM     16  C   UNL     1       1.560   9.352  19.355  0.00  0.00    +0.000 C 
BRANCH  16  17
ATOM     17  C   UNL     1       2.185   8.538  18.219  0.00  0.00    +0.000 C 
BRANCH  17  18
ATOM     18  C   UNL     1       2.851   7.263  18.729  0.00  0.00    +0.000 C 
BRANCH  18  19
ATOM     19  O   UNL     1       3.680   6.675  17.713  0.00  0.00    +0.000 OA
BRANCH  19  20
ATOM     20  C   UNL     1       4.425   5.616  18.122  0.00  0.00    +0.000 C 
ATOM     21  O   UNL     1       5.629   5.623  18.320  0.00  0.00    +0.000 OA
BRANCH  20  22
ATOM     22  C   UNL     1       3.574   4.417  18.335  0.00  0.00    +0.000 A 
ATOM     23  C   UNL     1       3.194   3.563  17.290  0.00  0.00    +0.000 A 
ATOM     24  C   UNL     1       2.403   2.443  17.555  0.00  0.00    +0.000 A 
ATOM     25  C   UNL     1       1.985   2.173  18.859  0.00  0.00    +0.000 A 
ATOM     26  C   UNL     1       2.358   3.028  19.895  0.00  0.00    +0.000 A 
ATOM     27 BR   UNL     1       1.793   2.664  21.661  0.00  0.00    +0.000 Br
ATOM     28  C   UNL     1       3.148   4.148  19.642  0.00  0.00    +0.000 A 
ENDBRANCH  20  22
ENDBRANCH  19  20
ENDBRANCH  18  19
ENDBRANCH  17  18
ENDBRANCH  16  17
ENDBRANCH   5  16
TORSDOF 8
ENDMDL
MODEL 7
REMARK VINA RESULT:      -7.3      2.148      4.162
REMARK  Name = 
REMARK  10 active torsions:
REMARK  status: ('A' for Active; 'I' for Inactive)
REMARK    1  A    between atoms: C_1  and  O_2
REMARK    2  A    between atoms: O_2  and  C_3
REMARK    3  A    between atoms: C_7  and  C_8
REMARK    4  A    between atoms: C_8  and  C_9
REMARK    5  A    between atoms: C_9  and  C_10
REMARK    6  A    between atoms: C_10  and  O_11
REMARK    7  A    between atoms: O_11  and  C_12
REMARK    8  A    between atoms: C_12  and  C_14
REMARK    9  A    between atoms: C_26  and  O_27
REMARK   10  A    between atoms: O_27  and  C_28
REMARK                            x       y       z     vdW  Elec       q    Type
REMARK                         _______ _______ _______ _____ _____    ______ ____
ROOT
ATOM      1  C   UNL     1       2.224   3.669  19.824  0.00  0.00    +0.000 A 
ATOM      2  C   UNL     1       1.814   5.005  19.741  0.00  0.00    +0.000 A 
ATOM      3  C   UNL     1       2.494   5.908  18.926  0.00  0.00    +0.000 A 
ATOM      4  C   UNL     1       2.028   7.277  18.805  0.00  0.00    +0.000 A 
ATOM      5  C   UNL     1       2.691   8.110  17.997  0.00  0.00    +0.000 A 
ATOM      6  O   UNL     1       3.838   7.698  17.277  0.00  0.00    +0.000 OA
ATOM      7  C   UNL     1       4.339   6.429  17.343  0.00  0.00    +0.000 A 
ATOM      8  O   UNL     1       5.333   6.081  16.725  0.00  0.00    +0.000 OA
ATOM      9  C   UNL     1       3.609   5.480  18.215  0.00  0.00    +0.000 A 
ATOM     10  C   UNL     1       4.056   4.156  18.319  0.00  0.00    +0.000 A 
ATOM     11  C   UNL     1       3.370   3.241  19.124  0.00  0.00    +0.000 A 
ENDROOT
BRANCH   1  13
ATOM     12  C   UNL     1       1.866   2.804  21.991  0.00  0.00    +0.000 C 
ATOM     13  O   UNL     1       1.556   2.750  20.599  0.00  0.00    +0.000 OA
ENDBRANCH   1  13
BRANCH  11  14
ATOM     14  O   UNL     1       3.737   1.925  19.269  0.00  0.00    +0.000 OA
ATOM     15  C   UNL     1       3.832   1.140  18.084  0.00  0.00    +0.000 C 
ENDBRANCH  11  14
BRANCH   5  16
ATOM     16  C   UNL     1       2.256   9.535  17.786  0.00  0.00    +0.000 C 
BRANCH  16  17
ATOM     17  C   UNL     1       0.948   9.894  18.496  0.00  0.00    +0.000 C 
BRANCH  17  18
ATOM     18  C   UNL     1       0.955  11.329  19.017  0.00  0.00    +0.000 C 
BRANCH  18  19
ATOM     19  O   UNL     1      -0.248  12.017  18.642  0.00  0.00    +0.000 OA
BRANCH  19  20
ATOM     20  C   UNL     1      -1.339  11.716  19.392  0.00  0.00    +0.000 C 
ATOM     21  O   UNL     1      -1.361  11.591  20.605  0.00  0.00    +0.000 OA
BRANCH  20  22
ATOM     22  C   UNL     1      -2.550  11.580  18.540  0.00  0.00    +0.000 A 
ATOM     23  C   UNL     1      -3.829  11.949  18.979  0.00  0.00    +0.000 A 
ATOM     24  C   UNL     1      -4.928  11.810  18.128  0.00  0.00    +0.000 A 
ATOM     25  C   UNL     1      -4.755  11.299  16.840  0.00  0.00    +0.000 A 
ATOM     26  C   UNL     1      -3.483  10.925  16.409  0.00  0.00    +0.000 A 
ATOM     27 BR   UNL     1      -3.249  10.233  14.666  0.00  0.00    +0.000 Br
ATOM     28  C   UNL     1      -2.381  11.061  17.250  0.00  0.00    +0.000 A 
ENDBRANCH  20  22
ENDBRANCH  19  20
ENDBRANCH  18  19
ENDBRANCH  17  18
ENDBRANCH  16  17
ENDBRANCH   5  16
TORSDOF 8
ENDMDL
MODEL 8
REMARK VINA RESULT:      -7.2      2.039      4.058
REMARK  Name = 
REMARK  10 active torsions:
REMARK  status: ('A' for Active; 'I' for Inactive)
REMARK    1  A    between atoms: C_1  and  O_2
REMARK    2  A    between atoms: O_2  and  C_3
REMARK    3  A    between atoms: C_7  and  C_8
REMARK    4  A    between atoms: C_8  and  C_9
REMARK    5  A    between atoms: C_9  and  C_10
REMARK    6  A    between atoms: C_10  and  O_11
REMARK    7  A    between atoms: O_11  and  C_12
REMARK    8  A    between atoms: C_12  and  C_14
REMARK    9  A    between atoms: C_26  and  O_27
REMARK   10  A    between atoms: O_27  and  C_28
REMARK                            x       y       z     vdW  Elec       q    Type
REMARK                         _______ _______ _______ _____ _____    ______ ____
ROOT
ATOM      1  C   UNL     1       3.173   4.493  19.723  0.00  0.00    +0.000 A 
ATOM      2  C   UNL     1       2.482   5.372  20.566  0.00  0.00    +0.000 A 
ATOM      3  C   UNL     1       2.125   6.646  20.126  0.00  0.00    +0.000 A 
ATOM      4  C   UNL     1       1.362   7.528  20.988  0.00  0.00    +0.000 A 
ATOM      5  C   UNL     1       1.018   8.734  20.527  0.00  0.00    +0.000 A 
ATOM      6  O   UNL     1       1.393   9.175  19.235  0.00  0.00    +0.000 OA
ATOM      7  C   UNL     1       2.115   8.404  18.369  0.00  0.00    +0.000 A 
ATOM      8  O   UNL     1       2.442   8.791  17.258  0.00  0.00    +0.000 OA
ATOM      9  C   UNL     1       2.490   7.054  18.848  0.00  0.00    +0.000 A 
ATOM     10  C   UNL     1       3.217   6.201  18.008  0.00  0.00    +0.000 A 
ATOM     11  C   UNL     1       3.566   4.916  18.437  0.00  0.00    +0.000 A 
ENDROOT
BRANCH   1  13
ATOM     12  C   UNL     1       2.645   2.645  21.094  0.00  0.00    +0.000 C 
ATOM     13  O   UNL     1       3.515   3.221  20.120  0.00  0.00    +0.000 OA
ENDBRANCH   1  13
BRANCH  11  14
ATOM     14  O   UNL     1       4.267   4.018  17.670  0.00  0.00    +0.000 OA
ATOM     15  C   UNL     1       4.881   4.513  16.483  0.00  0.00    +0.000 C 
ENDBRANCH  11  14
BRANCH   5  16
ATOM     16  C   UNL     1       0.197   9.698  21.340  0.00  0.00    +0.000 C 
BRANCH  16  17
ATOM     17  C   UNL     1       0.710  11.139  21.294  0.00  0.00    +0.000 C 
BRANCH  17  18
ATOM     18  C   UNL     1      -0.401  12.151  21.564  0.00  0.00    +0.000 C 
BRANCH  18  19
ATOM     19  O   UNL     1      -1.565  11.856  20.777  0.00  0.00    +0.000 OA
BRANCH  19  20
ATOM     20  C   UNL     1      -1.697  12.595  19.646  0.00  0.00    +0.000 C 
ATOM     21  O   UNL     1      -0.996  13.540  19.323  0.00  0.00    +0.000 OA
BRANCH  20  22
ATOM     22  C   UNL     1      -2.810  12.086  18.804  0.00  0.00    +0.000 A 
ATOM     23  C   UNL     1      -4.154  12.167  19.195  0.00  0.00    +0.000 A 
ATOM     24  C   UNL     1      -5.158  11.682  18.354  0.00  0.00    +0.000 A 
ATOM     25  C   UNL     1      -4.826  11.112  17.124  0.00  0.00    +0.000 A 
ATOM     26  C   UNL     1      -3.488  11.026  16.740  0.00  0.00    +0.000 A 
ATOM     27 BR   UNL     1      -3.037  10.254  15.075  0.00  0.00    +0.000 Br
ATOM     28  C   UNL     1      -2.479  11.507  17.571  0.00  0.00    +0.000 A 
ENDBRANCH  20  22
ENDBRANCH  19  20
ENDBRANCH  18  19
ENDBRANCH  17  18
ENDBRANCH  16  17
ENDBRANCH   5  16
TORSDOF 8
ENDMDL
MODEL 9
REMARK VINA RESULT:      -7.2      3.437      9.402
REMARK  Name = 
REMARK  10 active torsions:
REMARK  status: ('A' for Active; 'I' for Inactive)
REMARK    1  A    between atoms: C_1  and  O_2
REMARK    2  A    between atoms: O_2  and  C_3
REMARK    3  A    between atoms: C_7  and  C_8
REMARK    4  A    between atoms: C_8  and  C_9
REMARK    5  A    between atoms: C_9  and  C_10
REMARK    6  A    between atoms: C_10  and  O_11
REMARK    7  A    between atoms: O_11  and  C_12
REMARK    8  A    between atoms: C_12  and  C_14
REMARK    9  A    between atoms: C_26  and  O_27
REMARK   10  A    between atoms: O_27  and  C_28
REMARK                            x       y       z     vdW  Elec       q    Type
REMARK                         _______ _______ _______ _____ _____    ______ ____
ROOT
ATOM      1  C   UNL     1      -3.525  10.613  16.150  0.00  0.00    +0.000 A 
ATOM      2  C   UNL     1      -2.276  10.034  16.407  0.00  0.00    +0.000 A 
ATOM      3  C   UNL     1      -1.620  10.266  17.615  0.00  0.00    +0.000 A 
ATOM      4  C   UNL     1      -0.353   9.617  17.893  0.00  0.00    +0.000 A 
ATOM      5  C   UNL     1       0.238   9.845  19.070  0.00  0.00    +0.000 A 
ATOM      6  O   UNL     1      -0.328  10.711  20.035  0.00  0.00    +0.000 OA
ATOM      7  C   UNL     1      -1.515  11.361  19.844  0.00  0.00    +0.000 A 
ATOM      8  O   UNL     1      -1.996  12.112  20.677  0.00  0.00    +0.000 OA
ATOM      9  C   UNL     1      -2.201  11.108  18.556  0.00  0.00    +0.000 A 
ATOM     10  C   UNL     1      -3.430  11.728  18.297  0.00  0.00    +0.000 A 
ATOM     11  C   UNL     1      -4.102  11.488  17.093  0.00  0.00    +0.000 A 
ENDROOT
BRANCH   1  13
ATOM     12  C   UNL     1      -3.386  10.025  13.868  0.00  0.00    +0.000 C 
ATOM     13  O   UNL     1      -4.207  10.380  14.979  0.00  0.00    +0.000 OA
ENDBRANCH   1  13
BRANCH  11  14
ATOM     14  O   UNL     1      -5.313  12.047  16.769  0.00  0.00    +0.000 OA
ATOM     15  C   UNL     1      -6.311  12.077  17.787  0.00  0.00    +0.000 C 
ENDBRANCH  11  14
BRANCH   5  16
ATOM     16  C   UNL     1       1.535   9.186  19.455  0.00  0.00    +0.000 C 
BRANCH  16  17
ATOM     17  C   UNL     1       2.153   8.337  18.341  0.00  0.00    +0.000 C 
BRANCH  17  18
ATOM     18  C   UNL     1       2.673   7.000  18.861  0.00  0.00    +0.000 C 
BRANCH  18  19
ATOM     19  O   UNL     1       2.248   5.920  18.016  0.00  0.00    +0.000 OA
BRANCH  19  20
ATOM     20  C   UNL     1       2.814   4.717  18.294  0.00  0.00    +0.000 C 
ATOM     21  O   UNL     1       2.278   3.793  18.883  0.00  0.00    +0.000 OA
BRANCH  20  22
ATOM     22  C   UNL     1       4.197   4.642  17.755  0.00  0.00    +0.000 A 
ATOM     23  C   UNL     1       4.491   4.092  16.499  0.00  0.00    +0.000 A 
ATOM     24  C   UNL     1       5.810   4.061  16.041  0.00  0.00    +0.000 A 
ATOM     25  C   UNL     1       6.839   4.574  16.833  0.00  0.00    +0.000 A 
ATOM     26  C   UNL     1       6.545   5.114  18.085  0.00  0.00    +0.000 A 
ATOM     27 BR   UNL     1       7.937   5.808  19.158  0.00  0.00    +0.000 Br
ATOM     28  C   UNL     1       5.232   5.150  18.550  0.00  0.00    +0.000 A 
ENDBRANCH  20  22
ENDBRANCH  19  20
ENDBRANCH  18  19
ENDBRANCH  17  18
ENDBRANCH  16  17
ENDBRANCH   5  16
TORSDOF 8
ENDMDL
