MODEL 1
REMARK VINA RESULT:      -8.1      0.000      0.000
REMARK  Name = 
REMARK  12 active torsions:
REMARK  status: ('A' for Active; 'I' for Inactive)
REMARK    1  A    between atoms: C_1  and  C_2
REMARK    2  A    between atoms: C_2  and  N_3
REMARK    3  A    between atoms: C_2  and  C_26
REMARK    4  A    between atoms: N_3  and  C_4
REMARK    5  A    between atoms: N_7  and  C_8
REMARK    6  A    between atoms: C_11  and  C_12
REMARK    7  A    between atoms: N_14  and  CA_15
REMARK    8  A    between atoms: CA_15  and  CB_16
REMARK    9  A    between atoms: CA_15  and  C_20
REMARK   10  A    between atoms: CB_16  and  CG_17
REMARK   11  A    between atoms: CG_17  and  OD2_19
REMARK   12  A    between atoms: C_20  and  OXT_22
REMARK                            x       y       z     vdW  Elec       q    Type
REMARK                         _______ _______ _______ _____ _____    ______ ____
ROOT
ATOM      1  C   UNK A   0       1.795   8.113  19.784  0.00  0.00    +0.000 A 
ATOM      2  C   UNK A   0       2.340   8.140  18.496  0.00  0.00    +0.000 A 
ATOM      3  C   UNK A   0       3.054   7.047  17.989  0.00  0.00    +0.000 A 
ATOM      4  C   UNK A   0       3.245   5.891  18.761  0.00  0.00    +0.000 A 
ATOM      5  C   UNK A   0       2.631   5.817  20.012  0.00  0.00    +0.000 A 
ATOM      6  C   UNK A   0       1.933   6.925  20.520  0.00  0.00    +0.000 A 
ENDROOT
BRANCH   1  10
ATOM      7  C   UNK A   0      -0.611  10.768  19.950  0.00  0.00    +0.000 C 
ATOM      8  C   UNK A   0      -1.140   9.582  20.758  0.00  0.00    +0.000 C 
ATOM      9  C   UNK A   0       0.123   8.996  21.378  0.00  0.00    +0.000 C 
ATOM     10  N   UNK A   0       1.196   9.221  20.391  0.00  0.00    +0.000 N 
ATOM     11  C   UNK A   0       0.715  10.210  19.387  0.00  0.00    +0.000 C 
BRANCH   7  12
ATOM     12  N   UNK A   0      -1.620  11.203  18.976  0.00  0.00    +0.000 NA
ATOM     13  H   UNK A   0      -1.251  11.067  18.034  0.00  0.00    +0.000 HD
BRANCH  12  15
ATOM     14  C   UNK A   0      -0.893  13.534  19.504  0.00  0.00    +0.000 C 
ATOM     15  C   UNK A   0      -2.044  12.619  19.085  0.00  0.00    +0.000 C 
BRANCH  15  16
ATOM     16  C   UNK A   0      -3.218  12.739  20.072  0.00  0.00    +0.000 A 
ATOM     17  C   UNK A   0      -2.934  13.111  21.404  0.00  0.00    +0.000 A 
ATOM     18  C   UNK A   0      -3.915  13.073  22.390  0.00  0.00    +0.000 A 
ATOM     19  C   UNK A   0      -5.189  12.623  22.072  0.00  0.00    +0.000 A 
ATOM     20  C   UNK A   0      -5.513  12.250  20.761  0.00  0.00    +0.000 A 
ATOM     21  C   UNK A   0      -6.779  11.707  20.493  0.00  0.00    +0.000 A 
ATOM     22  C   UNK A   0      -7.149  11.357  19.198  0.00  0.00    +0.000 A 
ATOM     23  C   UNK A   0      -6.286  11.623  18.144  0.00  0.00    +0.000 A 
ATOM     24  C   UNK A   0      -5.009  12.134  18.402  0.00  0.00    +0.000 A 
ATOM     25  C   UNK A   0      -4.557  12.386  19.720  0.00  0.00    +0.000 A 
ENDBRANCH  15  16
ENDBRANCH  12  15
ENDBRANCH   7  12
ENDBRANCH   1  10
BRANCH   4  26
ATOM     26  C   UNK A   0       4.244   4.886  18.277  0.00  0.00    +0.000 C 
ATOM     27  O   UNK A   0       3.967   3.687  18.264  0.00  0.00    +0.000 OA
ATOM     28  N   ASP A   1       5.405   5.329  17.674  0.00  0.00    +0.000 N 
ATOM     29  H   ASP A   1       5.769   6.201  18.055  0.00  0.00    +0.000 HD
BRANCH  28  30
ATOM     30  CA  ASP A   1       6.443   4.392  17.178  0.00  0.00    +0.000 C 
BRANCH  30  31
ATOM     31  C   ASP A   1       6.703   4.456  15.650  0.00  0.00    +0.000 C 
ATOM     32  O   ASP A   1       6.151   3.712  14.847  0.00  0.00    +0.000 OA
BRANCH  31  33
ATOM     33  OXT ASP A   1       7.514   5.445  15.222  0.00  0.00    +0.000 OA
ATOM     34  HXT ASP A   1       8.462   5.183  15.254  0.00  0.00    +0.000 HD
ENDBRANCH  31  33
ENDBRANCH  30  31
BRANCH  30  35
ATOM     35  CB  ASP A   1       7.821   4.625  17.837  0.00  0.00    +0.000 C 
BRANCH  35  36
ATOM     36  CG  ASP A   1       7.823   5.768  18.805  0.00  0.00    +0.000 C 
ATOM     37  OD1 ASP A   1       7.994   6.937  18.470  0.00  0.00    +0.000 OA
BRANCH  36  38
ATOM     38  OD2 ASP A   1       7.700   5.404  20.095  0.00  0.00    +0.000 OA
ATOM     39  HD2 ASP A   1       7.385   6.105  20.699  0.00  0.00    +0.000 HD
ENDBRANCH  36  38
ENDBRANCH  35  36
ENDBRANCH  30  35
ENDBRANCH  28  30
ENDBRANCH   4  26
TORSDOF 11
ENDMDL
MODEL 2
REMARK VINA RESULT:      -8.0      2.023      3.491
REMARK  Name = 
REMARK  12 active torsions:
REMARK  status: ('A' for Active; 'I' for Inactive)
REMARK    1  A    between atoms: C_1  and  C_2
REMARK    2  A    between atoms: C_2  and  N_3
REMARK    3  A    between atoms: C_2  and  C_26
REMARK    4  A    between atoms: N_3  and  C_4
REMARK    5  A    between atoms: N_7  and  C_8
REMARK    6  A    between atoms: C_11  and  C_12
REMARK    7  A    between atoms: N_14  and  CA_15
REMARK    8  A    between atoms: CA_15  and  CB_16
REMARK    9  A    between atoms: CA_15  and  C_20
REMARK   10  A    between atoms: CB_16  and  CG_17
REMARK   11  A    between atoms: CG_17  and  OD2_19
REMARK   12  A    between atoms: C_20  and  OXT_22
REMARK                            x       y       z     vdW  Elec       q    Type
REMARK                         _______ _______ _______ _____ _____    ______ ____
ROOT
ATOM      1  C   UNK A   0       0.955   9.507  21.238  0.00  0.00    +0.000 A 
ATOM      2  C   UNK A   0       1.073   9.929  19.909  0.00  0.00    +0.000 A 
ATOM      3  C   UNK A   0       1.604   9.084  18.926  0.00  0.00    +0.000 A 
ATOM      4  C   UNK A   0       2.036   7.789  19.247  0.00  0.00    +0.000 A 
ATOM      5  C   UNK A   0       1.842   7.325  20.549  0.00  0.00    +0.000 A 
ATOM      6  C   UNK A   0       1.326   8.185  21.532  0.00  0.00    +0.000 A 
ENDROOT
BRANCH   1  10
ATOM      7  C   UNK A   0      -0.858  12.279  22.615  0.00  0.00    +0.000 C 
ATOM      8  C   UNK A   0      -1.664  11.002  22.859  0.00  0.00    +0.000 C 
ATOM      9  C   UNK A   0      -0.585   9.958  23.119  0.00  0.00    +0.000 C 
ATOM     10  N   UNK A   0       0.564  10.351  22.283  0.00  0.00    +0.000 N 
ATOM     11  C   UNK A   0       0.354  11.749  21.817  0.00  0.00    +0.000 C 
BRANCH   7  12
ATOM     12  N   UNK A   0      -1.700  13.288  21.960  0.00  0.00    +0.000 NA
ATOM     13  H   UNK A   0      -2.679  13.086  22.167  0.00  0.00    +0.000 HD
BRANCH  12  15
ATOM     14  C   UNK A   0      -1.240  14.789  20.016  0.00  0.00    +0.000 C 
ATOM     15  C   UNK A   0      -1.568  13.371  20.486  0.00  0.00    +0.000 C 
BRANCH  15  16
ATOM     16  C   UNK A   0      -2.857  12.864  19.817  0.00  0.00    +0.000 A 
ATOM     17  C   UNK A   0      -4.095  13.311  20.327  0.00  0.00    +0.000 A 
ATOM     18  C   UNK A   0      -5.297  12.767  19.888  0.00  0.00    +0.000 A 
ATOM     19  C   UNK A   0      -5.284  11.734  18.962  0.00  0.00    +0.000 A 
ATOM     20  C   UNK A   0      -4.077  11.264  18.426  0.00  0.00    +0.000 A 
ATOM     21  C   UNK A   0      -4.091  10.155  17.566  0.00  0.00    +0.000 A 
ATOM     22  C   UNK A   0      -2.917   9.680  16.989  0.00  0.00    +0.000 A 
ATOM     23  C   UNK A   0      -1.727  10.363  17.200  0.00  0.00    +0.000 A 
ATOM     24  C   UNK A   0      -1.694  11.450  18.080  0.00  0.00    +0.000 A 
ATOM     25  C   UNK A   0      -2.848  11.882  18.778  0.00  0.00    +0.000 A 
ENDBRANCH  15  16
ENDBRANCH  12  15
ENDBRANCH   7  12
ENDBRANCH   1  10
BRANCH   4  26
ATOM     26  C   UNK A   0       2.845   7.050  18.225  0.00  0.00    +0.000 C 
ATOM     27  O   UNK A   0       3.264   7.630  17.225  0.00  0.00    +0.000 OA
ATOM     28  N   ASP A   1       3.271   5.767  18.505  0.00  0.00    +0.000 N 
ATOM     29  H   ASP A   1       2.619   5.221  19.065  0.00  0.00    +0.000 HD
BRANCH  28  30
ATOM     30  CA  ASP A   1       4.069   4.973  17.537  0.00  0.00    +0.000 C 
BRANCH  30  31
ATOM     31  C   ASP A   1       5.450   4.501  18.064  0.00  0.00    +0.000 C 
ATOM     32  O   ASP A   1       6.508   5.009  17.709  0.00  0.00    +0.000 OA
BRANCH  31  33
ATOM     33  OXT ASP A   1       5.434   3.544  19.014  0.00  0.00    +0.000 OA
ATOM     34  HXT ASP A   1       6.290   3.061  19.064  0.00  0.00    +0.000 HD
ENDBRANCH  31  33
ENDBRANCH  30  31
BRANCH  30  35
ATOM     35  CB  ASP A   1       3.344   3.687  17.081  0.00  0.00    +0.000 C 
BRANCH  35  36
ATOM     36  CG  ASP A   1       2.141   3.365  17.913  0.00  0.00    +0.000 C 
ATOM     37  OD1 ASP A   1       0.999   3.700  17.610  0.00  0.00    +0.000 OA
BRANCH  36  38
ATOM     38  OD2 ASP A   1       2.420   2.740  19.073  0.00  0.00    +0.000 OA
ATOM     39  HD2 ASP A   1       3.095   3.175  19.630  0.00  0.00    +0.000 HD
ENDBRANCH  36  38
ENDBRANCH  35  36
ENDBRANCH  30  35
ENDBRANCH  28  30
ENDBRANCH   4  26
TORSDOF 11
ENDMDL
MODEL 3
REMARK VINA RESULT:      -8.0      3.595      6.489
REMARK  Name = 
REMARK  12 active torsions:
REMARK  status: ('A' for Active; 'I' for Inactive)
REMARK    1  A    between atoms: C_1  and  C_2
REMARK    2  A    between atoms: C_2  and  N_3
REMARK    3  A    between atoms: C_2  and  C_26
REMARK    4  A    between atoms: N_3  and  C_4
REMARK    5  A    between atoms: N_7  and  C_8
REMARK    6  A    between atoms: C_11  and  C_12
REMARK    7  A    between atoms: N_14  and  CA_15
REMARK    8  A    between atoms: CA_15  and  CB_16
REMARK    9  A    between atoms: CA_15  and  C_20
REMARK   10  A    between atoms: CB_16  and  CG_17
REMARK   11  A    between atoms: CG_17  and  OD2_19
REMARK   12  A    between atoms: C_20  and  OXT_22
REMARK                            x       y       z     vdW  Elec       q    Type
REMARK                         _______ _______ _______ _____ _____    ______ ____
ROOT
ATOM      1  C   UNK A   0       0.995   9.535  19.695  0.00  0.00    +0.000 A 
ATOM      2  C   UNK A   0       1.279   8.506  20.599  0.00  0.00    +0.000 A 
ATOM      3  C   UNK A   0       1.993   7.368  20.201  0.00  0.00    +0.000 A 
ATOM      4  C   UNK A   0       2.444   7.228  18.880  0.00  0.00    +0.000 A 
ATOM      5  C   UNK A   0       2.245   8.286  17.992  0.00  0.00    +0.000 A 
ATOM      6  C   UNK A   0       1.512   9.415  18.395  0.00  0.00    +0.000 A 
ENDROOT
BRANCH   1  10
ATOM      7  C   UNK A   0      -0.110  12.926  19.315  0.00  0.00    +0.000 C 
ATOM      8  C   UNK A   0      -1.000  12.027  18.457  0.00  0.00    +0.000 C 
ATOM      9  C   UNK A   0      -1.116  10.757  19.292  0.00  0.00    +0.000 C 
ATOM     10  N   UNK A   0       0.171  10.623  19.999  0.00  0.00    +0.000 N 
ATOM     11  C   UNK A   0       0.902  11.916  19.901  0.00  0.00    +0.000 C 
BRANCH   7  12
ATOM     12  N   UNK A   0       0.433  14.021  18.502  0.00  0.00    +0.000 NA
ATOM     13  H   UNK A   0       1.208  13.664  17.942  0.00  0.00    +0.000 HD
BRANCH  12  15
ATOM     14  C   UNK A   0       0.281  16.496  18.808  0.00  0.00    +0.000 C 
ATOM     15  C   UNK A   0       0.937  15.191  19.260  0.00  0.00    +0.000 C 
BRANCH  15  16
ATOM     16  C   UNK A   0       2.467  15.279  19.127  0.00  0.00    +0.000 A 
ATOM     17  C   UNK A   0       3.027  15.260  17.831  0.00  0.00    +0.000 A 
ATOM     18  C   UNK A   0       4.401  15.164  17.638  0.00  0.00    +0.000 A 
ATOM     19  C   UNK A   0       5.240  15.042  18.736  0.00  0.00    +0.000 A 
ATOM     20  C   UNK A   0       4.726  15.062  20.040  0.00  0.00    +0.000 A 
ATOM     21  C   UNK A   0       5.589  14.839  21.124  0.00  0.00    +0.000 A 
ATOM     22  C   UNK A   0       5.121  14.885  22.434  0.00  0.00    +0.000 A 
ATOM     23  C   UNK A   0       3.800  15.238  22.676  0.00  0.00    +0.000 A 
ATOM     24  C   UNK A   0       2.922  15.431  21.603  0.00  0.00    +0.000 A 
ATOM     25  C   UNK A   0       3.339  15.271  20.260  0.00  0.00    +0.000 A 
ENDBRANCH  15  16
ENDBRANCH  12  15
ENDBRANCH   7  12
ENDBRANCH   1  10
BRANCH   4  26
ATOM     26  C   UNK A   0       2.945   5.883  18.454  0.00  0.00    +0.000 C 
ATOM     27  O   UNK A   0       3.532   5.747  17.381  0.00  0.00    +0.000 OA
ATOM     28  N   ASP A   1       2.907   4.835  19.353  0.00  0.00    +0.000 N 
ATOM     29  H   ASP A   1       2.110   4.856  19.987  0.00  0.00    +0.000 HD
BRANCH  28  30
ATOM     30  CA  ASP A   1       3.377   3.473  18.998  0.00  0.00    +0.000 C 
BRANCH  30  31
ATOM     31  C   ASP A   1       4.845   3.167  19.396  0.00  0.00    +0.000 C 
ATOM     32  O   ASP A   1       5.765   3.957  19.214  0.00  0.00    +0.000 OA
BRANCH  31  33
ATOM     33  OXT ASP A   1       5.060   2.004  20.043  0.00  0.00    +0.000 OA
ATOM     34  HXT ASP A   1       5.973   1.664  19.897  0.00  0.00    +0.000 HD
ENDBRANCH  31  33
ENDBRANCH  30  31
BRANCH  30  35
ATOM     35  CB  ASP A   1       2.534   2.360  19.657  0.00  0.00    +0.000 C 
BRANCH  35  36
ATOM     36  CG  ASP A   1       1.941   2.772  20.969  0.00  0.00    +0.000 C 
ATOM     37  OD1 ASP A   1       2.563   2.755  22.028  0.00  0.00    +0.000 OA
BRANCH  36  38
ATOM     38  OD2 ASP A   1       0.634   3.091  20.912  0.00  0.00    +0.000 OA
ATOM     39  HD2 ASP A   1       0.305   3.350  20.029  0.00  0.00    +0.000 HD
ENDBRANCH  36  38
ENDBRANCH  35  36
ENDBRANCH  30  35
ENDBRANCH  28  30
ENDBRANCH   4  26
TORSDOF 11
ENDMDL
MODEL 4
REMARK VINA RESULT:      -8.0      3.132      4.949
REMARK  Name = 
REMARK  12 active torsions:
REMARK  status: ('A' for Active; 'I' for Inactive)
REMARK    1  A    between atoms: C_1  and  C_2
REMARK    2  A    between atoms: C_2  and  N_3
REMARK    3  A    between atoms: C_2  and  C_26
REMARK    4  A    between atoms: N_3  and  C_4
REMARK    5  A    between atoms: N_7  and  C_8
REMARK    6  A    between atoms: C_11  and  C_12
REMARK    7  A    between atoms: N_14  and  CA_15
REMARK    8  A    between atoms: CA_15  and  CB_16
REMARK    9  A    between atoms: CA_15  and  C_20
REMARK   10  A    between atoms: CB_16  and  CG_17
REMARK   11  A    between atoms: CG_17  and  OD2_19
REMARK   12  A    between atoms: C_20  and  OXT_22
REMARK                            x       y       z     vdW  Elec       q    Type
REMARK                         _______ _______ _______ _____ _____    ______ ____
ROOT
ATOM      1  C   UNK A   0       1.663   9.169  18.685  0.00  0.00    +0.000 A 
ATOM      2  C   UNK A   0       1.581   8.301  19.780  0.00  0.00    +0.000 A 
ATOM      3  C   UNK A   0       2.262   7.077  19.787  0.00  0.00    +0.000 A 
ATOM      4  C   UNK A   0       3.048   6.685  18.692  0.00  0.00    +0.000 A 
ATOM      5  C   UNK A   0       3.210   7.580  17.634  0.00  0.00    +0.000 A 
ATOM      6  C   UNK A   0       2.508   8.797  17.627  0.00  0.00    +0.000 A 
ENDROOT
BRANCH   1  10
ATOM      7  C   UNK A   0      -0.812  11.509  19.808  0.00  0.00    +0.000 C 
ATOM      8  C   UNK A   0       0.566  12.023  20.225  0.00  0.00    +0.000 C 
ATOM      9  C   UNK A   0       1.457  11.604  19.061  0.00  0.00    +0.000 C 
ATOM     10  N   UNK A   0       0.898  10.333  18.565  0.00  0.00    +0.000 N 
ATOM     11  C   UNK A   0      -0.466  10.161  19.138  0.00  0.00    +0.000 C 
BRANCH   7  12
ATOM     12  N   UNK A   0      -1.706  11.468  20.971  0.00  0.00    +0.000 NA
ATOM     13  H   UNK A   0      -2.420  12.190  20.866  0.00  0.00    +0.000 HD
BRANCH  12  15
ATOM     14  C   UNK A   0      -0.826  10.365  23.034  0.00  0.00    +0.000 C 
ATOM     15  C   UNK A   0      -1.055  11.679  22.286  0.00  0.00    +0.000 C 
BRANCH  15  16
ATOM     16  C   UNK A   0      -1.897  12.646  23.136  0.00  0.00    +0.000 A 
ATOM     17  C   UNK A   0      -3.080  12.156  23.731  0.00  0.00    +0.000 A 
ATOM     18  C   UNK A   0      -3.976  13.007  24.368  0.00  0.00    +0.000 A 
ATOM     19  C   UNK A   0      -3.729  14.373  24.385  0.00  0.00    +0.000 A 
ATOM     20  C   UNK A   0      -2.565  14.901  23.811  0.00  0.00    +0.000 A 
ATOM     21  C   UNK A   0      -2.392  16.292  23.758  0.00  0.00    +0.000 A 
ATOM     22  C   UNK A   0      -1.235  16.852  23.226  0.00  0.00    +0.000 A 
ATOM     23  C   UNK A   0      -0.200  16.022  22.817  0.00  0.00    +0.000 A 
ATOM     24  C   UNK A   0      -0.372  14.633  22.834  0.00  0.00    +0.000 A 
ATOM     25  C   UNK A   0      -1.585  14.036  23.255  0.00  0.00    +0.000 A 
ENDBRANCH  15  16
ENDBRANCH  12  15
ENDBRANCH   7  12
ENDBRANCH   1  10
BRANCH   4  26
ATOM     26  C   UNK A   0       3.513   5.263  18.642  0.00  0.00    +0.000 C 
ATOM     27  O   UNK A   0       4.468   4.943  17.935  0.00  0.00    +0.000 OA
ATOM     28  N   ASP A   1       2.984   4.350  19.533  0.00  0.00    +0.000 N 
ATOM     29  H   ASP A   1       2.006   4.512  19.768  0.00  0.00    +0.000 HD
BRANCH  28  30
ATOM     30  CA  ASP A   1       3.390   2.923  19.537  0.00  0.00    +0.000 C 
BRANCH  30  31
ATOM     31  C   ASP A   1       3.821   2.371  20.922  0.00  0.00    +0.000 C 
ATOM     32  O   ASP A   1       4.936   1.910  21.139  0.00  0.00    +0.000 OA
BRANCH  31  33
ATOM     33  OXT ASP A   1       2.927   2.502  21.923  0.00  0.00    +0.000 OA
ATOM     34  HXT ASP A   1       2.723   1.639  22.349  0.00  0.00    +0.000 HD
ENDBRANCH  31  33
ENDBRANCH  30  31
BRANCH  30  35
ATOM     35  CB  ASP A   1       2.265   1.981  19.053  0.00  0.00    +0.000 C 
BRANCH  35  36
ATOM     36  CG  ASP A   1       0.925   2.647  18.999  0.00  0.00    +0.000 C 
ATOM     37  OD1 ASP A   1       0.408   3.043  17.958  0.00  0.00    +0.000 OA
BRANCH  36  38
ATOM     38  OD2 ASP A   1       0.359   2.854  20.203  0.00  0.00    +0.000 OA
ATOM     39  HD2 ASP A   1      -0.432   3.428  20.200  0.00  0.00    +0.000 HD
ENDBRANCH  36  38
ENDBRANCH  35  36
ENDBRANCH  30  35
ENDBRANCH  28  30
ENDBRANCH   4  26
TORSDOF 11
ENDMDL
MODEL 5
REMARK VINA RESULT:      -7.9      1.617      2.696
REMARK  Name = 
REMARK  12 active torsions:
REMARK  status: ('A' for Active; 'I' for Inactive)
REMARK    1  A    between atoms: C_1  and  C_2
REMARK    2  A    between atoms: C_2  and  N_3
REMARK    3  A    between atoms: C_2  and  C_26
REMARK    4  A    between atoms: N_3  and  C_4
REMARK    5  A    between atoms: N_7  and  C_8
REMARK    6  A    between atoms: C_11  and  C_12
REMARK    7  A    between atoms: N_14  and  CA_15
REMARK    8  A    between atoms: CA_15  and  CB_16
REMARK    9  A    between atoms: CA_15  and  C_20
REMARK   10  A    between atoms: CB_16  and  CG_17
REMARK   11  A    between atoms: CG_17  and  OD2_19
REMARK   12  A    between atoms: C_20  and  OXT_22
REMARK                            x       y       z     vdW  Elec       q    Type
REMARK                         _______ _______ _______ _____ _____    ______ ____
ROOT
ATOM      1  C   UNK A   0       1.084  10.041  19.224  0.00  0.00    +0.000 A 
ATOM      2  C   UNK A   0       1.559   9.550  18.003  0.00  0.00    +0.000 A 
ATOM      3  C   UNK A   0       2.139   8.278  17.910  0.00  0.00    +0.000 A 
ATOM      4  C   UNK A   0       2.259   7.458  19.042  0.00  0.00    +0.000 A 
ATOM      5  C   UNK A   0       1.709   7.899  20.246  0.00  0.00    +0.000 A 
ATOM      6  C   UNK A   0       1.147   9.184  20.334  0.00  0.00    +0.000 A 
ENDROOT
BRANCH   1  10
ATOM      7  C   UNK A   0      -1.175  12.497  20.540  0.00  0.00    +0.000 C 
ATOM      8  C   UNK A   0       0.038  12.408  21.466  0.00  0.00    +0.000 C 
ATOM      9  C   UNK A   0       1.191  12.156  20.501  0.00  0.00    +0.000 C 
ATOM     10  N   UNK A   0       0.626  11.350  19.403  0.00  0.00    +0.000 N 
ATOM     11  C   UNK A   0      -0.859  11.411  19.488  0.00  0.00    +0.000 C 
BRANCH   7  12
ATOM     12  N   UNK A   0      -2.412  12.337  21.315  0.00  0.00    +0.000 NA
ATOM     13  H   UNK A   0      -2.972  11.594  20.895  0.00  0.00    +0.000 HD
BRANCH  12  15
ATOM     14  C   UNK A   0      -2.891  14.435  22.584  0.00  0.00    +0.000 C 
ATOM     15  C   UNK A   0      -3.271  13.542  21.403  0.00  0.00    +0.000 C 
BRANCH  15  16
ATOM     16  C   UNK A   0      -4.749  13.124  21.494  0.00  0.00    +0.000 A 
ATOM     17  C   UNK A   0      -5.429  13.336  22.713  0.00  0.00    +0.000 A 
ATOM     18  C   UNK A   0      -6.707  12.832  22.925  0.00  0.00    +0.000 A 
ATOM     19  C   UNK A   0      -7.315  12.068  21.938  0.00  0.00    +0.000 A 
ATOM     20  C   UNK A   0      -6.677  11.839  20.711  0.00  0.00    +0.000 A 
ATOM     21  C   UNK A   0      -7.275  10.984  19.773  0.00  0.00    +0.000 A 
ATOM     22  C   UNK A   0      -6.688  10.759  18.531  0.00  0.00    +0.000 A 
ATOM     23  C   UNK A   0      -5.538  11.453  18.183  0.00  0.00    +0.000 A 
ATOM     24  C   UNK A   0      -4.914  12.284  19.121  0.00  0.00    +0.000 A 
ATOM     25  C   UNK A   0      -5.420  12.438  20.434  0.00  0.00    +0.000 A 
ENDBRANCH  15  16
ENDBRANCH  12  15
ENDBRANCH   7  12
ENDBRANCH   1  10
BRANCH   4  26
ATOM     26  C   UNK A   0       3.132   6.246  18.934  0.00  0.00    +0.000 C 
ATOM     27  O   UNK A   0       3.446   5.612  19.941  0.00  0.00    +0.000 OA
ATOM     28  N   ASP A   1       3.427   5.739  17.684  0.00  0.00    +0.000 N 
ATOM     29  H   ASP A   1       3.521   6.446  16.956  0.00  0.00    +0.000 HD
BRANCH  28  30
ATOM     30  CA  ASP A   1       4.292   4.547  17.500  0.00  0.00    +0.000 C 
BRANCH  30  31
ATOM     31  C   ASP A   1       3.537   3.191  17.489  0.00  0.00    +0.000 C 
ATOM     32  O   ASP A   1       3.918   2.210  18.118  0.00  0.00    +0.000 OA
BRANCH  31  33
ATOM     33  OXT ASP A   1       2.372   3.160  16.812  0.00  0.00    +0.000 OA
ATOM     34  HXT ASP A   1       2.078   4.060  16.543  0.00  0.00    +0.000 HD
ENDBRANCH  31  33
ENDBRANCH  30  31
BRANCH  30  35
ATOM     35  CB  ASP A   1       5.086   4.584  16.176  0.00  0.00    +0.000 C 
BRANCH  35  36
ATOM     36  CG  ASP A   1       6.284   5.482  16.235  0.00  0.00    +0.000 C 
ATOM     37  OD1 ASP A   1       7.430   5.070  16.395  0.00  0.00    +0.000 OA
BRANCH  36  38
ATOM     38  OD2 ASP A   1       5.996   6.796  16.180  0.00  0.00    +0.000 OA
ATOM     39  HD2 ASP A   1       5.102   7.041  16.488  0.00  0.00    +0.000 HD
ENDBRANCH  36  38
ENDBRANCH  35  36
ENDBRANCH  30  35
ENDBRANCH  28  30
ENDBRANCH   4  26
TORSDOF 11
ENDMDL
MODEL 6
REMARK VINA RESULT:      -7.9      1.728      3.053
REMARK  Name = 
REMARK  12 active torsions:
REMARK  status: ('A' for Active; 'I' for Inactive)
REMARK    1  A    between atoms: C_1  and  C_2
REMARK    2  A    between atoms: C_2  and  N_3
REMARK    3  A    between atoms: C_2  and  C_26
REMARK    4  A    between atoms: N_3  and  C_4
REMARK    5  A    between atoms: N_7  and  C_8
REMARK    6  A    between atoms: C_11  and  C_12
REMARK    7  A    between atoms: N_14  and  CA_15
REMARK    8  A    between atoms: CA_15  and  CB_16
REMARK    9  A    between atoms: CA_15  and  C_20
REMARK   10  A    between atoms: CB_16  and  CG_17
REMARK   11  A    between atoms: CG_17  and  OD2_19
REMARK   12  A    between atoms: C_20  and  OXT_22
REMARK                            x       y       z     vdW  Elec       q    Type
REMARK                         _______ _______ _______ _____ _____    ______ ____
ROOT
ATOM      1  C   UNK A   0       0.796   9.997  19.130  0.00  0.00    +0.000 A 
ATOM      2  C   UNK A   0       0.797   9.366  20.379  0.00  0.00    +0.000 A 
ATOM      3  C   UNK A   0       1.444   8.138  20.570  0.00  0.00    +0.000 A 
ATOM      4  C   UNK A   0       2.110   7.504  19.510  0.00  0.00    +0.000 A 
ATOM      5  C   UNK A   0       2.192   8.164  18.284  0.00  0.00    +0.000 A 
ATOM      6  C   UNK A   0       1.524   9.386  18.097  0.00  0.00    +0.000 A 
ENDROOT
BRANCH   1  10
ATOM      7  C   UNK A   0      -1.601  12.542  19.931  0.00  0.00    +0.000 C 
ATOM      8  C   UNK A   0      -0.202  13.080  20.236  0.00  0.00    +0.000 C 
ATOM      9  C   UNK A   0       0.651  12.465  19.132  0.00  0.00    +0.000 C 
ATOM     10  N   UNK A   0       0.053  11.148  18.849  0.00  0.00    +0.000 N 
ATOM     11  C   UNK A   0      -1.300  11.099  19.469  0.00  0.00    +0.000 C 
BRANCH   7  12
ATOM     12  N   UNK A   0      -2.468  12.701  21.106  0.00  0.00    +0.000 NA
ATOM     13  H   UNK A   0      -3.002  11.842  21.241  0.00  0.00    +0.000 HD
BRANCH  12  15
ATOM     14  C   UNK A   0      -3.107  14.933  22.030  0.00  0.00    +0.000 C 
ATOM     15  C   UNK A   0      -3.438  13.819  21.037  0.00  0.00    +0.000 C 
BRANCH  15  16
ATOM     16  C   UNK A   0      -4.863  13.289  21.275  0.00  0.00    +0.000 A 
ATOM     17  C   UNK A   0      -5.469  13.539  22.525  0.00  0.00    +0.000 A 
ATOM     18  C   UNK A   0      -6.678  12.949  22.874  0.00  0.00    +0.000 A 
ATOM     19  C   UNK A   0      -7.286  12.062  21.996  0.00  0.00    +0.000 A 
ATOM     20  C   UNK A   0      -6.722  11.790  20.743  0.00  0.00    +0.000 A 
ATOM     21  C   UNK A   0      -7.308  10.816  19.920  0.00  0.00    +0.000 A 
ATOM     22  C   UNK A   0      -6.796  10.543  18.655  0.00  0.00    +0.000 A 
ATOM     23  C   UNK A   0      -5.740  11.300  18.167  0.00  0.00    +0.000 A 
ATOM     24  C   UNK A   0      -5.126  12.252  18.990  0.00  0.00    +0.000 A 
ATOM     25  C   UNK A   0      -5.546  12.467  20.324  0.00  0.00    +0.000 A 
ENDBRANCH  15  16
ENDBRANCH  12  15
ENDBRANCH   7  12
ENDBRANCH   1  10
BRANCH   4  26
ATOM     26  C   UNK A   0       2.531   6.080  19.704  0.00  0.00    +0.000 C 
ATOM     27  O   UNK A   0       2.143   5.443  20.683  0.00  0.00    +0.000 OA
ATOM     28  N   ASP A   1       3.202   5.432  18.686  0.00  0.00    +0.000 N 
ATOM     29  H   ASP A   1       3.824   6.031  18.146  0.00  0.00    +0.000 HD
BRANCH  28  30
ATOM     30  CA  ASP A   1       3.657   4.025  18.811  0.00  0.00    +0.000 C 
BRANCH  30  31
ATOM     31  C   ASP A   1       2.892   3.012  17.919  0.00  0.00    +0.000 C 
ATOM     32  O   ASP A   1       1.900   3.315  17.264  0.00  0.00    +0.000 OA
BRANCH  31  33
ATOM     33  OXT ASP A   1       3.425   1.777  17.822  0.00  0.00    +0.000 OA
ATOM     34  HXT ASP A   1       3.852   1.494  18.663  0.00  0.00    +0.000 HD
ENDBRANCH  31  33
ENDBRANCH  30  31
BRANCH  30  35
ATOM     35  CB  ASP A   1       5.148   3.845  18.448  0.00  0.00    +0.000 C 
BRANCH  35  36
ATOM     36  CG  ASP A   1       5.473   4.305  17.060  0.00  0.00    +0.000 C 
ATOM     37  OD1 ASP A   1       5.376   5.473  16.694  0.00  0.00    +0.000 OA
BRANCH  36  38
ATOM     38  OD2 ASP A   1       5.808   3.314  16.212  0.00  0.00    +0.000 OA
ATOM     39  HD2 ASP A   1       5.291   3.282  15.383  0.00  0.00    +0.000 HD
ENDBRANCH  36  38
ENDBRANCH  35  36
ENDBRANCH  30  35
ENDBRANCH  28  30
ENDBRANCH   4  26
TORSDOF 11
ENDMDL
MODEL 7
REMARK VINA RESULT:      -7.9      3.202      5.676
REMARK  Name = 
REMARK  12 active torsions:
REMARK  status: ('A' for Active; 'I' for Inactive)
REMARK    1  A    between atoms: C_1  and  C_2
REMARK    2  A    between atoms: C_2  and  N_3
REMARK    3  A    between atoms: C_2  and  C_26
REMARK    4  A    between atoms: N_3  and  C_4
REMARK    5  A    between atoms: N_7  and  C_8
REMARK    6  A    between atoms: C_11  and  C_12
REMARK    7  A    between atoms: N_14  and  CA_15
REMARK    8  A    between atoms: CA_15  and  CB_16
REMARK    9  A    between atoms: CA_15  and  C_20
REMARK   10  A    between atoms: CB_16  and  CG_17
REMARK   11  A    between atoms: CG_17  and  OD2_19
REMARK   12  A    between atoms: C_20  and  OXT_22
REMARK                            x       y       z     vdW  Elec       q    Type
REMARK                         _______ _______ _______ _____ _____    ______ ____
ROOT
ATOM      1  C   UNK A   0       0.763   9.667  19.455  0.00  0.00    +0.000 A 
ATOM      2  C   UNK A   0       1.213   8.696  20.356  0.00  0.00    +0.000 A 
ATOM      3  C   UNK A   0       2.044   7.649  19.938  0.00  0.00    +0.000 A 
ATOM      4  C   UNK A   0       2.449   7.544  18.598  0.00  0.00    +0.000 A 
ATOM      5  C   UNK A   0       2.081   8.554  17.709  0.00  0.00    +0.000 A 
ATOM      6  C   UNK A   0       1.232   9.589  18.133  0.00  0.00    +0.000 A 
ENDROOT
BRANCH   1  10
ATOM      7  C   UNK A   0      -0.339  13.063  19.799  0.00  0.00    +0.000 C 
ATOM      8  C   UNK A   0      -0.834  12.526  18.456  0.00  0.00    +0.000 C 
ATOM      9  C   UNK A   0      -1.154  11.068  18.764  0.00  0.00    +0.000 C 
ATOM     10  N   UNK A   0      -0.176  10.650  19.785  0.00  0.00    +0.000 N 
ATOM     11  C   UNK A   0       0.471  11.867  20.347  0.00  0.00    +0.000 C 
BRANCH   7  12
ATOM     12  N   UNK A   0       0.384  14.325  19.601  0.00  0.00    +0.000 NA
ATOM     13  H   UNK A   0       1.361  14.192  19.867  0.00  0.00    +0.000 HD
BRANCH  12  15
ATOM     14  C   UNK A   0      -1.422  15.152  21.117  0.00  0.00    +0.000 C 
ATOM     15  C   UNK A   0      -0.129  15.483  20.370  0.00  0.00    +0.000 C 
BRANCH  15  16
ATOM     16  C   UNK A   0      -0.340  16.683  19.430  0.00  0.00    +0.000 A 
ATOM     17  C   UNK A   0      -1.592  17.335  19.450  0.00  0.00    +0.000 A 
ATOM     18  C   UNK A   0      -1.914  18.311  18.514  0.00  0.00    +0.000 A 
ATOM     19  C   UNK A   0      -1.007  18.625  17.512  0.00  0.00    +0.000 A 
ATOM     20  C   UNK A   0       0.249  18.006  17.459  0.00  0.00    +0.000 A 
ATOM     21  C   UNK A   0       1.104  18.273  16.378  0.00  0.00    +0.000 A 
ATOM     22  C   UNK A   0       2.371  17.703  16.309  0.00  0.00    +0.000 A 
ATOM     23  C   UNK A   0       2.829  16.924  17.363  0.00  0.00    +0.000 A 
ATOM     24  C   UNK A   0       1.975  16.623  18.430  0.00  0.00    +0.000 A 
ATOM     25  C   UNK A   0       0.638  17.088  18.470  0.00  0.00    +0.000 A 
ENDBRANCH  15  16
ENDBRANCH  12  15
ENDBRANCH   7  12
ENDBRANCH   1  10
BRANCH   4  26
ATOM     26  C   UNK A   0       3.093   6.263  18.164  0.00  0.00    +0.000 C 
ATOM     27  O   UNK A   0       3.982   6.270  17.314  0.00  0.00    +0.000 OA
ATOM     28  N   ASP A   1       2.814   5.102  18.856  0.00  0.00    +0.000 N 
ATOM     29  H   ASP A   1       1.862   5.045  19.214  0.00  0.00    +0.000 HD
BRANCH  28  30
ATOM     30  CA  ASP A   1       3.408   3.795  18.478  0.00  0.00    +0.000 C 
BRANCH  30  31
ATOM     31  C   ASP A   1       4.872   3.585  18.949  0.00  0.00    +0.000 C 
ATOM     32  O   ASP A   1       5.163   2.963  19.965  0.00  0.00    +0.000 OA
BRANCH  31  33
ATOM     33  OXT ASP A   1       5.837   4.049  18.130  0.00  0.00    +0.000 OA
ATOM     34  HXT ASP A   1       6.555   3.389  17.996  0.00  0.00    +0.000 HD
ENDBRANCH  31  33
ENDBRANCH  30  31
BRANCH  30  35
ATOM     35  CB  ASP A   1       2.619   2.594  19.044  0.00  0.00    +0.000 C 
BRANCH  35  36
ATOM     36  CG  ASP A   1       1.757   2.958  20.214  0.00  0.00    +0.000 C 
ATOM     37  OD1 ASP A   1       0.568   3.246  20.114  0.00  0.00    +0.000 OA
BRANCH  36  38
ATOM     38  OD2 ASP A   1       2.414   3.023  21.388  0.00  0.00    +0.000 OA
ATOM     39  HD2 ASP A   1       2.585   2.163  21.819  0.00  0.00    +0.000 HD
ENDBRANCH  36  38
ENDBRANCH  35  36
ENDBRANCH  30  35
ENDBRANCH  28  30
ENDBRANCH   4  26
TORSDOF 11
ENDMDL
MODEL 8
REMARK VINA RESULT:      -7.7      2.340      2.939
REMARK  Name = 
REMARK  12 active torsions:
REMARK  status: ('A' for Active; 'I' for Inactive)
REMARK    1  A    between atoms: C_1  and  C_2
REMARK    2  A    between atoms: C_2  and  N_3
REMARK    3  A    between atoms: C_2  and  C_26
REMARK    4  A    between atoms: N_3  and  C_4
REMARK    5  A    between atoms: N_7  and  C_8
REMARK    6  A    between atoms: C_11  and  C_12
REMARK    7  A    between atoms: N_14  and  CA_15
REMARK    8  A    between atoms: CA_15  and  CB_16
REMARK    9  A    between atoms: CA_15  and  C_20
REMARK   10  A    between atoms: CB_16  and  CG_17
REMARK   11  A    between atoms: CG_17  and  OD2_19
REMARK   12  A    between atoms: C_20  and  OXT_22
REMARK                            x       y       z     vdW  Elec       q    Type
REMARK                         _______ _______ _______ _____ _____    ______ ____
ROOT
ATOM      1  C   UNK A   0       1.517   7.272  20.597  0.00  0.00    +0.000 A 
ATOM      2  C   UNK A   0       2.122   7.766  19.436  0.00  0.00    +0.000 A 
ATOM      3  C   UNK A   0       2.873   6.931  18.598  0.00  0.00    +0.000 A 
ATOM      4  C   UNK A   0       3.042   5.572  18.902  0.00  0.00    +0.000 A 
ATOM      5  C   UNK A   0       2.371   5.047  20.008  0.00  0.00    +0.000 A 
ATOM      6  C   UNK A   0       1.635   5.896  20.852  0.00  0.00    +0.000 A 
ENDROOT
BRANCH   1  10
ATOM      7  C   UNK A   0       0.490  10.439  21.930  0.00  0.00    +0.000 C 
ATOM      8  C   UNK A   0      -0.661   9.864  21.103  0.00  0.00    +0.000 C 
ATOM      9  C   UNK A   0      -0.561   8.366  21.368  0.00  0.00    +0.000 C 
ATOM     10  N   UNK A   0       0.876   8.084  21.538  0.00  0.00    +0.000 N 
ATOM     11  C   UNK A   0       1.592   9.374  21.735  0.00  0.00    +0.000 C 
BRANCH   7  12
ATOM     12  N   UNK A   0       0.794  11.805  21.486  0.00  0.00    +0.000 NA
ATOM     13  H   UNK A   0       0.905  12.402  22.307  0.00  0.00    +0.000 HD
BRANCH  12  15
ATOM     14  C   UNK A   0       0.329  12.768  19.228  0.00  0.00    +0.000 C 
ATOM     15  C   UNK A   0      -0.225  12.436  20.615  0.00  0.00    +0.000 C 
BRANCH  15  16
ATOM     16  C   UNK A   0      -0.781  13.700  21.292  0.00  0.00    +0.000 A 
ATOM     17  C   UNK A   0      -0.169  14.938  21.002  0.00  0.00    +0.000 A 
ATOM     18  C   UNK A   0      -0.503  16.092  21.702  0.00  0.00    +0.000 A 
ATOM     19  C   UNK A   0      -1.426  16.023  22.736  0.00  0.00    +0.000 A 
ATOM     20  C   UNK A   0      -2.061  14.815  23.054  0.00  0.00    +0.000 A 
ATOM     21  C   UNK A   0      -2.915  14.757  24.166  0.00  0.00    +0.000 A 
ATOM     22  C   UNK A   0      -3.589  13.585  24.492  0.00  0.00    +0.000 A 
ATOM     23  C   UNK A   0      -3.481  12.480  23.659  0.00  0.00    +0.000 A 
ATOM     24  C   UNK A   0      -2.608  12.514  22.565  0.00  0.00    +0.000 A 
ATOM     25  C   UNK A   0      -1.815  13.651  22.278  0.00  0.00    +0.000 A 
ENDBRANCH  15  16
ENDBRANCH  12  15
ENDBRANCH   7  12
ENDBRANCH   1  10
BRANCH   4  26
ATOM     26  C   UNK A   0       4.076   4.809  18.133  0.00  0.00    +0.000 C 
ATOM     27  O   UNK A   0       3.774   3.775  17.539  0.00  0.00    +0.000 OA
ATOM     28  N   ASP A   1       5.322   5.372  17.941  0.00  0.00    +0.000 N 
ATOM     29  H   ASP A   1       5.649   5.943  18.719  0.00  0.00    +0.000 HD
BRANCH  28  30
ATOM     30  CA  ASP A   1       6.398   4.671  17.197  0.00  0.00    +0.000 C 
BRANCH  30  31
ATOM     31  C   ASP A   1       6.698   5.248  15.788  0.00  0.00    +0.000 C 
ATOM     32  O   ASP A   1       7.667   4.905  15.119  0.00  0.00    +0.000 OA
BRANCH  31  33
ATOM     33  OXT ASP A   1       5.782   6.097  15.281  0.00  0.00    +0.000 OA
ATOM     34  HXT ASP A   1       5.715   6.925  15.810  0.00  0.00    +0.000 HD
ENDBRANCH  31  33
ENDBRANCH  30  31
BRANCH  30  35
ATOM     35  CB  ASP A   1       7.751   4.691  17.943  0.00  0.00    +0.000 C 
BRANCH  35  36
ATOM     36  CG  ASP A   1       7.861   5.816  18.927  0.00  0.00    +0.000 C 
ATOM     37  OD1 ASP A   1       8.093   6.978  18.602  0.00  0.00    +0.000 OA
BRANCH  36  38
ATOM     38  OD2 ASP A   1       7.766   5.438  20.216  0.00  0.00    +0.000 OA
ATOM     39  HD2 ASP A   1       8.608   5.423  20.710  0.00  0.00    +0.000 HD
ENDBRANCH  36  38
ENDBRANCH  35  36
ENDBRANCH  30  35
ENDBRANCH  28  30
ENDBRANCH   4  26
TORSDOF 11
ENDMDL
MODEL 9
REMARK VINA RESULT:      -7.7      2.751      4.413
REMARK  Name = 
REMARK  12 active torsions:
REMARK  status: ('A' for Active; 'I' for Inactive)
REMARK    1  A    between atoms: C_1  and  C_2
REMARK    2  A    between atoms: C_2  and  N_3
REMARK    3  A    between atoms: C_2  and  C_26
REMARK    4  A    between atoms: N_3  and  C_4
REMARK    5  A    between atoms: N_7  and  C_8
REMARK    6  A    between atoms: C_11  and  C_12
REMARK    7  A    between atoms: N_14  and  CA_15
REMARK    8  A    between atoms: CA_15  and  CB_16
REMARK    9  A    between atoms: CA_15  and  C_20
REMARK   10  A    between atoms: CB_16  and  CG_17
REMARK   11  A    between atoms: CG_17  and  OD2_19
REMARK   12  A    between atoms: C_20  and  OXT_22
REMARK                            x       y       z     vdW  Elec       q    Type
REMARK                         _______ _______ _______ _____ _____    ______ ____
ROOT
ATOM      1  C   UNK A   0       1.186  10.139  19.433  0.00  0.00    +0.000 A 
ATOM      2  C   UNK A   0       1.759   9.545  18.303  0.00  0.00    +0.000 A 
ATOM      3  C   UNK A   0       2.180   8.210  18.321  0.00  0.00    +0.000 A 
ATOM      4  C   UNK A   0       2.041   7.427  19.477  0.00  0.00    +0.000 A 
ATOM      5  C   UNK A   0       1.391   7.979  20.582  0.00  0.00    +0.000 A 
ATOM      6  C   UNK A   0       0.989   9.325  20.560  0.00  0.00    +0.000 A 
ENDROOT
BRANCH   1  10
ATOM      7  C   UNK A   0      -1.071  12.925  19.360  0.00  0.00    +0.000 C 
ATOM      8  C   UNK A   0      -0.856  12.513  20.817  0.00  0.00    +0.000 C 
ATOM      9  C   UNK A   0       0.608  12.087  20.842  0.00  0.00    +0.000 C 
ATOM     10  N   UNK A   0       0.877  11.500  19.516  0.00  0.00    +0.000 N 
ATOM     11  C   UNK A   0      -0.235  11.872  18.599  0.00  0.00    +0.000 C 
BRANCH   7  12
ATOM     12  N   UNK A   0      -2.507  12.982  19.061  0.00  0.00    +0.000 NA
ATOM     13  H   UNK A   0      -2.990  13.429  19.841  0.00  0.00    +0.000 HD
BRANCH  12  15
ATOM     14  C   UNK A   0      -2.869  11.123  17.431  0.00  0.00    +0.000 C 
ATOM     15  C   UNK A   0      -3.163  11.674  18.827  0.00  0.00    +0.000 C 
BRANCH  15  16
ATOM     16  C   UNK A   0      -4.680  11.803  19.048  0.00  0.00    +0.000 A 
ATOM     17  C   UNK A   0      -5.542  11.455  17.986  0.00  0.00    +0.000 A 
ATOM     18  C   UNK A   0      -6.908  11.706  18.051  0.00  0.00    +0.000 A 
ATOM     19  C   UNK A   0      -7.435  12.350  19.162  0.00  0.00    +0.000 A 
ATOM     20  C   UNK A   0      -6.615  12.708  20.241  0.00  0.00    +0.000 A 
ATOM     21  C   UNK A   0      -7.159  13.443  21.305  0.00  0.00    +0.000 A 
ATOM     22  C   UNK A   0      -6.384  13.787  22.409  0.00  0.00    +0.000 A 
ATOM     23  C   UNK A   0      -5.078  13.326  22.497  0.00  0.00    +0.000 A 
ATOM     24  C   UNK A   0      -4.514  12.620  21.429  0.00  0.00    +0.000 A 
ATOM     25  C   UNK A   0      -5.238  12.360  20.241  0.00  0.00    +0.000 A 
ENDBRANCH  15  16
ENDBRANCH  12  15
ENDBRANCH   7  12
ENDBRANCH   1  10
BRANCH   4  26
ATOM     26  C   UNK A   0       2.759   6.114  19.521  0.00  0.00    +0.000 C 
ATOM     27  O   UNK A   0       3.942   6.039  19.190  0.00  0.00    +0.000 OA
ATOM     28  N   ASP A   1       2.141   5.028  20.109  0.00  0.00    +0.000 N 
ATOM     29  H   ASP A   1       1.131   5.001  19.983  0.00  0.00    +0.000 HD
BRANCH  28  30
ATOM     30  CA  ASP A   1       2.789   3.695  20.181  0.00  0.00    +0.000 C 
BRANCH  30  31
ATOM     31  C   ASP A   1       2.285   2.787  21.335  0.00  0.00    +0.000 C 
ATOM     32  O   ASP A   1       3.042   2.192  22.094  0.00  0.00    +0.000 OA
BRANCH  31  33
ATOM     33  OXT ASP A   1       0.951   2.748  21.527  0.00  0.00    +0.000 OA
ATOM     34  HXT ASP A   1       0.601   3.607  21.857  0.00  0.00    +0.000 HD
ENDBRANCH  31  33
ENDBRANCH  30  31
BRANCH  30  35
ATOM     35  CB  ASP A   1       2.592   2.865  18.893  0.00  0.00    +0.000 C 
BRANCH  35  36
ATOM     36  CG  ASP A   1       1.236   3.044  18.281  0.00  0.00    +0.000 C 
ATOM     37  OD1 ASP A   1       0.272   2.335  18.556  0.00  0.00    +0.000 OA
BRANCH  36  38
ATOM     38  OD2 ASP A   1       1.175   4.003  17.338  0.00  0.00    +0.000 OA
ATOM     39  HD2 ASP A   1       0.314   4.458  17.260  0.00  0.00    +0.000 HD
ENDBRANCH  36  38
ENDBRANCH  35  36
ENDBRANCH  30  35
ENDBRANCH  28  30
ENDBRANCH   4  26
TORSDOF 11
ENDMDL
