MODEL 1
REMARK VINA RESULT:      -8.9      0.000      0.000
REMARK  Name = 
REMARK  9 active torsions:
REMARK  status: ('A' for Active; 'I' for Inactive)
REMARK    1  A    between atoms: C_1  and  O_2
REMARK    2  A    between atoms: O_2  and  C_3
REMARK    3  A    between atoms: C_6  and  C_7
REMARK    4  A    between atoms: C_7  and  N_8
REMARK    5  A    between atoms: N_8  and  C_9
REMARK    6  A    between atoms: C_12  and  C_13
REMARK    7  A    between atoms: C_13  and  C_14
REMARK    8  A    between atoms: C_13  and  C_20
REMARK    9  A    between atoms: C_27  and  O_28
REMARK                            x       y       z     vdW  Elec       q    Type
REMARK                         _______ _______ _______ _____ _____    ______ ____
ROOT
ATOM      1  C   UNL     1       2.908   2.909  19.406  0.00  0.00    +0.000 C 
ATOM      2  C   UNL     1       4.331   3.435  19.686  0.00  0.00    +0.000 C 
ATOM      3  O   UNL     1       4.709   4.420  18.717  0.00  0.00    +0.000 OA
ATOM      4  C   UNL     1       4.800   3.913  17.368  0.00  0.00    +0.000 C 
ATOM      5  C   UNL     1       3.433   3.334  16.957  0.00  0.00    +0.000 C 
ATOM      6  C   UNL     1       2.913   2.320  17.978  0.00  0.00    +0.000 C 
ENDROOT
BRANCH   1   7
ATOM      7  N   UNL     1       1.962   4.030  19.589  0.00  0.00    +0.000 NA
ATOM      8  H   UNL     1       1.799   4.494  18.695  0.00  0.00    +0.000 HD
BRANCH   7   9
ATOM      9  C   UNL     1       2.363   5.019  20.579  0.00  0.00    +0.000 C 
BRANCH   9  13
ATOM     10  C   UNL     1       1.584   9.063  19.218  0.00  0.00    +0.000 A 
ATOM     11  C   UNL     1       1.172   8.648  20.484  0.00  0.00    +0.000 A 
ATOM     12  C   UNL     1       1.408   7.339  20.919  0.00  0.00    +0.000 A 
ATOM     13  C   UNL     1       2.067   6.417  20.087  0.00  0.00    +0.000 A 
ATOM     14  C   UNL     1       2.468   6.831  18.815  0.00  0.00    +0.000 A 
ATOM     15  C   UNL     1       2.233   8.140  18.392  0.00  0.00    +0.000 A 
ATOM     16  F   UNL     1       2.660   8.469  17.166  0.00  0.00    +0.000 F 
BRANCH  10  18
ATOM     17  C   UNL     1       0.735  11.147  19.979  0.00  0.00    +0.000 C 
ATOM     18  O   UNL     1       1.299  10.370  18.928  0.00  0.00    +0.000 OA
ENDBRANCH  10  18
ENDBRANCH   9  13
ENDBRANCH   7   9
ENDBRANCH   1   7
BRANCH   6  19
ATOM     19  O   UNL     1       3.677   1.106  17.929  0.00  0.00    +0.000 OA
ATOM     20  H   UNL     1       3.178   0.388  18.351  0.00  0.00    +0.000 HD
ENDBRANCH   6  19
BRANCH   4  21
ATOM     21  C   UNL     1       5.290   5.076  16.431  0.00  0.00    +0.000 C 
BRANCH  21  22
ATOM     22  C   UNL     1       6.267   5.961  17.233  0.00  0.00    +0.000 A 
ATOM     23  C   UNL     1       6.396   7.336  16.989  0.00  0.00    +0.000 A 
ATOM     24  C   UNL     1       7.368   8.098  17.645  0.00  0.00    +0.000 A 
ATOM     25  C   UNL     1       8.233   7.491  18.553  0.00  0.00    +0.000 A 
ATOM     26  C   UNL     1       8.120   6.130  18.813  0.00  0.00    +0.000 A 
ATOM     27  C   UNL     1       7.142   5.371  18.164  0.00  0.00    +0.000 A 
ENDBRANCH  21  22
BRANCH  21  28
ATOM     28  C   UNL     1       5.879   4.651  15.077  0.00  0.00    +0.000 A 
ATOM     29  C   UNL     1       5.110   3.883  14.186  0.00  0.00    +0.000 A 
ATOM     30  C   UNL     1       5.578   3.589  12.898  0.00  0.00    +0.000 A 
ATOM     31  C   UNL     1       6.823   4.056  12.482  0.00  0.00    +0.000 A 
ATOM     32  C   UNL     1       7.612   4.790  13.361  0.00  0.00    +0.000 A 
ATOM     33  C   UNL     1       7.145   5.080  14.644  0.00  0.00    +0.000 A 
ENDBRANCH  21  28
ENDBRANCH   4  21
TORSDOF 8
ENDMDL
MODEL 2
REMARK VINA RESULT:      -8.8      0.350      1.270
REMARK  Name = 
REMARK  9 active torsions:
REMARK  status: ('A' for Active; 'I' for Inactive)
REMARK    1  A    between atoms: C_1  and  O_2
REMARK    2  A    between atoms: O_2  and  C_3
REMARK    3  A    between atoms: C_6  and  C_7
REMARK    4  A    between atoms: C_7  and  N_8
REMARK    5  A    between atoms: N_8  and  C_9
REMARK    6  A    between atoms: C_12  and  C_13
REMARK    7  A    between atoms: C_13  and  C_14
REMARK    8  A    between atoms: C_13  and  C_20
REMARK    9  A    between atoms: C_27  and  O_28
REMARK                            x       y       z     vdW  Elec       q    Type
REMARK                         _______ _______ _______ _____ _____    ______ ____
ROOT
ATOM      1  C   UNL     1       3.008   2.852  19.370  0.00  0.00    +0.000 C 
ATOM      2  C   UNL     1       4.427   3.400  19.631  0.00  0.00    +0.000 C 
ATOM      3  O   UNL     1       4.770   4.402  18.667  0.00  0.00    +0.000 OA
ATOM      4  C   UNL     1       4.846   3.912  17.311  0.00  0.00    +0.000 C 
ATOM      5  C   UNL     1       3.484   3.313  16.916  0.00  0.00    +0.000 C 
ATOM      6  C   UNL     1       2.999   2.279  17.935  0.00  0.00    +0.000 C 
ENDROOT
BRANCH   1   7
ATOM      7  N   UNL     1       2.046   3.954  19.582  0.00  0.00    +0.000 NA
ATOM      8  H   UNL     1       1.859   4.424  18.696  0.00  0.00    +0.000 HD
BRANCH   7   9
ATOM      9  C   UNL     1       2.446   4.939  20.576  0.00  0.00    +0.000 C 
BRANCH   9  13
ATOM     10  C   UNL     1       1.573   8.983  19.274  0.00  0.00    +0.000 A 
ATOM     11  C   UNL     1       1.167   8.538  20.531  0.00  0.00    +0.000 A 
ATOM     12  C   UNL     1       1.434   7.229  20.947  0.00  0.00    +0.000 A 
ATOM     13  C   UNL     1       2.118   6.337  20.103  0.00  0.00    +0.000 A 
ATOM     14  C   UNL     1       2.513   6.780  18.840  0.00  0.00    +0.000 A 
ATOM     15  C   UNL     1       2.248   8.089  18.436  0.00  0.00    +0.000 A 
ATOM     16  F   UNL     1       2.672   8.448  17.217  0.00  0.00    +0.000 F 
BRANCH  10  18
ATOM     17  C   UNL     1      -0.061  10.536  18.527  0.00  0.00    +0.000 C 
ATOM     18  O   UNL     1       1.257  10.287  19.002  0.00  0.00    +0.000 OA
ENDBRANCH  10  18
ENDBRANCH   9  13
ENDBRANCH   7   9
ENDBRANCH   1   7
BRANCH   6  19
ATOM     19  O   UNL     1       3.784   1.079  17.860  0.00  0.00    +0.000 OA
ATOM     20  H   UNL     1       3.907   0.826  16.930  0.00  0.00    +0.000 HD
ENDBRANCH   6  19
BRANCH   4  21
ATOM     21  C   UNL     1       5.300   5.093  16.379  0.00  0.00    +0.000 C 
BRANCH  21  22
ATOM     22  C   UNL     1       6.395   5.894  17.114  0.00  0.00    +0.000 A 
ATOM     23  C   UNL     1       7.233   5.303  18.071  0.00  0.00    +0.000 A 
ATOM     24  C   UNL     1       8.140   6.071  18.809  0.00  0.00    +0.000 A 
ATOM     25  C   UNL     1       8.218   7.446  18.603  0.00  0.00    +0.000 A 
ATOM     26  C   UNL     1       7.399   8.052  17.656  0.00  0.00    +0.000 A 
ATOM     27  C   UNL     1       6.499   7.283  16.912  0.00  0.00    +0.000 A 
ENDBRANCH  21  22
BRANCH  21  28
ATOM     28  C   UNL     1       5.729   4.705  14.955  0.00  0.00    +0.000 A 
ATOM     29  C   UNL     1       7.032   4.989  14.512  0.00  0.00    +0.000 A 
ATOM     30  C   UNL     1       7.484   4.535  13.266  0.00  0.00    +0.000 A 
ATOM     31  C   UNL     1       6.640   3.794  12.442  0.00  0.00    +0.000 A 
ATOM     32  C   UNL     1       5.336   3.532  12.849  0.00  0.00    +0.000 A 
ATOM     33  C   UNL     1       4.887   3.985  14.090  0.00  0.00    +0.000 A 
ENDBRANCH  21  28
ENDBRANCH   4  21
TORSDOF 8
ENDMDL
MODEL 3
REMARK VINA RESULT:      -8.7      3.714      7.123
REMARK  Name = 
REMARK  9 active torsions:
REMARK  status: ('A' for Active; 'I' for Inactive)
REMARK    1  A    between atoms: C_1  and  O_2
REMARK    2  A    between atoms: O_2  and  C_3
REMARK    3  A    between atoms: C_6  and  C_7
REMARK    4  A    between atoms: C_7  and  N_8
REMARK    5  A    between atoms: N_8  and  C_9
REMARK    6  A    between atoms: C_12  and  C_13
REMARK    7  A    between atoms: C_13  and  C_14
REMARK    8  A    between atoms: C_13  and  C_20
REMARK    9  A    between atoms: C_27  and  O_28
REMARK                            x       y       z     vdW  Elec       q    Type
REMARK                         _______ _______ _______ _____ _____    ______ ____
ROOT
ATOM      1  C   UNL     1       7.773   6.832  17.869  0.00  0.00    +0.000 C 
ATOM      2  C   UNL     1       7.135   6.446  16.519  0.00  0.00    +0.000 C 
ATOM      3  O   UNL     1       5.706   6.485  16.601  0.00  0.00    +0.000 OA
ATOM      4  C   UNL     1       5.144   5.526  17.522  0.00  0.00    +0.000 C 
ATOM      5  C   UNL     1       5.713   5.787  18.929  0.00  0.00    +0.000 C 
ATOM      6  C   UNL     1       7.243   5.835  18.924  0.00  0.00    +0.000 C 
ENDROOT
BRANCH   1   7
ATOM      7  N   UNL     1       7.430   8.242  18.150  0.00  0.00    +0.000 NA
ATOM      8  H   UNL     1       6.433   8.391  17.999  0.00  0.00    +0.000 HD
BRANCH   7   9
ATOM      9  C   UNL     1       8.187   9.224  17.388  0.00  0.00    +0.000 C 
BRANCH   9  13
ATOM     10  C   UNL     1       9.884  12.250  19.990  0.00  0.00    +0.000 A 
ATOM     11  C   UNL     1       9.743  10.934  20.429  0.00  0.00    +0.000 A 
ATOM     12  C   UNL     1       9.180   9.960  19.596  0.00  0.00    +0.000 A 
ATOM     13  C   UNL     1       8.749  10.290  18.300  0.00  0.00    +0.000 A 
ATOM     14  C   UNL     1       8.880  11.610  17.867  0.00  0.00    +0.000 A 
ATOM     15  C   UNL     1       9.446  12.574  18.701  0.00  0.00    +0.000 A 
ATOM     16  F   UNL     1       9.554  13.817  18.212  0.00  0.00    +0.000 F 
BRANCH  10  18
ATOM     17  C   UNL     1       9.594  14.035  21.529  0.00  0.00    +0.000 C 
ATOM     18  O   UNL     1      10.459  13.095  20.901  0.00  0.00    +0.000 OA
ENDBRANCH  10  18
ENDBRANCH   9  13
ENDBRANCH   7   9
ENDBRANCH   1   7
BRANCH   6  19
ATOM     19  O   UNL     1       7.796   4.528  18.714  0.00  0.00    +0.000 OA
ATOM     20  H   UNL     1       7.235   3.862  19.143  0.00  0.00    +0.000 HD
ENDBRANCH   6  19
BRANCH   4  21
ATOM     21  C   UNL     1       3.577   5.632  17.456  0.00  0.00    +0.000 C 
BRANCH  21  22
ATOM     22  C   UNL     1       2.985   4.262  17.850  0.00  0.00    +0.000 A 
ATOM     23  C   UNL     1       1.610   4.079  18.060  0.00  0.00    +0.000 A 
ATOM     24  C   UNL     1       1.108   2.860  18.529  0.00  0.00    +0.000 A 
ATOM     25  C   UNL     1       1.977   1.807  18.802  0.00  0.00    +0.000 A 
ATOM     26  C   UNL     1       3.343   1.967  18.598  0.00  0.00    +0.000 A 
ATOM     27  C   UNL     1       3.845   3.181  18.120  0.00  0.00    +0.000 A 
ENDBRANCH  21  22
BRANCH  21  28
ATOM     28  C   UNL     1       2.942   6.783  18.252  0.00  0.00    +0.000 A 
ATOM     29  C   UNL     1       2.654   8.002  17.616  0.00  0.00    +0.000 A 
ATOM     30  C   UNL     1       1.964   9.020  18.288  0.00  0.00    +0.000 A 
ATOM     31  C   UNL     1       1.553   8.836  19.606  0.00  0.00    +0.000 A 
ATOM     32  C   UNL     1       1.857   7.648  20.262  0.00  0.00    +0.000 A 
ATOM     33  C   UNL     1       2.546   6.636  19.592  0.00  0.00    +0.000 A 
ENDBRANCH  21  28
ENDBRANCH   4  21
TORSDOF 8
ENDMDL
MODEL 4
REMARK VINA RESULT:      -8.6      0.923      1.757
REMARK  Name = 
REMARK  9 active torsions:
REMARK  status: ('A' for Active; 'I' for Inactive)
REMARK    1  A    between atoms: C_1  and  O_2
REMARK    2  A    between atoms: O_2  and  C_3
REMARK    3  A    between atoms: C_6  and  C_7
REMARK    4  A    between atoms: C_7  and  N_8
REMARK    5  A    between atoms: N_8  and  C_9
REMARK    6  A    between atoms: C_12  and  C_13
REMARK    7  A    between atoms: C_13  and  C_14
REMARK    8  A    between atoms: C_13  and  C_20
REMARK    9  A    between atoms: C_27  and  O_28
REMARK                            x       y       z     vdW  Elec       q    Type
REMARK                         _______ _______ _______ _____ _____    ______ ____
ROOT
ATOM      1  C   UNL     1       2.958   3.001  19.332  0.00  0.00    +0.000 C 
ATOM      2  C   UNL     1       4.340   3.600  19.664  0.00  0.00    +0.000 C 
ATOM      3  O   UNL     1       4.714   4.585  18.694  0.00  0.00    +0.000 OA
ATOM      4  C   UNL     1       4.889   4.060  17.361  0.00  0.00    +0.000 C 
ATOM      5  C   UNL     1       3.572   3.408  16.900  0.00  0.00    +0.000 C 
ATOM      6  C   UNL     1       3.055   2.388  17.917  0.00  0.00    +0.000 C 
ENDROOT
BRANCH   1   7
ATOM      7  N   UNL     1       1.952   4.078  19.451  0.00  0.00    +0.000 NA
ATOM      8  H   UNL     1       1.912   4.610  18.582  0.00  0.00    +0.000 HD
BRANCH   7   9
ATOM      9  C   UNL     1       2.156   4.990  20.566  0.00  0.00    +0.000 C 
BRANCH   9  13
ATOM     10  C   UNL     1       1.570   9.078  19.241  0.00  0.00    +0.000 A 
ATOM     11  C   UNL     1       2.154   8.134  18.396  0.00  0.00    +0.000 A 
ATOM     12  C   UNL     1       2.358   6.819  18.828  0.00  0.00    +0.000 A 
ATOM     13  C   UNL     1       1.977   6.424  20.122  0.00  0.00    +0.000 A 
ATOM     14  C   UNL     1       1.404   7.373  20.970  0.00  0.00    +0.000 A 
ATOM     15  C   UNL     1       1.199   8.681  20.530  0.00  0.00    +0.000 A 
ATOM     16  F   UNL     1       0.629   9.533  21.393  0.00  0.00    +0.000 F 
BRANCH  10  18
ATOM     17  C   UNL     1       0.089  10.816  18.587  0.00  0.00    +0.000 C 
ATOM     18  O   UNL     1       1.420  10.322  18.687  0.00  0.00    +0.000 OA
ENDBRANCH  10  18
ENDBRANCH   9  13
ENDBRANCH   7   9
ENDBRANCH   1   7
BRANCH   6  19
ATOM     19  O   UNL     1       3.877   1.212  17.926  0.00  0.00    +0.000 OA
ATOM     20  H   UNL     1       4.345   1.133  17.078  0.00  0.00    +0.000 HD
ENDBRANCH   6  19
BRANCH   4  21
ATOM     21  C   UNL     1       5.366   5.229  16.424  0.00  0.00    +0.000 C 
BRANCH  21  22
ATOM     22  C   UNL     1       6.468   6.018  17.161  0.00  0.00    +0.000 A 
ATOM     23  C   UNL     1       7.245   5.440  18.175  0.00  0.00    +0.000 A 
ATOM     24  C   UNL     1       8.158   6.205  18.909  0.00  0.00    +0.000 A 
ATOM     25  C   UNL     1       8.302   7.565  18.643  0.00  0.00    +0.000 A 
ATOM     26  C   UNL     1       7.543   8.157  17.639  0.00  0.00    +0.000 A 
ATOM     27  C   UNL     1       6.638   7.391  16.899  0.00  0.00    +0.000 A 
ENDBRANCH  21  22
BRANCH  21  28
ATOM     28  C   UNL     1       5.798   4.825  15.005  0.00  0.00    +0.000 A 
ATOM     29  C   UNL     1       7.095   5.126  14.554  0.00  0.00    +0.000 A 
ATOM     30  C   UNL     1       7.552   4.660  13.314  0.00  0.00    +0.000 A 
ATOM     31  C   UNL     1       6.720   3.890  12.505  0.00  0.00    +0.000 A 
ATOM     32  C   UNL     1       5.423   3.609  12.921  0.00  0.00    +0.000 A 
ATOM     33  C   UNL     1       4.969   4.075  14.155  0.00  0.00    +0.000 A 
ENDBRANCH  21  28
ENDBRANCH   4  21
TORSDOF 8
ENDMDL
MODEL 5
REMARK VINA RESULT:      -8.5      1.106      3.541
REMARK  Name = 
REMARK  9 active torsions:
REMARK  status: ('A' for Active; 'I' for Inactive)
REMARK    1  A    between atoms: C_1  and  O_2
REMARK    2  A    between atoms: O_2  and  C_3
REMARK    3  A    between atoms: C_6  and  C_7
REMARK    4  A    between atoms: C_7  and  N_8
REMARK    5  A    between atoms: N_8  and  C_9
REMARK    6  A    between atoms: C_12  and  C_13
REMARK    7  A    between atoms: C_13  and  C_14
REMARK    8  A    between atoms: C_13  and  C_20
REMARK    9  A    between atoms: C_27  and  O_28
REMARK                            x       y       z     vdW  Elec       q    Type
REMARK                         _______ _______ _______ _____ _____    ______ ____
ROOT
ATOM      1  C   UNL     1       2.698   4.325  19.268  0.00  0.00    +0.000 C 
ATOM      2  C   UNL     1       3.798   3.256  19.427  0.00  0.00    +0.000 C 
ATOM      3  O   UNL     1       5.033   3.708  18.862  0.00  0.00    +0.000 OA
ATOM      4  C   UNL     1       4.983   3.925  17.436  0.00  0.00    +0.000 C 
ATOM      5  C   UNL     1       3.900   4.974  17.125  0.00  0.00    +0.000 C 
ATOM      6  C   UNL     1       2.554   4.608  17.756  0.00  0.00    +0.000 C 
ENDROOT
BRANCH   1   7
ATOM      7  N   UNL     1       3.090   5.507  20.065  0.00  0.00    +0.000 NA
ATOM      8  H   UNL     1       3.870   5.267  20.677  0.00  0.00    +0.000 HD
BRANCH   7   9
ATOM      9  C   UNL     1       2.021   6.100  20.855  0.00  0.00    +0.000 C 
BRANCH   9  13
ATOM     10  C   UNL     1       1.034  10.050  19.361  0.00  0.00    +0.000 A 
ATOM     11  C   UNL     1       0.635   9.653  20.637  0.00  0.00    +0.000 A 
ATOM     12  C   UNL     1       0.938   8.373  21.114  0.00  0.00    +0.000 A 
ATOM     13  C   UNL     1       1.654   7.464  20.316  0.00  0.00    +0.000 A 
ATOM     14  C   UNL     1       2.042   7.859  19.035  0.00  0.00    +0.000 A 
ATOM     15  C   UNL     1       1.740   9.139  18.569  0.00  0.00    +0.000 A 
ATOM     16  F   UNL     1       2.158   9.454  17.336  0.00  0.00    +0.000 F 
BRANCH  10  18
ATOM     17  C   UNL     1       1.739  12.276  18.925  0.00  0.00    +0.000 C 
ATOM     18  O   UNL     1       0.680  11.330  19.028  0.00  0.00    +0.000 OA
ENDBRANCH  10  18
ENDBRANCH   9  13
ENDBRANCH   7   9
ENDBRANCH   1   7
BRANCH   6  19
ATOM     19  O   UNL     1       1.959   3.490  17.081  0.00  0.00    +0.000 OA
ATOM     20  H   UNL     1       2.653   2.945  16.676  0.00  0.00    +0.000 HD
ENDBRANCH   6  19
BRANCH   4  21
ATOM     21  C   UNL     1       6.415   4.346  16.944  0.00  0.00    +0.000 C 
BRANCH  21  22
ATOM     22  C   UNL     1       6.413   4.351  15.401  0.00  0.00    +0.000 A 
ATOM     23  C   UNL     1       5.479   3.617  14.656  0.00  0.00    +0.000 A 
ATOM     24  C   UNL     1       5.566   3.542  13.262  0.00  0.00    +0.000 A 
ATOM     25  C   UNL     1       6.596   4.198  12.591  0.00  0.00    +0.000 A 
ATOM     26  C   UNL     1       7.530   4.934  13.311  0.00  0.00    +0.000 A 
ATOM     27  C   UNL     1       7.438   5.017  14.703  0.00  0.00    +0.000 A 
ENDBRANCH  21  22
BRANCH  21  28
ATOM     28  C   UNL     1       6.971   5.656  17.523  0.00  0.00    +0.000 A 
ATOM     29  C   UNL     1       7.786   5.629  18.668  0.00  0.00    +0.000 A 
ATOM     30  C   UNL     1       8.404   6.795  19.139  0.00  0.00    +0.000 A 
ATOM     31  C   UNL     1       8.217   8.005  18.476  0.00  0.00    +0.000 A 
ATOM     32  C   UNL     1       7.388   8.057  17.361  0.00  0.00    +0.000 A 
ATOM     33  C   UNL     1       6.771   6.896  16.893  0.00  0.00    +0.000 A 
ENDBRANCH  21  28
ENDBRANCH   4  21
TORSDOF 8
ENDMDL
MODEL 6
REMARK VINA RESULT:      -8.4      3.432      7.059
REMARK  Name = 
REMARK  9 active torsions:
REMARK  status: ('A' for Active; 'I' for Inactive)
REMARK    1  A    between atoms: C_1  and  O_2
REMARK    2  A    between atoms: O_2  and  C_3
REMARK    3  A    between atoms: C_6  and  C_7
REMARK    4  A    between atoms: C_7  and  N_8
REMARK    5  A    between atoms: N_8  and  C_9
REMARK    6  A    between atoms: C_12  and  C_13
REMARK    7  A    between atoms: C_13  and  C_14
REMARK    8  A    between atoms: C_13  and  C_20
REMARK    9  A    between atoms: C_27  and  O_28
REMARK                            x       y       z     vdW  Elec       q    Type
REMARK                         _______ _______ _______ _____ _____    ______ ____
ROOT
ATOM      1  C   UNL     1       7.705   6.467  17.236  0.00  0.00    +0.000 C 
ATOM      2  C   UNL     1       6.889   6.059  15.992  0.00  0.00    +0.000 C 
ATOM      3  O   UNL     1       5.484   6.164  16.247  0.00  0.00    +0.000 OA
ATOM      4  C   UNL     1       5.003   5.265  17.270  0.00  0.00    +0.000 C 
ATOM      5  C   UNL     1       5.754   5.552  18.584  0.00  0.00    +0.000 C 
ATOM      6  C   UNL     1       7.272   5.534  18.389  0.00  0.00    +0.000 C 
ENDROOT
BRANCH   1   7
ATOM      7  N   UNL     1       7.454   7.900  17.497  0.00  0.00    +0.000 NA
ATOM      8  H   UNL     1       7.673   8.446  16.664  0.00  0.00    +0.000 HD
BRANCH   7   9
ATOM      9  C   UNL     1       8.170   8.452  18.638  0.00  0.00    +0.000 C 
BRANCH   9  13
ATOM     10  C   UNL     1       9.441  12.509  17.778  0.00  0.00    +0.000 A 
ATOM     11  C   UNL     1      10.288  11.626  18.447  0.00  0.00    +0.000 A 
ATOM     12  C   UNL     1       9.873  10.321  18.740  0.00  0.00    +0.000 A 
ATOM     13  C   UNL     1       8.595   9.877  18.362  0.00  0.00    +0.000 A 
ATOM     14  C   UNL     1       7.744  10.765  17.703  0.00  0.00    +0.000 A 
ATOM     15  C   UNL     1       8.167  12.062  17.411  0.00  0.00    +0.000 A 
ATOM     16  F   UNL     1       7.302  12.854  16.762  0.00  0.00    +0.000 F 
BRANCH  10  18
ATOM     17  C   UNL     1      11.393  13.854  17.641  0.00  0.00    +0.000 C 
ATOM     18  O   UNL     1       9.977  13.747  17.547  0.00  0.00    +0.000 OA
ENDBRANCH  10  18
ENDBRANCH   9  13
ENDBRANCH   7   9
ENDBRANCH   1   7
BRANCH   6  19
ATOM     19  O   UNL     1       7.743   4.197  18.169  0.00  0.00    +0.000 OA
ATOM     20  H   UNL     1       8.136   4.129  17.283  0.00  0.00    +0.000 HD
ENDBRANCH   6  19
BRANCH   4  21
ATOM     21  C   UNL     1       3.446   5.437  17.394  0.00  0.00    +0.000 C 
BRANCH  21  22
ATOM     22  C   UNL     1       2.864   4.136  17.987  0.00  0.00    +0.000 A 
ATOM     23  C   UNL     1       3.661   3.010  18.235  0.00  0.00    +0.000 A 
ATOM     24  C   UNL     1       3.095   1.804  18.663  0.00  0.00    +0.000 A 
ATOM     25  C   UNL     1       1.716   1.707  18.843  0.00  0.00    +0.000 A 
ATOM     26  C   UNL     1       0.908   2.813  18.605  0.00  0.00    +0.000 A 
ATOM     27  C   UNL     1       1.475   4.020  18.187  0.00  0.00    +0.000 A 
ENDBRANCH  21  22
BRANCH  21  28
ATOM     28  C   UNL     1       2.960   6.682  18.151  0.00  0.00    +0.000 A 
ATOM     29  C   UNL     1       2.792   7.899  17.469  0.00  0.00    +0.000 A 
ATOM     30  C   UNL     1       2.233   9.013  18.109  0.00  0.00    +0.000 A 
ATOM     31  C   UNL     1       1.836   8.929  19.442  0.00  0.00    +0.000 A 
ATOM     32  C   UNL     1       2.025   7.743  20.143  0.00  0.00    +0.000 A 
ATOM     33  C   UNL     1       2.583   6.635  19.504  0.00  0.00    +0.000 A 
ENDBRANCH  21  28
ENDBRANCH   4  21
TORSDOF 8
ENDMDL
MODEL 7
REMARK VINA RESULT:      -8.4      1.489      3.787
REMARK  Name = 
REMARK  9 active torsions:
REMARK  status: ('A' for Active; 'I' for Inactive)
REMARK    1  A    between atoms: C_1  and  O_2
REMARK    2  A    between atoms: O_2  and  C_3
REMARK    3  A    between atoms: C_6  and  C_7
REMARK    4  A    between atoms: C_7  and  N_8
REMARK    5  A    between atoms: N_8  and  C_9
REMARK    6  A    between atoms: C_12  and  C_13
REMARK    7  A    between atoms: C_13  and  C_14
REMARK    8  A    between atoms: C_13  and  C_20
REMARK    9  A    between atoms: C_27  and  O_28
REMARK                            x       y       z     vdW  Elec       q    Type
REMARK                         _______ _______ _______ _____ _____    ______ ____
ROOT
ATOM      1  C   UNL     1       2.667   4.446  19.289  0.00  0.00    +0.000 C 
ATOM      2  C   UNL     1       3.753   3.366  19.470  0.00  0.00    +0.000 C 
ATOM      3  O   UNL     1       4.997   3.794  18.906  0.00  0.00    +0.000 OA
ATOM      4  C   UNL     1       4.958   3.992  17.476  0.00  0.00    +0.000 C 
ATOM      5  C   UNL     1       3.889   5.049  17.144  0.00  0.00    +0.000 C 
ATOM      6  C   UNL     1       2.536   4.709  17.772  0.00  0.00    +0.000 C 
ENDROOT
BRANCH   1   7
ATOM      7  N   UNL     1       3.069   5.634  20.071  0.00  0.00    +0.000 NA
ATOM      8  H   UNL     1       3.833   5.390  20.701  0.00  0.00    +0.000 HD
BRANCH   7   9
ATOM      9  C   UNL     1       1.999   6.262  20.831  0.00  0.00    +0.000 C 
BRANCH   9  13
ATOM     10  C   UNL     1       1.064  10.180  19.221  0.00  0.00    +0.000 A 
ATOM     11  C   UNL     1       1.769   9.249  18.459  0.00  0.00    +0.000 A 
ATOM     12  C   UNL     1       2.086   7.990  18.983  0.00  0.00    +0.000 A 
ATOM     13  C   UNL     1       1.697   7.641  20.287  0.00  0.00    +0.000 A 
ATOM     14  C   UNL     1       1.002   8.578  21.053  0.00  0.00    +0.000 A 
ATOM     15  C   UNL     1       0.686   9.829  20.521  0.00  0.00    +0.000 A 
ATOM     16  F   UNL     1       0.004  10.671  21.308  0.00  0.00    +0.000 F 
BRANCH  10  18
ATOM     17  C   UNL     1       1.861  12.329  18.597  0.00  0.00    +0.000 C 
ATOM     18  O   UNL     1       0.814  11.365  18.582  0.00  0.00    +0.000 OA
ENDBRANCH  10  18
ENDBRANCH   9  13
ENDBRANCH   7   9
ENDBRANCH   1   7
BRANCH   6  19
ATOM     19  O   UNL     1       1.931   3.588  17.110  0.00  0.00    +0.000 OA
ATOM     20  H   UNL     1       2.097   3.643  16.155  0.00  0.00    +0.000 HD
ENDBRANCH   6  19
BRANCH   4  21
ATOM     21  C   UNL     1       6.398   4.388  16.987  0.00  0.00    +0.000 C 
BRANCH  21  22
ATOM     22  C   UNL     1       6.404   4.371  15.443  0.00  0.00    +0.000 A 
ATOM     23  C   UNL     1       5.470   3.632  14.704  0.00  0.00    +0.000 A 
ATOM     24  C   UNL     1       5.564   3.536  13.311  0.00  0.00    +0.000 A 
ATOM     25  C   UNL     1       6.602   4.176  12.638  0.00  0.00    +0.000 A 
ATOM     26  C   UNL     1       7.537   4.916  13.352  0.00  0.00    +0.000 A 
ATOM     27  C   UNL     1       7.438   5.020  14.742  0.00  0.00    +0.000 A 
ENDBRANCH  21  22
BRANCH  21  28
ATOM     28  C   UNL     1       6.966   5.700  17.549  0.00  0.00    +0.000 A 
ATOM     29  C   UNL     1       7.798   5.677  18.682  0.00  0.00    +0.000 A 
ATOM     30  C   UNL     1       8.428   6.843  19.137  0.00  0.00    +0.000 A 
ATOM     31  C   UNL     1       8.233   8.050  18.471  0.00  0.00    +0.000 A 
ATOM     32  C   UNL     1       7.386   8.099  17.368  0.00  0.00    +0.000 A 
ATOM     33  C   UNL     1       6.760   6.937  16.916  0.00  0.00    +0.000 A 
ENDBRANCH  21  28
ENDBRANCH   4  21
TORSDOF 8
ENDMDL
MODEL 8
REMARK VINA RESULT:      -8.3      3.654      6.535
REMARK  Name = 
REMARK  9 active torsions:
REMARK  status: ('A' for Active; 'I' for Inactive)
REMARK    1  A    between atoms: C_1  and  O_2
REMARK    2  A    between atoms: O_2  and  C_3
REMARK    3  A    between atoms: C_6  and  C_7
REMARK    4  A    between atoms: C_7  and  N_8
REMARK    5  A    between atoms: N_8  and  C_9
REMARK    6  A    between atoms: C_12  and  C_13
REMARK    7  A    between atoms: C_13  and  C_14
REMARK    8  A    between atoms: C_13  and  C_20
REMARK    9  A    between atoms: C_27  and  O_28
REMARK                            x       y       z     vdW  Elec       q    Type
REMARK                         _______ _______ _______ _____ _____    ______ ____
ROOT
ATOM      1  C   UNL     1       0.655   9.801  20.395  0.00  0.00    +0.000 C 
ATOM      2  C   UNL     1       1.847   9.806  19.417  0.00  0.00    +0.000 C 
ATOM      3  O   UNL     1       2.004   8.524  18.799  0.00  0.00    +0.000 OA
ATOM      4  C   UNL     1       2.335   7.464  19.722  0.00  0.00    +0.000 C 
ATOM      5  C   UNL     1       1.222   7.354  20.781  0.00  0.00    +0.000 C 
ATOM      6  C   UNL     1       0.933   8.702  21.445  0.00  0.00    +0.000 C 
ENDROOT
BRANCH   1   7
ATOM      7  N   UNL     1      -0.580   9.583  19.612  0.00  0.00    +0.000 NA
ATOM      8  H   UNL     1      -0.773   8.584  19.545  0.00  0.00    +0.000 HD
BRANCH   7   9
ATOM      9  C   UNL     1      -0.574  10.165  18.278  0.00  0.00    +0.000 C 
BRANCH   9  13
ATOM     10  C   UNL     1      -4.527  11.543  17.144  0.00  0.00    +0.000 A 
ATOM     11  C   UNL     1      -4.027  11.792  18.422  0.00  0.00    +0.000 A 
ATOM     12  C   UNL     1      -2.758  11.334  18.795  0.00  0.00    +0.000 A 
ATOM     13  C   UNL     1      -1.963  10.615  17.886  0.00  0.00    +0.000 A 
ATOM     14  C   UNL     1      -2.469  10.356  16.612  0.00  0.00    +0.000 A 
ATOM     15  C   UNL     1      -3.733  10.820  16.247  0.00  0.00    +0.000 A 
ATOM     16  F   UNL     1      -4.146  10.547  15.002  0.00  0.00    +0.000 F 
BRANCH  10  18
ATOM     17  C   UNL     1      -6.712  11.957  17.976  0.00  0.00    +0.000 C 
ATOM     18  O   UNL     1      -5.774  12.056  16.910  0.00  0.00    +0.000 OA
ENDBRANCH  10  18
ENDBRANCH   9  13
ENDBRANCH   7   9
ENDBRANCH   1   7
BRANCH   6  19
ATOM     19  O   UNL     1       2.009   9.086  22.313  0.00  0.00    +0.000 OA
ATOM     20  H   UNL     1       1.680   9.180  23.222  0.00  0.00    +0.000 HD
ENDBRANCH   6  19
BRANCH   4  21
ATOM     21  C   UNL     1       2.547   6.139  18.904  0.00  0.00    +0.000 C 
BRANCH  21  22
ATOM     22  C   UNL     1       4.015   6.096  18.429  0.00  0.00    +0.000 A 
ATOM     23  C   UNL     1       5.029   5.508  19.199  0.00  0.00    +0.000 A 
ATOM     24  C   UNL     1       6.369   5.582  18.805  0.00  0.00    +0.000 A 
ATOM     25  C   UNL     1       6.716   6.253  17.634  0.00  0.00    +0.000 A 
ATOM     26  C   UNL     1       5.726   6.840  16.855  0.00  0.00    +0.000 A 
ATOM     27  C   UNL     1       4.385   6.758  17.243  0.00  0.00    +0.000 A 
ENDBRANCH  21  22
BRANCH  21  28
ATOM     28  C   UNL     1       2.132   4.836  19.605  0.00  0.00    +0.000 A 
ATOM     29  C   UNL     1       2.467   4.627  20.954  0.00  0.00    +0.000 A 
ATOM     30  C   UNL     1       1.993   3.506  21.648  0.00  0.00    +0.000 A 
ATOM     31  C   UNL     1       1.180   2.575  21.005  0.00  0.00    +0.000 A 
ATOM     32  C   UNL     1       0.865   2.749  19.662  0.00  0.00    +0.000 A 
ATOM     33  C   UNL     1       1.338   3.865  18.971  0.00  0.00    +0.000 A 
ENDBRANCH  21  28
ENDBRANCH   4  21
TORSDOF 8
ENDMDL
MODEL 9
REMARK VINA RESULT:      -8.3      3.733      7.263
REMARK  Name = 
REMARK  9 active torsions:
REMARK  status: ('A' for Active; 'I' for Inactive)
REMARK    1  A    between atoms: C_1  and  O_2
REMARK    2  A    between atoms: O_2  and  C_3
REMARK    3  A    between atoms: C_6  and  C_7
REMARK    4  A    between atoms: C_7  and  N_8
REMARK    5  A    between atoms: N_8  and  C_9
REMARK    6  A    between atoms: C_12  and  C_13
REMARK    7  A    between atoms: C_13  and  C_14
REMARK    8  A    between atoms: C_13  and  C_20
REMARK    9  A    between atoms: C_27  and  O_28
REMARK                            x       y       z     vdW  Elec       q    Type
REMARK                         _______ _______ _______ _____ _____    ______ ____
ROOT
ATOM      1  C   UNL     1       7.792   6.728  17.933  0.00  0.00    +0.000 C 
ATOM      2  C   UNL     1       7.157   6.490  16.548  0.00  0.00    +0.000 C 
ATOM      3  O   UNL     1       5.728   6.547  16.627  0.00  0.00    +0.000 OA
ATOM      4  C   UNL     1       5.142   5.511  17.444  0.00  0.00    +0.000 C 
ATOM      5  C   UNL     1       5.707   5.619  18.872  0.00  0.00    +0.000 C 
ATOM      6  C   UNL     1       7.237   5.640  18.880  0.00  0.00    +0.000 C 
ENDROOT
BRANCH   1   7
ATOM      7  N   UNL     1       7.472   8.108  18.353  0.00  0.00    +0.000 NA
ATOM      8  H   UNL     1       6.461   8.225  18.412  0.00  0.00    +0.000 HD
BRANCH   7   9
ATOM      9  C   UNL     1       8.031   9.154  17.509  0.00  0.00    +0.000 C 
BRANCH   9  13
ATOM     10  C   UNL     1      10.506  11.880  19.801  0.00  0.00    +0.000 A 
ATOM     11  C   UNL     1      10.656  11.776  18.418  0.00  0.00    +0.000 A 
ATOM     12  C   UNL     1       9.869  10.885  17.679  0.00  0.00    +0.000 A 
ATOM     13  C   UNL     1       8.911  10.079  18.318  0.00  0.00    +0.000 A 
ATOM     14  C   UNL     1       8.771  10.175  19.703  0.00  0.00    +0.000 A 
ATOM     15  C   UNL     1       9.556  11.070  20.432  0.00  0.00    +0.000 A 
ATOM     16  F   UNL     1       9.355  11.119  21.755  0.00  0.00    +0.000 F 
BRANCH  10  18
ATOM     17  C   UNL     1      10.805  14.108  20.567  0.00  0.00    +0.000 C 
ATOM     18  O   UNL     1      11.331  12.797  20.395  0.00  0.00    +0.000 OA
ENDBRANCH  10  18
ENDBRANCH   9  13
ENDBRANCH   7   9
ENDBRANCH   1   7
BRANCH   6  19
ATOM     19  O   UNL     1       7.769   4.350  18.543  0.00  0.00    +0.000 OA
ATOM     20  H   UNL     1       8.480   4.449  17.889  0.00  0.00    +0.000 HD
ENDBRANCH   6  19
BRANCH   4  21
ATOM     21  C   UNL     1       3.578   5.651  17.382  0.00  0.00    +0.000 C 
BRANCH  21  22
ATOM     22  C   UNL     1       2.957   4.282  17.732  0.00  0.00    +0.000 A 
ATOM     23  C   UNL     1       1.610   4.148  18.096  0.00  0.00    +0.000 A 
ATOM     24  C   UNL     1       1.096   2.919  18.522  0.00  0.00    +0.000 A 
ATOM     25  C   UNL     1       1.928   1.804  18.597  0.00  0.00    +0.000 A 
ATOM     26  C   UNL     1       3.267   1.915  18.238  0.00  0.00    +0.000 A 
ATOM     27  C   UNL     1       3.778   3.141  17.803  0.00  0.00    +0.000 A 
ENDBRANCH  21  22
BRANCH  21  28
ATOM     28  C   UNL     1       2.967   6.790  18.214  0.00  0.00    +0.000 A 
ATOM     29  C   UNL     1       2.686   8.027  17.611  0.00  0.00    +0.000 A 
ATOM     30  C   UNL     1       2.015   9.036  18.316  0.00  0.00    +0.000 A 
ATOM     31  C   UNL     1       1.619   8.825  19.634  0.00  0.00    +0.000 A 
ATOM     32  C   UNL     1       1.918   7.618  20.258  0.00  0.00    +0.000 A 
ATOM     33  C   UNL     1       2.586   6.615  19.555  0.00  0.00    +0.000 A 
ENDBRANCH  21  28
ENDBRANCH   4  21
TORSDOF 8
ENDMDL
