MODEL 1
REMARK VINA RESULT:      -7.6      0.000      0.000
REMARK  Name = 
REMARK  4 active torsions:
REMARK  status: ('A' for Active; 'I' for Inactive)
REMARK    1  A    between atoms: C_2  and  O_3
REMARK    2  A    between atoms: C_2  and  C_4
REMARK    3  A    between atoms: C_7  and  C_8
REMARK    4  A    between atoms: N_10  and  C_11
REMARK                            x       y       z     vdW  Elec       q    Type
REMARK                         _______ _______ _______ _____ _____    ______ ____
ROOT
ATOM      1  C   UNL     1       2.788   6.625  18.928  0.00  0.00    +0.000 A 
ATOM      2  C   UNL     1       2.357   7.920  19.086  0.00  0.00    +0.000 A 
ATOM      3  N   UNL     1       1.556   7.897  20.205  0.00  0.00    +0.000 N 
ATOM      4  N   UNL     1       1.569   6.649  20.734  0.00  0.00    +0.000 NA
ATOM      5  N   UNL     1       2.273   5.860  19.936  0.00  0.00    +0.000 NA
ENDROOT
BRANCH   3   6
ATOM      6  C   UNL     1       0.857   8.948  20.834  0.00  0.00    +0.000 A 
ATOM      7  C   UNL     1       0.923   9.031  22.221  0.00  0.00    +0.000 A 
ATOM      8  N   UNL     1       0.351  10.021  22.948  0.00  0.00    +0.000 NA
ATOM      9  C   UNL     1      -0.340  10.959  22.274  0.00  0.00    +0.000 A 
ATOM     10  C   UNL     1      -0.494  10.948  20.901  0.00  0.00    +0.000 A 
ATOM     11  C   UNL     1       0.110   9.923  20.169  0.00  0.00    +0.000 A 
ATOM     12 CL   UNL     1      -0.262   9.900  18.480  0.00  0.00    +0.000 Cl
ENDBRANCH   3   6
BRANCH   1  16
ATOM     13  C   UNL     1       5.403   5.192  15.875  0.00  0.00    +0.000 A 
ATOM     14  C   UNL     1       4.630   4.286  16.608  0.00  0.00    +0.000 A 
ATOM     15  C   UNL     1       3.770   4.746  17.610  0.00  0.00    +0.000 A 
ATOM     16  C   UNL     1       3.668   6.116  17.890  0.00  0.00    +0.000 A 
ATOM     17  C   UNL     1       4.428   7.019  17.128  0.00  0.00    +0.000 A 
ATOM     18  C   UNL     1       5.284   6.564  16.121  0.00  0.00    +0.000 A 
BRANCH  13  20
ATOM     19  O   UNL     1       6.025   3.697  14.137  0.00  0.00    +0.000 OA
ATOM     20  C   UNL     1       6.306   4.660  14.828  0.00  0.00    +0.000 C 
BRANCH  20  21
ATOM     21  O   UNL     1       7.487   5.310  14.754  0.00  0.00    +0.000 OA
ATOM     22  H   UNL     1       8.100   4.975  14.075  0.00  0.00    +0.000 HD
ENDBRANCH  20  21
ENDBRANCH  13  20
ENDBRANCH   1  16
TORSDOF 4
ENDMDL
MODEL 2
REMARK VINA RESULT:      -7.5      0.103      1.060
REMARK  Name = 
REMARK  4 active torsions:
REMARK  status: ('A' for Active; 'I' for Inactive)
REMARK    1  A    between atoms: C_2  and  O_3
REMARK    2  A    between atoms: C_2  and  C_4
REMARK    3  A    between atoms: C_7  and  C_8
REMARK    4  A    between atoms: N_10  and  C_11
REMARK                            x       y       z     vdW  Elec       q    Type
REMARK                         _______ _______ _______ _____ _____    ______ ____
ROOT
ATOM      1  C   UNL     1       2.756   6.705  18.967  0.00  0.00    +0.000 A 
ATOM      2  C   UNL     1       2.308   7.994  19.129  0.00  0.00    +0.000 A 
ATOM      3  N   UNL     1       1.510   7.959  20.248  0.00  0.00    +0.000 N 
ATOM      4  N   UNL     1       1.539   6.710  20.775  0.00  0.00    +0.000 NA
ATOM      5  N   UNL     1       2.252   5.932  19.974  0.00  0.00    +0.000 NA
ENDROOT
BRANCH   3   6
ATOM      6  C   UNL     1       0.798   8.999  20.880  0.00  0.00    +0.000 A 
ATOM      7  C   UNL     1       0.863   9.079  22.268  0.00  0.00    +0.000 A 
ATOM      8  N   UNL     1       0.279  10.060  22.998  0.00  0.00    +0.000 NA
ATOM      9  C   UNL     1      -0.423  10.992  22.327  0.00  0.00    +0.000 A 
ATOM     10  C   UNL     1      -0.577  10.982  20.955  0.00  0.00    +0.000 A 
ATOM     11  C   UNL     1       0.039   9.967  20.219  0.00  0.00    +0.000 A 
ATOM     12 CL   UNL     1      -0.332   9.945  18.530  0.00  0.00    +0.000 Cl
ENDBRANCH   3   6
BRANCH   1  16
ATOM     13  C   UNL     1       5.324   5.191  15.914  0.00  0.00    +0.000 A 
ATOM     14  C   UNL     1       5.264   6.567  16.150  0.00  0.00    +0.000 A 
ATOM     15  C   UNL     1       4.425   7.074  17.148  0.00  0.00    +0.000 A 
ATOM     16  C   UNL     1       3.640   6.210  17.927  0.00  0.00    +0.000 A 
ATOM     17  C   UNL     1       3.731   4.827  17.700  0.00  0.00    +0.000 A 
ATOM     18  C   UNL     1       4.572   4.317  16.707  0.00  0.00    +0.000 A 
BRANCH  13  20
ATOM     19  O   UNL     1       5.896   3.830  14.053  0.00  0.00    +0.000 OA
ATOM     20  C   UNL     1       6.220   4.700  14.842  0.00  0.00    +0.000 C 
BRANCH  20  21
ATOM     21  O   UNL     1       7.444   5.269  14.860  0.00  0.00    +0.000 OA
ATOM     22  H   UNL     1       7.507   6.096  15.373  0.00  0.00    +0.000 HD
ENDBRANCH  20  21
ENDBRANCH  13  20
ENDBRANCH   1  16
TORSDOF 4
ENDMDL
MODEL 3
REMARK VINA RESULT:      -7.2      5.299      8.445
REMARK  Name = 
REMARK  4 active torsions:
REMARK  status: ('A' for Active; 'I' for Inactive)
REMARK    1  A    between atoms: C_2  and  O_3
REMARK    2  A    between atoms: C_2  and  C_4
REMARK    3  A    between atoms: C_7  and  C_8
REMARK    4  A    between atoms: N_10  and  C_11
REMARK                            x       y       z     vdW  Elec       q    Type
REMARK                         _______ _______ _______ _____ _____    ______ ____
ROOT
ATOM      1  C   UNL     1       1.414   8.237  20.285  0.00  0.00    +0.000 A 
ATOM      2  C   UNL     1       1.780   7.003  20.767  0.00  0.00    +0.000 A 
ATOM      3  N   UNL     1       2.488   6.414  19.745  0.00  0.00    +0.000 N 
ATOM      4  N   UNL     1       2.601   7.295  18.719  0.00  0.00    +0.000 NA
ATOM      5  N   UNL     1       1.908   8.383  19.020  0.00  0.00    +0.000 NA
ENDROOT
BRANCH   3   6
ATOM      6  C   UNL     1       3.107   5.149  19.690  0.00  0.00    +0.000 A 
ATOM      7  C   UNL     1       4.455   5.102  19.345  0.00  0.00    +0.000 A 
ATOM      8  N   UNL     1       5.188   3.962  19.312  0.00  0.00    +0.000 NA
ATOM      9  C   UNL     1       4.553   2.813  19.611  0.00  0.00    +0.000 A 
ATOM     10  C   UNL     1       3.212   2.749  19.932  0.00  0.00    +0.000 A 
ATOM     11  C   UNL     1       2.475   3.936  19.967  0.00  0.00    +0.000 A 
ATOM     12 CL   UNL     1       0.776   3.745  20.226  0.00  0.00    +0.000 Cl
ENDBRANCH   3   6
BRANCH   1  16
ATOM     13  C   UNL     1      -0.812  11.204  22.395  0.00  0.00    +0.000 A 
ATOM     14  C   UNL     1      -0.484  11.408  21.051  0.00  0.00    +0.000 A 
ATOM     15  C   UNL     1       0.245  10.442  20.351  0.00  0.00    +0.000 A 
ATOM     16  C   UNL     1       0.652   9.257  20.983  0.00  0.00    +0.000 A 
ATOM     17  C   UNL     1       0.292   9.051  22.325  0.00  0.00    +0.000 A 
ATOM     18  C   UNL     1      -0.442  10.012  23.027  0.00  0.00    +0.000 A 
BRANCH  13  20
ATOM     19  O   UNL     1      -1.116  13.354  23.358  0.00  0.00    +0.000 OA
ATOM     20  C   UNL     1      -1.579  12.257  23.099  0.00  0.00    +0.000 C 
BRANCH  20  21
ATOM     21  O   UNL     1      -2.815  11.864  23.473  0.00  0.00    +0.000 OA
ATOM     22  H   UNL     1      -3.338  11.429  22.775  0.00  0.00    +0.000 HD
ENDBRANCH  20  21
ENDBRANCH  13  20
ENDBRANCH   1  16
TORSDOF 4
ENDMDL
MODEL 4
REMARK VINA RESULT:      -7.2      5.306      8.390
REMARK  Name = 
REMARK  4 active torsions:
REMARK  status: ('A' for Active; 'I' for Inactive)
REMARK    1  A    between atoms: C_2  and  O_3
REMARK    2  A    between atoms: C_2  and  C_4
REMARK    3  A    between atoms: C_7  and  C_8
REMARK    4  A    between atoms: N_10  and  C_11
REMARK                            x       y       z     vdW  Elec       q    Type
REMARK                         _______ _______ _______ _____ _____    ______ ____
ROOT
ATOM      1  C   UNL     1       1.454   8.192  20.323  0.00  0.00    +0.000 A 
ATOM      2  C   UNL     1       1.834   6.957  20.791  0.00  0.00    +0.000 A 
ATOM      3  N   UNL     1       2.510   6.370  19.747  0.00  0.00    +0.000 N 
ATOM      4  N   UNL     1       2.592   7.251  18.719  0.00  0.00    +0.000 NA
ATOM      5  N   UNL     1       1.909   8.340  19.043  0.00  0.00    +0.000 NA
ENDROOT
BRANCH   3   6
ATOM      6  C   UNL     1       3.128   5.104  19.672  0.00  0.00    +0.000 A 
ATOM      7  C   UNL     1       4.485   5.062  19.366  0.00  0.00    +0.000 A 
ATOM      8  N   UNL     1       5.215   3.922  19.321  0.00  0.00    +0.000 NA
ATOM      9  C   UNL     1       4.568   2.767  19.564  0.00  0.00    +0.000 A 
ATOM     10  C   UNL     1       3.218   2.698  19.841  0.00  0.00    +0.000 A 
ATOM     11  C   UNL     1       2.483   3.885  19.892  0.00  0.00    +0.000 A 
ATOM     12 CL   UNL     1       0.776   3.693  20.093  0.00  0.00    +0.000 Cl
ENDBRANCH   3   6
BRANCH   1  16
ATOM     13  C   UNL     1      -0.726  11.224  22.387  0.00  0.00    +0.000 A 
ATOM     14  C   UNL     1      -0.570   9.963  22.970  0.00  0.00    +0.000 A 
ATOM     15  C   UNL     1       0.142   8.962  22.301  0.00  0.00    +0.000 A 
ATOM     16  C   UNL     1       0.713   9.211  21.045  0.00  0.00    +0.000 A 
ATOM     17  C   UNL     1       0.575  10.491  20.482  0.00  0.00    +0.000 A 
ATOM     18  C   UNL     1      -0.132  11.495  21.150  0.00  0.00    +0.000 A 
BRANCH  13  20
ATOM     19  O   UNL     1      -1.009  13.307  23.493  0.00  0.00    +0.000 OA
ATOM     20  C   UNL     1      -1.494  12.251  23.128  0.00  0.00    +0.000 C 
BRANCH  20  21
ATOM     21  O   UNL     1      -2.762  11.879  23.405  0.00  0.00    +0.000 OA
ATOM     22  H   UNL     1      -3.439  12.556  23.222  0.00  0.00    +0.000 HD
ENDBRANCH  20  21
ENDBRANCH  13  20
ENDBRANCH   1  16
TORSDOF 4
ENDMDL
MODEL 5
REMARK VINA RESULT:      -7.1      2.876      3.536
REMARK  Name = 
REMARK  4 active torsions:
REMARK  status: ('A' for Active; 'I' for Inactive)
REMARK    1  A    between atoms: C_2  and  O_3
REMARK    2  A    between atoms: C_2  and  C_4
REMARK    3  A    between atoms: C_7  and  C_8
REMARK    4  A    between atoms: N_10  and  C_11
REMARK                            x       y       z     vdW  Elec       q    Type
REMARK                         _______ _______ _______ _____ _____    ______ ____
ROOT
ATOM      1  C   UNL     1       2.322   7.781  18.574  0.00  0.00    +0.000 A 
ATOM      2  C   UNL     1       1.489   8.510  19.390  0.00  0.00    +0.000 A 
ATOM      3  N   UNL     1       1.329   9.717  18.751  0.00  0.00    +0.000 N 
ATOM      4  N   UNL     1       1.984   9.682  17.564  0.00  0.00    +0.000 NA
ATOM      5  N   UNL     1       2.630   8.529  17.474  0.00  0.00    +0.000 NA
ENDROOT
BRANCH   3   6
ATOM      6  C   UNL     1       0.570  10.844  19.132  0.00  0.00    +0.000 A 
ATOM      7  C   UNL     1       1.122  11.708  20.072  0.00  0.00    +0.000 A 
ATOM      8  N   UNL     1       0.531  12.857  20.482  0.00  0.00    +0.000 NA
ATOM      9  C   UNL     1      -0.673  13.151  19.957  0.00  0.00    +0.000 A 
ATOM     10  C   UNL     1      -1.320  12.342  19.044  0.00  0.00    +0.000 A 
ATOM     11  C   UNL     1      -0.691  11.166  18.628  0.00  0.00    +0.000 A 
ATOM     12 CL   UNL     1      -1.637  10.141  17.605  0.00  0.00    +0.000 Cl
ENDBRANCH   3   6
BRANCH   1  16
ATOM     13  C   UNL     1       3.765   3.810  19.174  0.00  0.00    +0.000 A 
ATOM     14  C   UNL     1       2.950   4.406  20.142  0.00  0.00    +0.000 A 
ATOM     15  C   UNL     1       2.473   5.707  19.955  0.00  0.00    +0.000 A 
ATOM     16  C   UNL     1       2.797   6.427  18.796  0.00  0.00    +0.000 A 
ATOM     17  C   UNL     1       3.593   5.807  17.817  0.00  0.00    +0.000 A 
ATOM     18  C   UNL     1       4.067   4.504  17.998  0.00  0.00    +0.000 A 
BRANCH  13  20
ATOM     19  O   UNL     1       4.863   2.114  20.423  0.00  0.00    +0.000 OA
ATOM     20  C   UNL     1       4.254   2.433  19.418  0.00  0.00    +0.000 C 
BRANCH  20  21
ATOM     21  O   UNL     1       4.008   1.586  18.396  0.00  0.00    +0.000 OA
ATOM     22  H   UNL     1       4.387   1.853  17.538  0.00  0.00    +0.000 HD
ENDBRANCH  20  21
ENDBRANCH  13  20
ENDBRANCH   1  16
TORSDOF 4
ENDMDL
MODEL 6
REMARK VINA RESULT:      -7.1      2.878      3.591
REMARK  Name = 
REMARK  4 active torsions:
REMARK  status: ('A' for Active; 'I' for Inactive)
REMARK    1  A    between atoms: C_2  and  O_3
REMARK    2  A    between atoms: C_2  and  C_4
REMARK    3  A    between atoms: C_7  and  C_8
REMARK    4  A    between atoms: N_10  and  C_11
REMARK                            x       y       z     vdW  Elec       q    Type
REMARK                         _______ _______ _______ _____ _____    ______ ____
ROOT
ATOM      1  C   UNL     1       2.319   7.783  18.586  0.00  0.00    +0.000 A 
ATOM      2  C   UNL     1       1.529   8.519  19.438  0.00  0.00    +0.000 A 
ATOM      3  N   UNL     1       1.321   9.715  18.791  0.00  0.00    +0.000 N 
ATOM      4  N   UNL     1       1.906   9.666  17.568  0.00  0.00    +0.000 NA
ATOM      5  N   UNL     1       2.556   8.516  17.458  0.00  0.00    +0.000 NA
ENDROOT
BRANCH   3   6
ATOM      6  C   UNL     1       0.577  10.841  19.198  0.00  0.00    +0.000 A 
ATOM      7  C   UNL     1       1.163  11.709  20.114  0.00  0.00    +0.000 A 
ATOM      8  N   UNL     1       0.587  12.858  20.543  0.00  0.00    +0.000 NA
ATOM      9  C   UNL     1      -0.637  13.149  20.065  0.00  0.00    +0.000 A 
ATOM     10  C   UNL     1      -1.318  12.337  19.180  0.00  0.00    +0.000 A 
ATOM     11  C   UNL     1      -0.704  11.161  18.743  0.00  0.00    +0.000 A 
ATOM     12 CL   UNL     1      -1.688  10.132  17.761  0.00  0.00    +0.000 Cl
ENDBRANCH   3   6
BRANCH   1  16
ATOM     13  C   UNL     1       3.737   3.816  19.261  0.00  0.00    +0.000 A 
ATOM     14  C   UNL     1       4.192   4.536  18.153  0.00  0.00    +0.000 A 
ATOM     15  C   UNL     1       3.733   5.837  17.923  0.00  0.00    +0.000 A 
ATOM     16  C   UNL     1       2.818   6.437  18.800  0.00  0.00    +0.000 A 
ATOM     17  C   UNL     1       2.390   5.714  19.926  0.00  0.00    +0.000 A 
ATOM     18  C   UNL     1       2.851   4.415  20.163  0.00  0.00    +0.000 A 
BRANCH  13  20
ATOM     19  O   UNL     1       4.876   2.102  20.446  0.00  0.00    +0.000 OA
ATOM     20  C   UNL     1       4.243   2.439  19.462  0.00  0.00    +0.000 C 
BRANCH  20  21
ATOM     21  O   UNL     1       3.985   1.613  18.425  0.00  0.00    +0.000 OA
ATOM     22  H   UNL     1       3.221   1.021  18.551  0.00  0.00    +0.000 HD
ENDBRANCH  20  21
ENDBRANCH  13  20
ENDBRANCH   1  16
TORSDOF 4
ENDMDL
MODEL 7
REMARK VINA RESULT:      -7.0      5.190      8.323
REMARK  Name = 
REMARK  4 active torsions:
REMARK  status: ('A' for Active; 'I' for Inactive)
REMARK    1  A    between atoms: C_2  and  O_3
REMARK    2  A    between atoms: C_2  and  C_4
REMARK    3  A    between atoms: C_7  and  C_8
REMARK    4  A    between atoms: N_10  and  C_11
REMARK                            x       y       z     vdW  Elec       q    Type
REMARK                         _______ _______ _______ _____ _____    ______ ____
ROOT
ATOM      1  C   UNL     1       1.449   8.443  19.929  0.00  0.00    +0.000 A 
ATOM      2  C   UNL     1       1.965   7.217  20.277  0.00  0.00    +0.000 A 
ATOM      3  N   UNL     1       2.644   6.783  19.162  0.00  0.00    +0.000 N 
ATOM      4  N   UNL     1       2.595   7.747  18.210  0.00  0.00    +0.000 NA
ATOM      5  N   UNL     1       1.829   8.735  18.650  0.00  0.00    +0.000 NA
ENDROOT
BRANCH   3   6
ATOM      6  C   UNL     1       3.372   5.593  18.957  0.00  0.00    +0.000 A 
ATOM      7  C   UNL     1       4.698   5.565  19.378  0.00  0.00    +0.000 A 
ATOM      8  N   UNL     1       5.494   4.471  19.298  0.00  0.00    +0.000 NA
ATOM      9  C   UNL     1       4.963   3.362  18.753  0.00  0.00    +0.000 A 
ATOM     10  C   UNL     1       3.669   3.297  18.274  0.00  0.00    +0.000 A 
ATOM     11  C   UNL     1       2.862   4.433  18.372  0.00  0.00    +0.000 A 
ATOM     12 CL   UNL     1       1.314   4.311  17.611  0.00  0.00    +0.000 Cl
ENDBRANCH   3   6
BRANCH   1  16
ATOM     13  C   UNL     1      -0.917  11.066  22.321  0.00  0.00    +0.000 A 
ATOM     14  C   UNL     1      -0.402   9.893  22.881  0.00  0.00    +0.000 A 
ATOM     15  C   UNL     1       0.374   9.026  22.105  0.00  0.00    +0.000 A 
ATOM     16  C   UNL     1       0.651   9.324  20.762  0.00  0.00    +0.000 A 
ATOM     17  C   UNL     1       0.152  10.520  20.220  0.00  0.00    +0.000 A 
ATOM     18  C   UNL     1      -0.619  11.392  20.994  0.00  0.00    +0.000 A 
BRANCH  13  20
ATOM     19  O   UNL     1      -2.884  11.684  23.501  0.00  0.00    +0.000 OA
ATOM     20  C   UNL     1      -1.740  11.951  23.178  0.00  0.00    +0.000 C 
BRANCH  20  21
ATOM     21  O   UNL     1      -1.121  13.102  23.517  0.00  0.00    +0.000 OA
ATOM     22  H   UNL     1      -1.375  13.467  24.384  0.00  0.00    +0.000 HD
ENDBRANCH  20  21
ENDBRANCH  13  20
ENDBRANCH   1  16
TORSDOF 4
ENDMDL
MODEL 8
REMARK VINA RESULT:      -7.0      2.868      3.807
REMARK  Name = 
REMARK  4 active torsions:
REMARK  status: ('A' for Active; 'I' for Inactive)
REMARK    1  A    between atoms: C_2  and  O_3
REMARK    2  A    between atoms: C_2  and  C_4
REMARK    3  A    between atoms: C_7  and  C_8
REMARK    4  A    between atoms: N_10  and  C_11
REMARK                            x       y       z     vdW  Elec       q    Type
REMARK                         _______ _______ _______ _____ _____    ______ ____
ROOT
ATOM      1  C   UNL     1       1.725   7.808  20.136  0.00  0.00    +0.000 A 
ATOM      2  C   UNL     1       1.499   8.790  19.201  0.00  0.00    +0.000 A 
ATOM      3  N   UNL     1       0.971   9.844  19.909  0.00  0.00    +0.000 N 
ATOM      4  N   UNL     1       0.949   9.528  21.227  0.00  0.00    +0.000 NA
ATOM      5  N   UNL     1       1.358   8.275  21.366  0.00  0.00    +0.000 NA
ENDROOT
BRANCH   3   6
ATOM      6  C   UNL     1       0.561  11.116  19.459  0.00  0.00    +0.000 A 
ATOM      7  C   UNL     1       1.342  12.212  19.814  0.00  0.00    +0.000 A 
ATOM      8  N   UNL     1       1.100  13.480  19.402  0.00  0.00    +0.000 NA
ATOM      9  C   UNL     1       0.021  13.677  18.622  0.00  0.00    +0.000 A 
ATOM     10  C   UNL     1      -0.837  12.664  18.243  0.00  0.00    +0.000 A 
ATOM     11  C   UNL     1      -0.565  11.362  18.671  0.00  0.00    +0.000 A 
ATOM     12 CL   UNL     1      -1.771  10.186  18.279  0.00  0.00    +0.000 Cl
ENDBRANCH   3   6
BRANCH   1  16
ATOM     13  C   UNL     1       3.315   3.903  19.480  0.00  0.00    +0.000 A 
ATOM     14  C   UNL     1       3.795   4.982  18.732  0.00  0.00    +0.000 A 
ATOM     15  C   UNL     1       3.280   6.265  18.939  0.00  0.00    +0.000 A 
ATOM     16  C   UNL     1       2.284   6.488  19.901  0.00  0.00    +0.000 A 
ATOM     17  C   UNL     1       1.829   5.401  20.666  0.00  0.00    +0.000 A 
ATOM     18  C   UNL     1       2.346   4.118  20.466  0.00  0.00    +0.000 A 
BRANCH  13  20
ATOM     19  O   UNL     1       3.278   1.686  18.627  0.00  0.00    +0.000 OA
ATOM     20  C   UNL     1       3.884   2.560  19.222  0.00  0.00    +0.000 C 
BRANCH  20  21
ATOM     21  O   UNL     1       5.111   2.382  19.757  0.00  0.00    +0.000 OA
ATOM     22  H   UNL     1       5.342   1.458  19.961  0.00  0.00    +0.000 HD
ENDBRANCH  20  21
ENDBRANCH  13  20
ENDBRANCH   1  16
TORSDOF 4
ENDMDL
MODEL 9
REMARK VINA RESULT:      -6.9      4.672      7.982
REMARK  Name = 
REMARK  4 active torsions:
REMARK  status: ('A' for Active; 'I' for Inactive)
REMARK    1  A    between atoms: C_2  and  O_3
REMARK    2  A    between atoms: C_2  and  C_4
REMARK    3  A    between atoms: C_7  and  C_8
REMARK    4  A    between atoms: N_10  and  C_11
REMARK                            x       y       z     vdW  Elec       q    Type
REMARK                         _______ _______ _______ _____ _____    ______ ____
ROOT
ATOM      1  C   UNL     1       2.339   7.774  18.886  0.00  0.00    +0.000 A 
ATOM      2  C   UNL     1       3.158   7.631  17.791  0.00  0.00    +0.000 A 
ATOM      3  N   UNL     1       3.886   6.490  18.034  0.00  0.00    +0.000 N 
ATOM      4  N   UNL     1       3.465   5.935  19.198  0.00  0.00    +0.000 NA
ATOM      5  N   UNL     1       2.562   6.736  19.744  0.00  0.00    +0.000 NA
ENDROOT
BRANCH   3   6
ATOM      6  C   UNL     1       4.871   5.864  17.243  0.00  0.00    +0.000 A 
ATOM      7  C   UNL     1       6.015   6.594  16.935  0.00  0.00    +0.000 A 
ATOM      8  N   UNL     1       7.064   6.098  16.236  0.00  0.00    +0.000 NA
ATOM      9  C   UNL     1       6.967   4.828  15.800  0.00  0.00    +0.000 A 
ATOM     10  C   UNL     1       5.862   4.032  16.023  0.00  0.00    +0.000 A 
ATOM     11  C   UNL     1       4.793   4.559  16.752  0.00  0.00    +0.000 A 
ATOM     12 CL   UNL     1       3.393   3.550  16.851  0.00  0.00    +0.000 Cl
ENDBRANCH   3   6
BRANCH   1  16
ATOM     13  C   UNL     1      -0.540  10.863  19.501  0.00  0.00    +0.000 A 
ATOM     14  C   UNL     1       0.003  10.193  20.601  0.00  0.00    +0.000 A 
ATOM     15  C   UNL     1       0.948   9.179  20.409  0.00  0.00    +0.000 A 
ATOM     16  C   UNL     1       1.364   8.826  19.117  0.00  0.00    +0.000 A 
ATOM     17  C   UNL     1       0.832   9.526  18.022  0.00  0.00    +0.000 A 
ATOM     18  C   UNL     1      -0.107  10.544  18.209  0.00  0.00    +0.000 A 
BRANCH  13  20
ATOM     19  O   UNL     1      -2.095  12.076  20.825  0.00  0.00    +0.000 OA
ATOM     20  C   UNL     1      -1.542  11.925  19.750  0.00  0.00    +0.000 C 
BRANCH  20  21
ATOM     21  O   UNL     1      -1.822  12.668  18.658  0.00  0.00    +0.000 OA
ATOM     22  H   UNL     1      -2.361  13.463  18.827  0.00  0.00    +0.000 HD
ENDBRANCH  20  21
ENDBRANCH  13  20
ENDBRANCH   1  16
TORSDOF 4
ENDMDL
