MODEL 1
REMARK VINA RESULT:      -7.5      0.000      0.000
REMARK  Name = 
REMARK  11 active torsions:
REMARK  status: ('A' for Active; 'I' for Inactive)
REMARK    1  A    between atoms: C_1  and  C_2
REMARK    2  A    between atoms: C_5  and  C_6
REMARK    3  A    between atoms: N_8  and  C_9
REMARK    4  A    between atoms: N_8  and  C_14
REMARK    5  A    between atoms: C_9  and  C_10
REMARK    6  A    between atoms: C_10  and  N_11
REMARK    7  A    between atoms: N_11  and  C_12
REMARK    8  A    between atoms: N_11  and  C_13
REMARK    9  A    between atoms: C_20  and  C_21
REMARK   10  A    between atoms: C_21  and  O_22
REMARK   11  A    between atoms: O_22  and  C_23
REMARK                            x       y       z     vdW  Elec       q    Type
REMARK                         _______ _______ _______ _____ _____    ______ ____
ROOT
ATOM      1  C   UNL     1      -0.465  10.367  21.668  0.00  0.00    +0.000 C 
ATOM      2  C   UNL     1       0.460   9.441  20.977  0.00  0.00    +0.000 A 
ATOM      3  O   UNL     1       0.964   8.472  21.774  0.00  0.00    +0.000 OA
ATOM      4  N   UNL     1       1.795   7.660  21.063  0.00  0.00    +0.000 NA
ATOM      5  C   UNL     1       1.775   8.079  19.790  0.00  0.00    +0.000 A 
ATOM      6  C   UNL     1       0.957   9.294  19.692  0.00  0.00    +0.000 A 
ENDROOT
BRANCH   5   7
ATOM      7  C   UNL     1       2.565   7.394  18.736  0.00  0.00    +0.000 C 
ATOM      8  O   UNL     1       3.193   8.104  17.944  0.00  0.00    +0.000 OA
ATOM      9  N   UNL     1       2.637   5.972  18.600  0.00  0.00    +0.000 N 
BRANCH   9  10
ATOM     10  C   UNL     1       1.901   4.890  19.320  0.00  0.00    +0.000 C 
ATOM     11  C   UNL     1       2.412   4.523  20.718  0.00  0.00    +0.000 C 
ATOM     12  C   UNL     1       1.565   3.413  21.338  0.00  0.00    +0.000 C 
ATOM     13  O   UNL     1       1.362   2.331  20.434  0.00  0.00    +0.000 OA
ATOM     14  C   UNL     1       0.651   2.727  19.265  0.00  0.00    +0.000 C 
ATOM     15  C   UNL     1       1.475   3.710  18.444  0.00  0.00    +0.000 C 
ENDBRANCH   9  10
BRANCH   9  16
ATOM     16  C   UNL     1       3.651   5.460  17.650  0.00  0.00    +0.000 C 
BRANCH  16  17
ATOM     17  C   UNL     1       5.045   5.291  18.298  0.00  0.00    +0.000 C 
BRANCH  17  18
ATOM     18  N   UNL     1       5.982   4.467  17.514  0.00  0.00    +0.000 NA
ATOM     19  C   UNL     1       5.415   4.060  16.223  0.00  0.00    +0.000 C 
ATOM     20  C   UNL     1       7.233   5.203  17.316  0.00  0.00    +0.000 C 
ENDBRANCH  17  18
ENDBRANCH  16  17
ENDBRANCH   9  16
ENDBRANCH   5   7
BRANCH   6  21
ATOM     21  C   UNL     1       0.626  10.139  18.482  0.00  0.00    +0.000 C 
BRANCH  21  22
ATOM     22  O   UNL     1      -0.366  11.193  18.621  0.00  0.00    +0.000 OA
BRANCH  22  23
ATOM     23  C   UNL     1      -1.625  10.961  18.130  0.00  0.00    +0.000 A 
ATOM     24  C   UNL     1      -1.832  10.083  17.073  0.00  0.00    +0.000 A 
ATOM     25  C   UNL     1      -3.091   9.981  16.466  0.00  0.00    +0.000 A 
ATOM     26  C   UNL     1      -4.150  10.765  16.899  0.00  0.00    +0.000 A 
ATOM     27  C   UNL     1      -3.954  11.655  17.952  0.00  0.00    +0.000 A 
ATOM     28  C   UNL     1      -2.701  11.759  18.557  0.00  0.00    +0.000 A 
ENDBRANCH  22  23
ENDBRANCH  21  22
ENDBRANCH   6  21
TORSDOF 8
ENDMDL
MODEL 2
REMARK VINA RESULT:      -7.3      2.365      4.673
REMARK  Name = 
REMARK  11 active torsions:
REMARK  status: ('A' for Active; 'I' for Inactive)
REMARK    1  A    between atoms: C_1  and  C_2
REMARK    2  A    between atoms: C_5  and  C_6
REMARK    3  A    between atoms: N_8  and  C_9
REMARK    4  A    between atoms: N_8  and  C_14
REMARK    5  A    between atoms: C_9  and  C_10
REMARK    6  A    between atoms: C_10  and  N_11
REMARK    7  A    between atoms: N_11  and  C_12
REMARK    8  A    between atoms: N_11  and  C_13
REMARK    9  A    between atoms: C_20  and  C_21
REMARK   10  A    between atoms: C_21  and  O_22
REMARK   11  A    between atoms: O_22  and  C_23
REMARK                            x       y       z     vdW  Elec       q    Type
REMARK                         _______ _______ _______ _____ _____    ______ ____
ROOT
ATOM      1  C   UNL     1       1.528  10.833  18.214  0.00  0.00    +0.000 C 
ATOM      2  C   UNL     1       1.875   9.409  18.414  0.00  0.00    +0.000 A 
ATOM      3  O   UNL     1       2.327   8.792  17.299  0.00  0.00    +0.000 OA
ATOM      4  N   UNL     1       2.632   7.492  17.569  0.00  0.00    +0.000 NA
ATOM      5  C   UNL     1       2.428   7.294  18.879  0.00  0.00    +0.000 A 
ATOM      6  C   UNL     1       1.868   8.514  19.472  0.00  0.00    +0.000 A 
ENDROOT
BRANCH   5   7
ATOM      7  C   UNL     1       2.687   5.977  19.513  0.00  0.00    +0.000 C 
ATOM      8  O   UNL     1       1.821   5.533  20.273  0.00  0.00    +0.000 OA
ATOM      9  N   UNL     1       3.870   5.207  19.283  0.00  0.00    +0.000 N 
BRANCH   9  10
ATOM     10  C   UNL     1       5.114   5.541  18.528  0.00  0.00    +0.000 C 
ATOM     11  C   UNL     1       5.148   5.143  17.047  0.00  0.00    +0.000 C 
ATOM     12  C   UNL     1       6.469   5.551  16.399  0.00  0.00    +0.000 C 
ATOM     13  O   UNL     1       7.591   5.159  17.186  0.00  0.00    +0.000 OA
ATOM     14  C   UNL     1       7.600   5.783  18.466  0.00  0.00    +0.000 C 
ATOM     15  C   UNL     1       6.415   5.315  19.300  0.00  0.00    +0.000 C 
ENDBRANCH   9  10
BRANCH   9  16
ATOM     16  C   UNL     1       3.856   3.821  19.806  0.00  0.00    +0.000 C 
BRANCH  16  17
ATOM     17  C   UNL     1       3.156   2.828  18.849  0.00  0.00    +0.000 C 
BRANCH  17  18
ATOM     18  N   UNL     1       2.018   2.110  19.448  0.00  0.00    +0.000 NA
ATOM     19  C   UNL     1       1.886   2.379  20.884  0.00  0.00    +0.000 C 
ATOM     20  C   UNL     1       0.785   2.471  18.743  0.00  0.00    +0.000 C 
ENDBRANCH  17  18
ENDBRANCH  16  17
ENDBRANCH   9  16
ENDBRANCH   5   7
BRANCH   6  21
ATOM     21  C   UNL     1       1.470   8.795  20.904  0.00  0.00    +0.000 C 
BRANCH  21  22
ATOM     22  O   UNL     1       0.063   8.725  21.261  0.00  0.00    +0.000 OA
BRANCH  22  23
ATOM     23  C   UNL     1      -0.593   9.897  21.532  0.00  0.00    +0.000 A 
ATOM     24  C   UNL     1      -0.919  10.789  20.516  0.00  0.00    +0.000 A 
ATOM     25  C   UNL     1      -1.432  12.057  20.815  0.00  0.00    +0.000 A 
ATOM     26  C   UNL     1      -1.611  12.454  22.133  0.00  0.00    +0.000 A 
ATOM     27  C   UNL     1      -1.280  11.574  23.161  0.00  0.00    +0.000 A 
ATOM     28  C   UNL     1      -0.768  10.311  22.864  0.00  0.00    +0.000 A 
ENDBRANCH  22  23
ENDBRANCH  21  22
ENDBRANCH   6  21
TORSDOF 8
ENDMDL
MODEL 3
REMARK VINA RESULT:      -7.2      1.594      1.857
REMARK  Name = 
REMARK  11 active torsions:
REMARK  status: ('A' for Active; 'I' for Inactive)
REMARK    1  A    between atoms: C_1  and  C_2
REMARK    2  A    between atoms: C_5  and  C_6
REMARK    3  A    between atoms: N_8  and  C_9
REMARK    4  A    between atoms: N_8  and  C_14
REMARK    5  A    between atoms: C_9  and  C_10
REMARK    6  A    between atoms: C_10  and  N_11
REMARK    7  A    between atoms: N_11  and  C_12
REMARK    8  A    between atoms: N_11  and  C_13
REMARK    9  A    between atoms: C_20  and  C_21
REMARK   10  A    between atoms: C_21  and  O_22
REMARK   11  A    between atoms: O_22  and  C_23
REMARK                            x       y       z     vdW  Elec       q    Type
REMARK                         _______ _______ _______ _____ _____    ______ ____
ROOT
ATOM      1  C   UNL     1       0.124   8.842  21.305  0.00  0.00    +0.000 C 
ATOM      2  C   UNL     1       1.137   8.189  20.447  0.00  0.00    +0.000 A 
ATOM      3  O   UNL     1       1.688   7.082  20.994  0.00  0.00    +0.000 OA
ATOM      4  N   UNL     1       2.599   6.537  20.141  0.00  0.00    +0.000 NA
ATOM      5  C   UNL     1       2.587   7.268  19.017  0.00  0.00    +0.000 A 
ATOM      6  C   UNL     1       1.682   8.410  19.192  0.00  0.00    +0.000 A 
ENDROOT
BRANCH   5   7
ATOM      7  C   UNL     1       3.458   6.931  17.863  0.00  0.00    +0.000 C 
ATOM      8  O   UNL     1       3.833   7.861  17.144  0.00  0.00    +0.000 OA
ATOM      9  N   UNL     1       3.881   5.600  17.555  0.00  0.00    +0.000 N 
BRANCH   9  10
ATOM     10  C   UNL     1       3.492   4.292  18.161  0.00  0.00    +0.000 C 
ATOM     11  C   UNL     1       4.480   3.675  19.159  0.00  0.00    +0.000 C 
ATOM     12  C   UNL     1       3.953   2.350  19.705  0.00  0.00    +0.000 C 
ATOM     13  O   UNL     1       3.485   1.494  18.666  0.00  0.00    +0.000 OA
ATOM     14  C   UNL     1       2.391   2.059  17.949  0.00  0.00    +0.000 C 
ATOM     15  C   UNL     1       2.831   3.306  17.195  0.00  0.00    +0.000 C 
ENDBRANCH   9  10
BRANCH   9  16
ATOM     16  C   UNL     1       4.931   5.475  16.517  0.00  0.00    +0.000 C 
BRANCH  16  17
ATOM     17  C   UNL     1       6.339   5.245  17.116  0.00  0.00    +0.000 C 
BRANCH  17  18
ATOM     18  N   UNL     1       6.753   6.263  18.098  0.00  0.00    +0.000 NA
ATOM     19  C   UNL     1       7.645   5.713  19.125  0.00  0.00    +0.000 C 
ATOM     20  C   UNL     1       7.398   7.380  17.401  0.00  0.00    +0.000 C 
ENDBRANCH  17  18
ENDBRANCH  16  17
ENDBRANCH   9  16
ENDBRANCH   5   7
BRANCH   6  21
ATOM     21  C   UNL     1       1.325   9.515  18.223  0.00  0.00    +0.000 C 
BRANCH  21  22
ATOM     22  O   UNL     1       0.510  10.621  18.700  0.00  0.00    +0.000 OA
BRANCH  22  23
ATOM     23  C   UNL     1      -0.828  10.608  18.404  0.00  0.00    +0.000 A 
ATOM     24  C   UNL     1      -1.333   9.800  17.392  0.00  0.00    +0.000 A 
ATOM     25  C   UNL     1      -2.667   9.918  16.981  0.00  0.00    +0.000 A 
ATOM     26  C   UNL     1      -3.506  10.853  17.568  0.00  0.00    +0.000 A 
ATOM     27  C   UNL     1      -3.012  11.675  18.578  0.00  0.00    +0.000 A 
ATOM     28  C   UNL     1      -1.684  11.560  18.987  0.00  0.00    +0.000 A 
ENDBRANCH  22  23
ENDBRANCH  21  22
ENDBRANCH   6  21
TORSDOF 8
ENDMDL
MODEL 4
REMARK VINA RESULT:      -7.1      2.861      5.689
REMARK  Name = 
REMARK  11 active torsions:
REMARK  status: ('A' for Active; 'I' for Inactive)
REMARK    1  A    between atoms: C_1  and  C_2
REMARK    2  A    between atoms: C_5  and  C_6
REMARK    3  A    between atoms: N_8  and  C_9
REMARK    4  A    between atoms: N_8  and  C_14
REMARK    5  A    between atoms: C_9  and  C_10
REMARK    6  A    between atoms: C_10  and  N_11
REMARK    7  A    between atoms: N_11  and  C_12
REMARK    8  A    between atoms: N_11  and  C_13
REMARK    9  A    between atoms: C_20  and  C_21
REMARK   10  A    between atoms: C_21  and  O_22
REMARK   11  A    between atoms: O_22  and  C_23
REMARK                            x       y       z     vdW  Elec       q    Type
REMARK                         _______ _______ _______ _____ _____    ______ ____
ROOT
ATOM      1  C   UNL     1       2.348   3.369  21.657  0.00  0.00    +0.000 C 
ATOM      2  C   UNL     1       3.030   3.366  20.344  0.00  0.00    +0.000 A 
ATOM      3  O   UNL     1       3.825   2.290  20.141  0.00  0.00    +0.000 OA
ATOM      4  N   UNL     1       4.405   2.358  18.911  0.00  0.00    +0.000 NA
ATOM      5  C   UNL     1       3.932   3.454  18.301  0.00  0.00    +0.000 A 
ATOM      6  C   UNL     1       3.067   4.190  19.230  0.00  0.00    +0.000 A 
ENDROOT
BRANCH   5   7
ATOM      7  C   UNL     1       4.351   3.817  16.923  0.00  0.00    +0.000 C 
ATOM      8  O   UNL     1       3.860   3.171  15.992  0.00  0.00    +0.000 OA
ATOM      9  N   UNL     1       5.276   4.867  16.629  0.00  0.00    +0.000 N 
BRANCH   9  10
ATOM     10  C   UNL     1       6.104   5.715  17.538  0.00  0.00    +0.000 C 
ATOM     11  C   UNL     1       6.562   7.071  16.986  0.00  0.00    +0.000 C 
ATOM     12  C   UNL     1       7.389   7.832  18.020  0.00  0.00    +0.000 C 
ATOM     13  O   UNL     1       8.398   7.012  18.603  0.00  0.00    +0.000 OA
ATOM     14  C   UNL     1       7.853   5.903  19.312  0.00  0.00    +0.000 C 
ATOM     15  C   UNL     1       7.147   4.951  18.357  0.00  0.00    +0.000 C 
ENDBRANCH   9  10
BRANCH   9  16
ATOM     16  C   UNL     1       5.397   5.247  15.202  0.00  0.00    +0.000 C 
BRANCH  16  17
ATOM     17  C   UNL     1       6.696   4.716  14.551  0.00  0.00    +0.000 C 
BRANCH  17  18
ATOM     18  N   UNL     1       6.475   3.813  13.408  0.00  0.00    +0.000 NA
ATOM     19  C   UNL     1       5.063   3.751  13.015  0.00  0.00    +0.000 C 
ATOM     20  C   UNL     1       7.304   4.242  12.279  0.00  0.00    +0.000 C 
ENDBRANCH  17  18
ENDBRANCH  16  17
ENDBRANCH   9  16
ENDBRANCH   5   7
BRANCH   6  21
ATOM     21  C   UNL     1       2.300   5.477  19.021  0.00  0.00    +0.000 C 
BRANCH  21  22
ATOM     22  O   UNL     1       2.721   6.663  19.750  0.00  0.00    +0.000 OA
BRANCH  22  23
ATOM     23  C   UNL     1       2.075   7.842  19.489  0.00  0.00    +0.000 A 
ATOM     24  C   UNL     1       1.271   8.448  20.447  0.00  0.00    +0.000 A 
ATOM     25  C   UNL     1       0.480   9.557  20.120  0.00  0.00    +0.000 A 
ATOM     26  C   UNL     1       0.473  10.063  18.828  0.00  0.00    +0.000 A 
ATOM     27  C   UNL     1       1.267   9.460  17.855  0.00  0.00    +0.000 A 
ATOM     28  C   UNL     1       2.054   8.356  18.180  0.00  0.00    +0.000 A 
ENDBRANCH  22  23
ENDBRANCH  21  22
ENDBRANCH   6  21
TORSDOF 8
ENDMDL
MODEL 5
REMARK VINA RESULT:      -7.1      3.186      6.399
REMARK  Name = 
REMARK  11 active torsions:
REMARK  status: ('A' for Active; 'I' for Inactive)
REMARK    1  A    between atoms: C_1  and  C_2
REMARK    2  A    between atoms: C_5  and  C_6
REMARK    3  A    between atoms: N_8  and  C_9
REMARK    4  A    between atoms: N_8  and  C_14
REMARK    5  A    between atoms: C_9  and  C_10
REMARK    6  A    between atoms: C_10  and  N_11
REMARK    7  A    between atoms: N_11  and  C_12
REMARK    8  A    between atoms: N_11  and  C_13
REMARK    9  A    between atoms: C_20  and  C_21
REMARK   10  A    between atoms: C_21  and  O_22
REMARK   11  A    between atoms: O_22  and  C_23
REMARK                            x       y       z     vdW  Elec       q    Type
REMARK                         _______ _______ _______ _____ _____    ______ ____
ROOT
ATOM      1  C   UNL     1       1.018   8.874  21.196  0.00  0.00    +0.000 C 
ATOM      2  C   UNL     1       1.609   8.065  20.107  0.00  0.00    +0.000 A 
ATOM      3  O   UNL     1       2.078   8.798  19.071  0.00  0.00    +0.000 OA
ATOM      4  N   UNL     1       2.612   7.982  18.120  0.00  0.00    +0.000 NA
ATOM      5  C   UNL     1       2.536   6.724  18.577  0.00  0.00    +0.000 A 
ATOM      6  C   UNL     1       1.824   6.718  19.861  0.00  0.00    +0.000 A 
ENDROOT
BRANCH   5   7
ATOM      7  C   UNL     1       3.053   5.579  17.787  0.00  0.00    +0.000 C 
ATOM      8  O   UNL     1       2.224   4.796  17.314  0.00  0.00    +0.000 OA
ATOM      9  N   UNL     1       4.444   5.348  17.546  0.00  0.00    +0.000 N 
BRANCH   9  10
ATOM     10  C   UNL     1       5.651   6.043  18.084  0.00  0.00    +0.000 C 
ATOM     11  C   UNL     1       6.278   7.122  17.192  0.00  0.00    +0.000 C 
ATOM     12  C   UNL     1       7.494   7.753  17.867  0.00  0.00    +0.000 C 
ATOM     13  O   UNL     1       8.382   6.770  18.391  0.00  0.00    +0.000 OA
ATOM     14  C   UNL     1       7.772   5.972  19.402  0.00  0.00    +0.000 C 
ATOM     15  C   UNL     1       6.642   5.137  18.816  0.00  0.00    +0.000 C 
ENDBRANCH   9  10
BRANCH   9  16
ATOM     16  C   UNL     1       4.766   4.303  16.547  0.00  0.00    +0.000 C 
BRANCH  16  17
ATOM     17  C   UNL     1       4.838   4.856  15.104  0.00  0.00    +0.000 C 
BRANCH  17  18
ATOM     18  N   UNL     1       6.158   4.711  14.466  0.00  0.00    +0.000 NA
ATOM     19  C   UNL     1       7.183   4.252  15.410  0.00  0.00    +0.000 C 
ATOM     20  C   UNL     1       6.054   3.787  13.333  0.00  0.00    +0.000 C 
ENDBRANCH  17  18
ENDBRANCH  16  17
ENDBRANCH   9  16
ENDBRANCH   5   7
BRANCH   6  21
ATOM     21  C   UNL     1       1.486   5.558  20.771  0.00  0.00    +0.000 C 
BRANCH  21  22
ATOM     22  O   UNL     1       2.556   4.666  21.186  0.00  0.00    +0.000 OA
BRANCH  22  23
ATOM     23  C   UNL     1       2.737   3.505  20.480  0.00  0.00    +0.000 A 
ATOM     24  C   UNL     1       4.012   3.043  20.174  0.00  0.00    +0.000 A 
ATOM     25  C   UNL     1       4.189   1.954  19.310  0.00  0.00    +0.000 A 
ATOM     26  C   UNL     1       3.096   1.327  18.731  0.00  0.00    +0.000 A 
ATOM     27  C   UNL     1       1.813   1.786  19.022  0.00  0.00    +0.000 A 
ATOM     28  C   UNL     1       1.635   2.870  19.881  0.00  0.00    +0.000 A 
ENDBRANCH  22  23
ENDBRANCH  21  22
ENDBRANCH   6  21
TORSDOF 8
ENDMDL
MODEL 6
REMARK VINA RESULT:      -7.0      0.769      1.181
REMARK  Name = 
REMARK  11 active torsions:
REMARK  status: ('A' for Active; 'I' for Inactive)
REMARK    1  A    between atoms: C_1  and  C_2
REMARK    2  A    between atoms: C_5  and  C_6
REMARK    3  A    between atoms: N_8  and  C_9
REMARK    4  A    between atoms: N_8  and  C_14
REMARK    5  A    between atoms: C_9  and  C_10
REMARK    6  A    between atoms: C_10  and  N_11
REMARK    7  A    between atoms: N_11  and  C_12
REMARK    8  A    between atoms: N_11  and  C_13
REMARK    9  A    between atoms: C_20  and  C_21
REMARK   10  A    between atoms: C_21  and  O_22
REMARK   11  A    between atoms: O_22  and  C_23
REMARK                            x       y       z     vdW  Elec       q    Type
REMARK                         _______ _______ _______ _____ _____    ______ ____
ROOT
ATOM      1  C   UNL     1      -0.483   9.695  22.197  0.00  0.00    +0.000 C 
ATOM      2  C   UNL     1       0.472   9.006  21.301  0.00  0.00    +0.000 A 
ATOM      3  O   UNL     1       1.159   8.005  21.897  0.00  0.00    +0.000 OA
ATOM      4  N   UNL     1       2.005   7.418  21.006  0.00  0.00    +0.000 NA
ATOM      5  C   UNL     1       1.815   8.010  19.818  0.00  0.00    +0.000 A 
ATOM      6  C   UNL     1       0.855   9.110  19.973  0.00  0.00    +0.000 A 
ENDROOT
BRANCH   5   7
ATOM      7  C   UNL     1       2.573   7.591  18.612  0.00  0.00    +0.000 C 
ATOM      8  O   UNL     1       3.001   8.482  17.873  0.00  0.00    +0.000 OA
ATOM      9  N   UNL     1       2.831   6.225  18.275  0.00  0.00    +0.000 N 
BRANCH   9  10
ATOM     10  C   UNL     1       2.340   4.961  18.902  0.00  0.00    +0.000 C 
ATOM     11  C   UNL     1       3.310   4.241  19.847  0.00  0.00    +0.000 C 
ATOM     12  C   UNL     1       2.678   2.974  20.420  0.00  0.00    +0.000 C 
ATOM     13  O   UNL     1       2.071   2.177  19.407  0.00  0.00    +0.000 OA
ATOM     14  C   UNL     1       1.005   2.855  18.749  0.00  0.00    +0.000 C 
ATOM     15  C   UNL     1       1.531   4.054  17.973  0.00  0.00    +0.000 C 
ENDBRANCH   9  10
BRANCH   9  16
ATOM     16  C   UNL     1       3.796   5.998  17.175  0.00  0.00    +0.000 C 
BRANCH  16  17
ATOM     17  C   UNL     1       5.264   6.211  17.615  0.00  0.00    +0.000 C 
BRANCH  17  18
ATOM     18  N   UNL     1       6.087   4.990  17.592  0.00  0.00    +0.000 NA
ATOM     19  C   UNL     1       6.453   4.593  16.228  0.00  0.00    +0.000 C 
ATOM     20  C   UNL     1       7.287   5.193  18.408  0.00  0.00    +0.000 C 
ENDBRANCH  17  18
ENDBRANCH  16  17
ENDBRANCH   9  16
ENDBRANCH   5   7
BRANCH   6  21
ATOM     21  C   UNL     1       0.314  10.071  18.938  0.00  0.00    +0.000 C 
BRANCH  21  22
ATOM     22  O   UNL     1      -0.978  10.695  19.178  0.00  0.00    +0.000 OA
BRANCH  22  23
ATOM     23  C   UNL     1      -1.859  10.773  18.132  0.00  0.00    +0.000 A 
ATOM     24  C   UNL     1      -2.980  11.593  18.197  0.00  0.00    +0.000 A 
ATOM     25  C   UNL     1      -3.964  11.540  17.201  0.00  0.00    +0.000 A 
ATOM     26  C   UNL     1      -3.844  10.657  16.137  0.00  0.00    +0.000 A 
ATOM     27  C   UNL     1      -2.731   9.824  16.064  0.00  0.00    +0.000 A 
ATOM     28  C   UNL     1      -1.751   9.875  17.056  0.00  0.00    +0.000 A 
ENDBRANCH  22  23
ENDBRANCH  21  22
ENDBRANCH   6  21
TORSDOF 8
ENDMDL
MODEL 7
REMARK VINA RESULT:      -7.0      1.574      2.233
REMARK  Name = 
REMARK  11 active torsions:
REMARK  status: ('A' for Active; 'I' for Inactive)
REMARK    1  A    between atoms: C_1  and  C_2
REMARK    2  A    between atoms: C_5  and  C_6
REMARK    3  A    between atoms: N_8  and  C_9
REMARK    4  A    between atoms: N_8  and  C_14
REMARK    5  A    between atoms: C_9  and  C_10
REMARK    6  A    between atoms: C_10  and  N_11
REMARK    7  A    between atoms: N_11  and  C_12
REMARK    8  A    between atoms: N_11  and  C_13
REMARK    9  A    between atoms: C_20  and  C_21
REMARK   10  A    between atoms: C_21  and  O_22
REMARK   11  A    between atoms: O_22  and  C_23
REMARK                            x       y       z     vdW  Elec       q    Type
REMARK                         _______ _______ _______ _____ _____    ______ ____
ROOT
ATOM      1  C   UNL     1       0.486   8.855  21.285  0.00  0.00    +0.000 C 
ATOM      2  C   UNL     1       1.397   8.049  20.443  0.00  0.00    +0.000 A 
ATOM      3  O   UNL     1       1.801   6.895  21.020  0.00  0.00    +0.000 OA
ATOM      4  N   UNL     1       2.626   6.210  20.179  0.00  0.00    +0.000 NA
ATOM      5  C   UNL     1       2.701   6.904  19.034  0.00  0.00    +0.000 A 
ATOM      6  C   UNL     1       1.956   8.160  19.180  0.00  0.00    +0.000 A 
ENDROOT
BRANCH   5   7
ATOM      7  C   UNL     1       3.510   6.421  17.887  0.00  0.00    +0.000 C 
ATOM      8  O   UNL     1       4.089   7.271  17.203  0.00  0.00    +0.000 OA
ATOM      9  N   UNL     1       3.654   5.040  17.546  0.00  0.00    +0.000 N 
BRANCH   9  10
ATOM     10  C   UNL     1       2.985   3.827  18.105  0.00  0.00    +0.000 C 
ATOM     11  C   UNL     1       1.453   3.794  18.035  0.00  0.00    +0.000 C 
ATOM     12  C   UNL     1       0.905   2.498  18.632  0.00  0.00    +0.000 C 
ATOM     13  O   UNL     1       1.488   2.207  19.898  0.00  0.00    +0.000 OA
ATOM     14  C   UNL     1       2.896   2.008  19.815  0.00  0.00    +0.000 C 
ATOM     15  C   UNL     1       3.596   3.295  19.402  0.00  0.00    +0.000 C 
ENDBRANCH   9  10
BRANCH   9  16
ATOM     16  C   UNL     1       4.680   4.725  16.525  0.00  0.00    +0.000 C 
BRANCH  16  17
ATOM     17  C   UNL     1       6.041   4.336  17.147  0.00  0.00    +0.000 C 
BRANCH  17  18
ATOM     18  N   UNL     1       7.205   4.965  16.499  0.00  0.00    +0.000 NA
ATOM     19  C   UNL     1       7.103   4.947  15.036  0.00  0.00    +0.000 C 
ATOM     20  C   UNL     1       7.351   6.340  16.986  0.00  0.00    +0.000 C 
ENDBRANCH  17  18
ENDBRANCH  16  17
ENDBRANCH   9  16
ENDBRANCH   5   7
BRANCH   6  21
ATOM     21  C   UNL     1       1.740   9.275  18.180  0.00  0.00    +0.000 C 
BRANCH  21  22
ATOM     22  O   UNL     1       0.381   9.583  17.765  0.00  0.00    +0.000 OA
BRANCH  22  23
ATOM     23  C   UNL     1      -0.281  10.586  18.424  0.00  0.00    +0.000 A 
ATOM     24  C   UNL     1      -1.670  10.626  18.458  0.00  0.00    +0.000 A 
ATOM     25  C   UNL     1      -2.340  11.740  18.983  0.00  0.00    +0.000 A 
ATOM     26  C   UNL     1      -1.629  12.830  19.464  0.00  0.00    +0.000 A 
ATOM     27  C   UNL     1      -0.236  12.806  19.427  0.00  0.00    +0.000 A 
ATOM     28  C   UNL     1       0.431  11.699  18.904  0.00  0.00    +0.000 A 
ENDBRANCH  22  23
ENDBRANCH  21  22
ENDBRANCH   6  21
TORSDOF 8
ENDMDL
MODEL 8
REMARK VINA RESULT:      -6.9      2.247      4.330
REMARK  Name = 
REMARK  11 active torsions:
REMARK  status: ('A' for Active; 'I' for Inactive)
REMARK    1  A    between atoms: C_1  and  C_2
REMARK    2  A    between atoms: C_5  and  C_6
REMARK    3  A    between atoms: N_8  and  C_9
REMARK    4  A    between atoms: N_8  and  C_14
REMARK    5  A    between atoms: C_9  and  C_10
REMARK    6  A    between atoms: C_10  and  N_11
REMARK    7  A    between atoms: N_11  and  C_12
REMARK    8  A    between atoms: N_11  and  C_13
REMARK    9  A    between atoms: C_20  and  C_21
REMARK   10  A    between atoms: C_21  and  O_22
REMARK   11  A    between atoms: O_22  and  C_23
REMARK                            x       y       z     vdW  Elec       q    Type
REMARK                         _______ _______ _______ _____ _____    ______ ____
ROOT
ATOM      1  C   UNL     1       1.277   8.397  21.090  0.00  0.00    +0.000 C 
ATOM      2  C   UNL     1       1.814   7.177  20.449  0.00  0.00    +0.000 A 
ATOM      3  O   UNL     1       1.738   6.071  21.223  0.00  0.00    +0.000 OA
ATOM      4  N   UNL     1       2.242   4.994  20.558  0.00  0.00    +0.000 NA
ATOM      5  C   UNL     1       2.588   5.404  19.329  0.00  0.00    +0.000 A 
ATOM      6  C   UNL     1       2.384   6.854  19.227  0.00  0.00    +0.000 A 
ENDROOT
BRANCH   5   7
ATOM      7  C   UNL     1       3.158   4.465  18.330  0.00  0.00    +0.000 C 
ATOM      8  O   UNL     1       2.446   3.527  17.961  0.00  0.00    +0.000 OA
ATOM      9  N   UNL     1       4.471   4.599  17.779  0.00  0.00    +0.000 N 
BRANCH   9  10
ATOM     10  C   UNL     1       5.577   5.543  18.122  0.00  0.00    +0.000 C 
ATOM     11  C   UNL     1       5.752   6.760  17.206  0.00  0.00    +0.000 C 
ATOM     12  C   UNL     1       6.908   7.640  17.677  0.00  0.00    +0.000 C 
ATOM     13  O   UNL     1       8.080   6.878  17.948  0.00  0.00    +0.000 OA
ATOM     14  C   UNL     1       7.884   5.934  18.997  0.00  0.00    +0.000 C 
ATOM     15  C   UNL     1       6.874   4.874  18.582  0.00  0.00    +0.000 C 
ENDBRANCH   9  10
BRANCH   9  16
ATOM     16  C   UNL     1       4.787   3.720  16.629  0.00  0.00    +0.000 C 
BRANCH  16  17
ATOM     17  C   UNL     1       5.075   4.512  15.333  0.00  0.00    +0.000 C 
BRANCH  17  18
ATOM     18  N   UNL     1       6.203   3.990  14.542  0.00  0.00    +0.000 NA
ATOM     19  C   UNL     1       5.828   3.725  13.149  0.00  0.00    +0.000 C 
ATOM     20  C   UNL     1       7.322   4.935  14.602  0.00  0.00    +0.000 C 
ENDBRANCH  17  18
ENDBRANCH  16  17
ENDBRANCH   9  16
ENDBRANCH   5   7
BRANCH   6  21
ATOM     21  C   UNL     1       2.622   7.782  18.056  0.00  0.00    +0.000 C 
BRANCH  21  22
ATOM     22  O   UNL     1       1.485   8.486  17.486  0.00  0.00    +0.000 OA
BRANCH  22  23
ATOM     23  C   UNL     1       1.149   9.703  18.019  0.00  0.00    +0.000 A 
ATOM     24  C   UNL     1      -0.180  10.060  18.213  0.00  0.00    +0.000 A 
ATOM     25  C   UNL     1      -0.523  11.364  18.595  0.00  0.00    +0.000 A 
ATOM     26  C   UNL     1       0.459  12.328  18.773  0.00  0.00    +0.000 A 
ATOM     27  C   UNL     1       1.794  11.987  18.574  0.00  0.00    +0.000 A 
ATOM     28  C   UNL     1       2.136  10.690  18.192  0.00  0.00    +0.000 A 
ENDBRANCH  22  23
ENDBRANCH  21  22
ENDBRANCH   6  21
TORSDOF 8
ENDMDL
MODEL 9
REMARK VINA RESULT:      -6.9      2.312      4.600
REMARK  Name = 
REMARK  11 active torsions:
REMARK  status: ('A' for Active; 'I' for Inactive)
REMARK    1  A    between atoms: C_1  and  C_2
REMARK    2  A    between atoms: C_5  and  C_6
REMARK    3  A    between atoms: N_8  and  C_9
REMARK    4  A    between atoms: N_8  and  C_14
REMARK    5  A    between atoms: C_9  and  C_10
REMARK    6  A    between atoms: C_10  and  N_11
REMARK    7  A    between atoms: N_11  and  C_12
REMARK    8  A    between atoms: N_11  and  C_13
REMARK    9  A    between atoms: C_20  and  C_21
REMARK   10  A    between atoms: C_21  and  O_22
REMARK   11  A    between atoms: O_22  and  C_23
REMARK                            x       y       z     vdW  Elec       q    Type
REMARK                         _______ _______ _______ _____ _____    ______ ____
ROOT
ATOM      1  C   UNL     1       1.379  11.306  18.359  0.00  0.00    +0.000 C 
ATOM      2  C   UNL     1       1.706   9.876  18.554  0.00  0.00    +0.000 A 
ATOM      3  O   UNL     1       2.179   9.265  17.444  0.00  0.00    +0.000 OA
ATOM      4  N   UNL     1       2.463   7.959  17.709  0.00  0.00    +0.000 NA
ATOM      5  C   UNL     1       2.226   7.751  19.012  0.00  0.00    +0.000 A 
ATOM      6  C   UNL     1       1.663   8.971  19.603  0.00  0.00    +0.000 A 
ENDROOT
BRANCH   5   7
ATOM      7  C   UNL     1       2.455   6.425  19.640  0.00  0.00    +0.000 C 
ATOM      8  O   UNL     1       1.620   6.034  20.461  0.00  0.00    +0.000 OA
ATOM      9  N   UNL     1       3.576   5.590  19.337  0.00  0.00    +0.000 N 
BRANCH   9  10
ATOM     10  C   UNL     1       4.782   5.851  18.496  0.00  0.00    +0.000 C 
ATOM     11  C   UNL     1       4.662   5.528  17.002  0.00  0.00    +0.000 C 
ATOM     12  C   UNL     1       5.960   5.850  16.264  0.00  0.00    +0.000 C 
ATOM     13  O   UNL     1       7.099   5.321  16.937  0.00  0.00    +0.000 OA
ATOM     14  C   UNL     1       7.267   5.875  18.238  0.00  0.00    +0.000 C 
ATOM     15  C   UNL     1       6.114   5.471  19.146  0.00  0.00    +0.000 C 
ENDBRANCH   9  10
BRANCH   9  16
ATOM     16  C   UNL     1       3.522   4.210  19.873  0.00  0.00    +0.000 C 
BRANCH  16  17
ATOM     17  C   UNL     1       2.797   3.228  18.923  0.00  0.00    +0.000 C 
BRANCH  17  18
ATOM     18  N   UNL     1       1.897   2.281  19.604  0.00  0.00    +0.000 NA
ATOM     19  C   UNL     1       1.639   2.665  20.997  0.00  0.00    +0.000 C 
ATOM     20  C   UNL     1       0.639   2.180  18.858  0.00  0.00    +0.000 C 
ENDBRANCH  17  18
ENDBRANCH  16  17
ENDBRANCH   9  16
ENDBRANCH   5   7
BRANCH   6  21
ATOM     21  C   UNL     1       1.233   9.244  21.027  0.00  0.00    +0.000 C 
BRANCH  21  22
ATOM     22  O   UNL     1      -0.188   9.279  21.329  0.00  0.00    +0.000 OA
BRANCH  22  23
ATOM     23  C   UNL     1      -0.766  10.500  21.564  0.00  0.00    +0.000 A 
ATOM     24  C   UNL     1      -1.046  10.925  22.857  0.00  0.00    +0.000 A 
ATOM     25  C   UNL     1      -1.788  12.092  23.081  0.00  0.00    +0.000 A 
ATOM     26  C   UNL     1      -2.272  12.837  22.015  0.00  0.00    +0.000 A 
ATOM     27  C   UNL     1      -2.006  12.417  20.714  0.00  0.00    +0.000 A 
ATOM     28  C   UNL     1      -1.268  11.256  20.489  0.00  0.00    +0.000 A 
ENDBRANCH  22  23
ENDBRANCH  21  22
ENDBRANCH   6  21
TORSDOF 8
ENDMDL
