MODEL 1
REMARK VINA RESULT:      -8.5      0.000      0.000
REMARK  Name = 
REMARK  6 active torsions:
REMARK  status: ('A' for Active; 'I' for Inactive)
REMARK    1  A    between atoms: C_2  and  C_17
REMARK    2  A    between atoms: N_3  and  C_4
REMARK    3  A    between atoms: C_4  and  C_5
REMARK    4  A    between atoms: C_4  and  C_12
REMARK    5  A    between atoms: C_5  and  C_6
REMARK    6  A    between atoms: C_12  and  C_14
REMARK                            x       y       z     vdW  Elec       q    Type
REMARK                         _______ _______ _______ _____ _____    ______ ____
ROOT
ATOM      1  C   UNL     1       6.094   4.256  17.001  0.00  0.00    +0.000 C 
ENDROOT
BRANCH   1   4
ATOM      2  O   UNL     1       3.928   2.401  17.199  0.00  0.00    +0.000 OA
ATOM      3  C   UNL     1       4.094   3.220  18.097  0.00  0.00    +0.000 C 
ATOM      4  N   UNL     1       5.136   4.112  18.108  0.00  0.00    +0.000 N 
ATOM      5  H   UNL     1       5.371   4.606  18.963  0.00  0.00    +0.000 HD
BRANCH   3   6
ATOM      6  C   UNL     1       3.144   3.299  19.247  0.00  0.00    +0.000 A 
ATOM      7  C   UNL     1       3.475   2.674  20.455  0.00  0.00    +0.000 A 
ATOM      8  C   UNL     1       2.550   2.636  21.505  0.00  0.00    +0.000 A 
ATOM      9  C   UNL     1       1.290   3.214  21.348  0.00  0.00    +0.000 A 
ATOM     10  C   UNL     1       0.961   3.852  20.154  0.00  0.00    +0.000 A 
ATOM     11  C   UNL     1       1.885   3.900  19.105  0.00  0.00    +0.000 A 
ENDBRANCH   3   6
ENDBRANCH   1   4
BRANCH   1  12
ATOM     12  C   UNL     1       7.393   4.795  17.610  0.00  0.00    +0.000 C 
ATOM     13  O   UNL     1       8.395   4.079  17.730  0.00  0.00    +0.000 OA
BRANCH  12  14
ATOM     14  C   UNL     1       7.413   6.253  18.017  0.00  0.00    +0.000 C 
ATOM     15  F   UNL     1       8.241   6.505  19.066  0.00  0.00    +0.000 F 
ATOM     16  F   UNL     1       7.832   7.063  17.004  0.00  0.00    +0.000 F 
ENDBRANCH  12  14
ENDBRANCH   1  12
BRANCH   1  17
ATOM     17  C   UNL     1       5.531   5.123  15.855  0.00  0.00    +0.000 C 
BRANCH  17  18
ATOM     18  C   UNL     1       6.044   4.758  14.479  0.00  0.00    +0.000 A 
ATOM     19  C   UNL     1       5.357   3.838  13.673  0.00  0.00    +0.000 A 
ATOM     20  C   UNL     1       5.892   3.430  12.450  0.00  0.00    +0.000 A 
ATOM     21  C   UNL     1       7.108   3.949  12.012  0.00  0.00    +0.000 A 
ATOM     22  C   UNL     1       7.772   4.905  12.778  0.00  0.00    +0.000 A 
ATOM     23  C   UNL     1       7.239   5.313  14.002  0.00  0.00    +0.000 A 
ENDBRANCH  17  18
ENDBRANCH   1  17
TORSDOF 6
ENDMDL
MODEL 2
REMARK VINA RESULT:      -8.3      0.621      1.311
REMARK  Name = 
REMARK  6 active torsions:
REMARK  status: ('A' for Active; 'I' for Inactive)
REMARK    1  A    between atoms: C_2  and  C_17
REMARK    2  A    between atoms: N_3  and  C_4
REMARK    3  A    between atoms: C_4  and  C_5
REMARK    4  A    between atoms: C_4  and  C_12
REMARK    5  A    between atoms: C_5  and  C_6
REMARK    6  A    between atoms: C_12  and  C_14
REMARK                            x       y       z     vdW  Elec       q    Type
REMARK                         _______ _______ _______ _____ _____    ______ ____
ROOT
ATOM      1  C   UNL     1       6.150   4.317  16.965  0.00  0.00    +0.000 C 
ENDROOT
BRANCH   1   4
ATOM      2  O   UNL     1       4.016   2.428  17.192  0.00  0.00    +0.000 OA
ATOM      3  C   UNL     1       4.118   3.315  18.034  0.00  0.00    +0.000 C 
ATOM      4  N   UNL     1       5.138   4.231  18.030  0.00  0.00    +0.000 N 
ATOM      5  H   UNL     1       5.319   4.793  18.857  0.00  0.00    +0.000 HD
BRANCH   3   6
ATOM      6  C   UNL     1       3.108   3.454  19.125  0.00  0.00    +0.000 A 
ATOM      7  C   UNL     1       3.062   4.638  19.870  0.00  0.00    +0.000 A 
ATOM      8  C   UNL     1       2.204   4.745  20.971  0.00  0.00    +0.000 A 
ATOM      9  C   UNL     1       1.395   3.667  21.334  0.00  0.00    +0.000 A 
ATOM     10  C   UNL     1       1.424   2.492  20.585  0.00  0.00    +0.000 A 
ATOM     11  C   UNL     1       2.274   2.385  19.480  0.00  0.00    +0.000 A 
ENDBRANCH   3   6
ENDBRANCH   1   4
BRANCH   1  12
ATOM     12  C   UNL     1       7.434   4.842  17.618  0.00  0.00    +0.000 C 
ATOM     13  O   UNL     1       8.428   4.120  17.758  0.00  0.00    +0.000 OA
BRANCH  12  14
ATOM     14  C   UNL     1       7.449   6.294  18.044  0.00  0.00    +0.000 C 
ATOM     15  F   UNL     1       8.305   6.543  19.072  0.00  0.00    +0.000 F 
ATOM     16  F   UNL     1       7.827   7.123  17.030  0.00  0.00    +0.000 F 
ENDBRANCH  12  14
ENDBRANCH   1  12
BRANCH   1  17
ATOM     17  C   UNL     1       5.664   5.163  15.769  0.00  0.00    +0.000 C 
BRANCH  17  18
ATOM     18  C   UNL     1       6.207   4.725  14.426  0.00  0.00    +0.000 A 
ATOM     19  C   UNL     1       7.362   5.312  13.889  0.00  0.00    +0.000 A 
ATOM     20  C   UNL     1       7.795   4.974  12.606  0.00  0.00    +0.000 A 
ATOM     21  C   UNL     1       7.091   4.038  11.854  0.00  0.00    +0.000 A 
ATOM     22  C   UNL     1       5.974   3.408  12.399  0.00  0.00    +0.000 A 
ATOM     23  C   UNL     1       5.539   3.744  13.682  0.00  0.00    +0.000 A 
ENDBRANCH  17  18
ENDBRANCH   1  17
TORSDOF 6
ENDMDL
MODEL 3
REMARK VINA RESULT:      -8.2      0.612      1.233
REMARK  Name = 
REMARK  6 active torsions:
REMARK  status: ('A' for Active; 'I' for Inactive)
REMARK    1  A    between atoms: C_2  and  C_17
REMARK    2  A    between atoms: N_3  and  C_4
REMARK    3  A    between atoms: C_4  and  C_5
REMARK    4  A    between atoms: C_4  and  C_12
REMARK    5  A    between atoms: C_5  and  C_6
REMARK    6  A    between atoms: C_12  and  C_14
REMARK                            x       y       z     vdW  Elec       q    Type
REMARK                         _______ _______ _______ _____ _____    ______ ____
ROOT
ATOM      1  C   UNL     1       6.207   4.267  17.010  0.00  0.00    +0.000 C 
ENDROOT
BRANCH   1   4
ATOM      2  O   UNL     1       3.993   2.466  17.188  0.00  0.00    +0.000 OA
ATOM      3  C   UNL     1       4.164   3.290  18.081  0.00  0.00    +0.000 C 
ATOM      4  N   UNL     1       5.226   4.158  18.101  0.00  0.00    +0.000 N 
ATOM      5  H   UNL     1       5.458   4.656  18.955  0.00  0.00    +0.000 HD
BRANCH   3   6
ATOM      6  C   UNL     1       3.196   3.404  19.213  0.00  0.00    +0.000 A 
ATOM      7  C   UNL     1       2.361   2.322  19.512  0.00  0.00    +0.000 A 
ATOM      8  C   UNL     1       1.367   2.447  20.490  0.00  0.00    +0.000 A 
ATOM      9  C   UNL     1       1.201   3.657  21.166  0.00  0.00    +0.000 A 
ATOM     10  C   UNL     1       2.040   4.733  20.884  0.00  0.00    +0.000 A 
ATOM     11  C   UNL     1       3.039   4.608  19.913  0.00  0.00    +0.000 A 
ENDBRANCH   3   6
ENDBRANCH   1   4
BRANCH   1  12
ATOM     12  C   UNL     1       7.495   4.822  17.629  0.00  0.00    +0.000 C 
ATOM     13  O   UNL     1       8.497   4.113  17.773  0.00  0.00    +0.000 OA
BRANCH  12  14
ATOM     14  C   UNL     1       7.502   6.285  18.013  0.00  0.00    +0.000 C 
ATOM     15  F   UNL     1       8.352   6.566  19.038  0.00  0.00    +0.000 F 
ATOM     16  F   UNL     1       7.883   7.086  16.979  0.00  0.00    +0.000 F 
ENDBRANCH  12  14
ENDBRANCH   1  12
BRANCH   1  17
ATOM     17  C   UNL     1       5.669   5.101  15.827  0.00  0.00    +0.000 C 
BRANCH  17  18
ATOM     18  C   UNL     1       6.208   4.694  14.473  0.00  0.00    +0.000 A 
ATOM     19  C   UNL     1       7.357   5.297  13.943  0.00  0.00    +0.000 A 
ATOM     20  C   UNL     1       7.786   4.988  12.650  0.00  0.00    +0.000 A 
ATOM     21  C   UNL     1       7.083   4.064  11.883  0.00  0.00    +0.000 A 
ATOM     22  C   UNL     1       5.971   3.418  12.420  0.00  0.00    +0.000 A 
ATOM     23  C   UNL     1       5.541   3.726  13.712  0.00  0.00    +0.000 A 
ENDBRANCH  17  18
ENDBRANCH   1  17
TORSDOF 6
ENDMDL
MODEL 4
REMARK VINA RESULT:      -8.2      0.325      1.077
REMARK  Name = 
REMARK  6 active torsions:
REMARK  status: ('A' for Active; 'I' for Inactive)
REMARK    1  A    between atoms: C_2  and  C_17
REMARK    2  A    between atoms: N_3  and  C_4
REMARK    3  A    between atoms: C_4  and  C_5
REMARK    4  A    between atoms: C_4  and  C_12
REMARK    5  A    between atoms: C_5  and  C_6
REMARK    6  A    between atoms: C_12  and  C_14
REMARK                            x       y       z     vdW  Elec       q    Type
REMARK                         _______ _______ _______ _____ _____    ______ ____
ROOT
ATOM      1  C   UNL     1       6.222   4.130  16.962  0.00  0.00    +0.000 C 
ENDROOT
BRANCH   1   4
ATOM      2  O   UNL     1       3.475   3.400  16.654  0.00  0.00    +0.000 OA
ATOM      3  C   UNL     1       3.936   3.521  17.785  0.00  0.00    +0.000 C 
ATOM      4  N   UNL     1       5.253   3.818  18.024  0.00  0.00    +0.000 N 
ATOM      5  H   UNL     1       5.643   3.684  18.952  0.00  0.00    +0.000 HD
BRANCH   3   6
ATOM      6  C   UNL     1       3.066   3.359  18.988  0.00  0.00    +0.000 A 
ATOM      7  C   UNL     1       1.764   3.872  18.966  0.00  0.00    +0.000 A 
ATOM      8  C   UNL     1       0.973   3.835  20.120  0.00  0.00    +0.000 A 
ATOM      9  C   UNL     1       1.483   3.292  21.300  0.00  0.00    +0.000 A 
ATOM     10  C   UNL     1       2.772   2.764  21.323  0.00  0.00    +0.000 A 
ATOM     11  C   UNL     1       3.563   2.792  20.170  0.00  0.00    +0.000 A 
ENDBRANCH   3   6
ENDBRANCH   1   4
BRANCH   1  12
ATOM     12  C   UNL     1       7.448   4.742  17.649  0.00  0.00    +0.000 C 
ATOM     13  O   UNL     1       8.469   4.076  17.859  0.00  0.00    +0.000 OA
BRANCH  12  14
ATOM     14  C   UNL     1       7.374   6.207  18.018  0.00  0.00    +0.000 C 
ATOM     15  F   UNL     1       8.170   6.536  19.071  0.00  0.00    +0.000 F 
ATOM     16  F   UNL     1       7.756   7.016  16.990  0.00  0.00    +0.000 F 
ENDBRANCH  12  14
ENDBRANCH   1  12
BRANCH   1  17
ATOM     17  C   UNL     1       5.610   5.021  15.860  0.00  0.00    +0.000 C 
BRANCH  17  18
ATOM     18  C   UNL     1       6.099   4.718  14.461  0.00  0.00    +0.000 A 
ATOM     19  C   UNL     1       5.435   3.786  13.650  0.00  0.00    +0.000 A 
ATOM     20  C   UNL     1       5.953   3.438  12.401  0.00  0.00    +0.000 A 
ATOM     21  C   UNL     1       7.128   4.029  11.944  0.00  0.00    +0.000 A 
ATOM     22  C   UNL     1       7.766   4.997  12.717  0.00  0.00    +0.000 A 
ATOM     23  C   UNL     1       7.250   5.345  13.965  0.00  0.00    +0.000 A 
ENDBRANCH  17  18
ENDBRANCH   1  17
TORSDOF 6
ENDMDL
MODEL 5
REMARK VINA RESULT:      -8.0      1.664      6.075
REMARK  Name = 
REMARK  6 active torsions:
REMARK  status: ('A' for Active; 'I' for Inactive)
REMARK    1  A    between atoms: C_2  and  C_17
REMARK    2  A    between atoms: N_3  and  C_4
REMARK    3  A    between atoms: C_4  and  C_5
REMARK    4  A    between atoms: C_4  and  C_12
REMARK    5  A    between atoms: C_5  and  C_6
REMARK    6  A    between atoms: C_12  and  C_14
REMARK                            x       y       z     vdW  Elec       q    Type
REMARK                         _______ _______ _______ _____ _____    ______ ____
ROOT
ATOM      1  C   UNL     1       6.081   5.255  18.013  0.00  0.00    +0.000 C 
ENDROOT
BRANCH   1   4
ATOM      2  O   UNL     1       5.329   6.462  15.533  0.00  0.00    +0.000 OA
ATOM      3  C   UNL     1       5.959   5.409  15.516  0.00  0.00    +0.000 C 
ATOM      4  N   UNL     1       6.402   4.788  16.655  0.00  0.00    +0.000 N 
ATOM      5  H   UNL     1       7.105   4.058  16.594  0.00  0.00    +0.000 HD
BRANCH   3   6
ATOM      6  C   UNL     1       6.272   4.725  14.226  0.00  0.00    +0.000 A 
ATOM      7  C   UNL     1       7.389   5.132  13.487  0.00  0.00    +0.000 A 
ATOM      8  C   UNL     1       7.634   4.587  12.222  0.00  0.00    +0.000 A 
ATOM      9  C   UNL     1       6.760   3.639  11.688  0.00  0.00    +0.000 A 
ATOM     10  C   UNL     1       5.656   3.217  12.425  0.00  0.00    +0.000 A 
ATOM     11  C   UNL     1       5.412   3.755  13.693  0.00  0.00    +0.000 A 
ENDBRANCH   3   6
ENDBRANCH   1   4
BRANCH   1  12
ATOM     12  C   UNL     1       7.369   5.852  18.591  0.00  0.00    +0.000 C 
ATOM     13  O   UNL     1       8.118   5.188  19.316  0.00  0.00    +0.000 OA
BRANCH  12  14
ATOM     14  C   UNL     1       7.708   7.274  18.199  0.00  0.00    +0.000 C 
ATOM     15  F   UNL     1       8.750   7.790  18.904  0.00  0.00    +0.000 F 
ATOM     16  F   UNL     1       8.056   7.376  16.885  0.00  0.00    +0.000 F 
ENDBRANCH  12  14
ENDBRANCH   1  12
BRANCH   1  17
ATOM     17  C   UNL     1       5.464   4.137  18.881  0.00  0.00    +0.000 C 
BRANCH  17  18
ATOM     18  C   UNL     1       3.974   3.948  18.699  0.00  0.00    +0.000 A 
ATOM     19  C   UNL     1       3.355   2.732  19.024  0.00  0.00    +0.000 A 
ATOM     20  C   UNL     1       1.999   2.535  18.756  0.00  0.00    +0.000 A 
ATOM     21  C   UNL     1       1.246   3.553  18.178  0.00  0.00    +0.000 A 
ATOM     22  C   UNL     1       1.837   4.784  17.903  0.00  0.00    +0.000 A 
ATOM     23  C   UNL     1       3.192   4.983  18.169  0.00  0.00    +0.000 A 
ENDBRANCH  17  18
ENDBRANCH   1  17
TORSDOF 6
ENDMDL
MODEL 6
REMARK VINA RESULT:      -7.9      1.520      6.260
REMARK  Name = 
REMARK  6 active torsions:
REMARK  status: ('A' for Active; 'I' for Inactive)
REMARK    1  A    between atoms: C_2  and  C_17
REMARK    2  A    between atoms: N_3  and  C_4
REMARK    3  A    between atoms: C_4  and  C_5
REMARK    4  A    between atoms: C_4  and  C_12
REMARK    5  A    between atoms: C_5  and  C_6
REMARK    6  A    between atoms: C_12  and  C_14
REMARK                            x       y       z     vdW  Elec       q    Type
REMARK                         _______ _______ _______ _____ _____    ______ ____
ROOT
ATOM      1  C   UNL     1       6.043   5.260  18.091  0.00  0.00    +0.000 C 
ENDROOT
BRANCH   1   4
ATOM      2  O   UNL     1       5.230   6.436  15.615  0.00  0.00    +0.000 OA
ATOM      3  C   UNL     1       5.942   5.436  15.595  0.00  0.00    +0.000 C 
ATOM      4  N   UNL     1       6.419   4.838  16.732  0.00  0.00    +0.000 N 
ATOM      5  H   UNL     1       7.178   4.167  16.673  0.00  0.00    +0.000 HD
BRANCH   3   6
ATOM      6  C   UNL     1       6.326   4.797  14.300  0.00  0.00    +0.000 A 
ATOM      7  C   UNL     1       7.459   5.255  13.619  0.00  0.00    +0.000 A 
ATOM      8  C   UNL     1       7.770   4.751  12.350  0.00  0.00    +0.000 A 
ATOM      9  C   UNL     1       6.945   3.794  11.757  0.00  0.00    +0.000 A 
ATOM     10  C   UNL     1       5.825   3.322  12.438  0.00  0.00    +0.000 A 
ATOM     11  C   UNL     1       5.516   3.817  13.709  0.00  0.00    +0.000 A 
ENDBRANCH   3   6
ENDBRANCH   1   4
BRANCH   1  12
ATOM     12  C   UNL     1       7.279   5.930  18.702  0.00  0.00    +0.000 C 
ATOM     13  O   UNL     1       7.827   5.473  19.712  0.00  0.00    +0.000 OA
BRANCH  12  14
ATOM     14  C   UNL     1       7.826   7.149  17.992  0.00  0.00    +0.000 C 
ATOM     15  F   UNL     1       6.857   8.013  17.585  0.00  0.00    +0.000 F 
ATOM     16  F   UNL     1       8.666   7.872  18.785  0.00  0.00    +0.000 F 
ENDBRANCH  12  14
ENDBRANCH   1  12
BRANCH   1  17
ATOM     17  C   UNL     1       5.486   4.089  18.930  0.00  0.00    +0.000 C 
BRANCH  17  18
ATOM     18  C   UNL     1       3.981   3.943  18.884  0.00  0.00    +0.000 A 
ATOM     19  C   UNL     1       3.243   4.410  17.787  0.00  0.00    +0.000 A 
ATOM     20  C   UNL     1       1.848   4.363  17.800  0.00  0.00    +0.000 A 
ATOM     21  C   UNL     1       1.178   3.834  18.900  0.00  0.00    +0.000 A 
ATOM     22  C   UNL     1       1.902   3.316  19.971  0.00  0.00    +0.000 A 
ATOM     23  C   UNL     1       3.296   3.363  19.960  0.00  0.00    +0.000 A 
ENDBRANCH  17  18
ENDBRANCH   1  17
TORSDOF 6
ENDMDL
MODEL 7
REMARK VINA RESULT:      -7.8      1.323      1.795
REMARK  Name = 
REMARK  6 active torsions:
REMARK  status: ('A' for Active; 'I' for Inactive)
REMARK    1  A    between atoms: C_2  and  C_17
REMARK    2  A    between atoms: N_3  and  C_4
REMARK    3  A    between atoms: C_4  and  C_5
REMARK    4  A    between atoms: C_4  and  C_12
REMARK    5  A    between atoms: C_5  and  C_6
REMARK    6  A    between atoms: C_12  and  C_14
REMARK                            x       y       z     vdW  Elec       q    Type
REMARK                         _______ _______ _______ _____ _____    ______ ____
ROOT
ATOM      1  C   UNL     1       5.980   5.296  16.765  0.00  0.00    +0.000 C 
ENDROOT
BRANCH   1   4
ATOM      2  O   UNL     1       4.381   2.947  17.086  0.00  0.00    +0.000 OA
ATOM      3  C   UNL     1       4.192   3.903  17.831  0.00  0.00    +0.000 C 
ATOM      4  N   UNL     1       4.945   5.048  17.781  0.00  0.00    +0.000 N 
ATOM      5  H   UNL     1       4.914   5.710  18.550  0.00  0.00    +0.000 HD
BRANCH   3   6
ATOM      6  C   UNL     1       3.098   3.875  18.849  0.00  0.00    +0.000 A 
ATOM      7  C   UNL     1       2.023   2.996  18.676  0.00  0.00    +0.000 A 
ATOM      8  C   UNL     1       0.933   3.036  19.553  0.00  0.00    +0.000 A 
ATOM      9  C   UNL     1       0.911   3.958  20.600  0.00  0.00    +0.000 A 
ATOM     10  C   UNL     1       1.986   4.824  20.787  0.00  0.00    +0.000 A 
ATOM     11  C   UNL     1       3.081   4.783  19.917  0.00  0.00    +0.000 A 
ENDBRANCH   3   6
ENDBRANCH   1   4
BRANCH   1  12
ATOM     12  C   UNL     1       6.916   6.364  17.341  0.00  0.00    +0.000 C 
ATOM     13  O   UNL     1       7.079   7.451  16.774  0.00  0.00    +0.000 OA
BRANCH  12  14
ATOM     14  C   UNL     1       7.597   6.051  18.655  0.00  0.00    +0.000 C 
ATOM     15  F   UNL     1       8.241   4.852  18.653  0.00  0.00    +0.000 F 
ATOM     16  F   UNL     1       8.537   6.982  18.981  0.00  0.00    +0.000 F 
ENDBRANCH  12  14
ENDBRANCH   1  12
BRANCH   1  17
ATOM     17  C   UNL     1       5.372   5.667  15.395  0.00  0.00    +0.000 C 
BRANCH  17  18
ATOM     18  C   UNL     1       5.986   4.943  14.217  0.00  0.00    +0.000 A 
ATOM     19  C   UNL     1       7.250   5.302  13.728  0.00  0.00    +0.000 A 
ATOM     20  C   UNL     1       7.762   4.697  12.578  0.00  0.00    +0.000 A 
ATOM     21  C   UNL     1       7.026   3.718  11.917  0.00  0.00    +0.000 A 
ATOM     22  C   UNL     1       5.793   3.314  12.425  0.00  0.00    +0.000 A 
ATOM     23  C   UNL     1       5.279   3.918  13.574  0.00  0.00    +0.000 A 
ENDBRANCH  17  18
ENDBRANCH   1  17
TORSDOF 6
ENDMDL
MODEL 8
REMARK VINA RESULT:      -7.8      1.899      5.967
REMARK  Name = 
REMARK  6 active torsions:
REMARK  status: ('A' for Active; 'I' for Inactive)
REMARK    1  A    between atoms: C_2  and  C_17
REMARK    2  A    between atoms: N_3  and  C_4
REMARK    3  A    between atoms: C_4  and  C_5
REMARK    4  A    between atoms: C_4  and  C_12
REMARK    5  A    between atoms: C_5  and  C_6
REMARK    6  A    between atoms: C_12  and  C_14
REMARK                            x       y       z     vdW  Elec       q    Type
REMARK                         _______ _______ _______ _____ _____    ______ ____
ROOT
ATOM      1  C   UNL     1       6.188   5.466  18.062  0.00  0.00    +0.000 C 
ENDROOT
BRANCH   1   4
ATOM      2  O   UNL     1       5.231   6.649  15.642  0.00  0.00    +0.000 OA
ATOM      3  C   UNL     1       5.917   5.634  15.578  0.00  0.00    +0.000 C 
ATOM      4  N   UNL     1       6.458   5.030  16.683  0.00  0.00    +0.000 N 
ATOM      5  H   UNL     1       7.197   4.342  16.575  0.00  0.00    +0.000 HD
BRANCH   3   6
ATOM      6  C   UNL     1       6.195   4.980  14.264  0.00  0.00    +0.000 A 
ATOM      7  C   UNL     1       5.315   4.003  13.784  0.00  0.00    +0.000 A 
ATOM      8  C   UNL     1       5.617   3.296  12.615  0.00  0.00    +0.000 A 
ATOM      9  C   UNL     1       6.803   3.557  11.927  0.00  0.00    +0.000 A 
ATOM     10  C   UNL     1       7.675   4.540  12.391  0.00  0.00    +0.000 A 
ATOM     11  C   UNL     1       7.372   5.254  13.554  0.00  0.00    +0.000 A 
ENDBRANCH   3   6
ENDBRANCH   1   4
BRANCH   1  12
ATOM     12  C   UNL     1       7.504   6.030  18.612  0.00  0.00    +0.000 C 
ATOM     13  O   UNL     1       8.272   5.333  19.285  0.00  0.00    +0.000 OA
BRANCH  12  14
ATOM     14  C   UNL     1       7.843   7.462  18.259  0.00  0.00    +0.000 C 
ATOM     15  F   UNL     1       8.907   7.948  18.954  0.00  0.00    +0.000 F 
ATOM     16  F   UNL     1       8.159   7.604  16.941  0.00  0.00    +0.000 F 
ENDBRANCH  12  14
ENDBRANCH   1  12
BRANCH   1  17
ATOM     17  C   UNL     1       5.583   4.335  18.922  0.00  0.00    +0.000 C 
BRANCH  17  18
ATOM     18  C   UNL     1       4.150   3.986  18.584  0.00  0.00    +0.000 A 
ATOM     19  C   UNL     1       3.794   2.683  18.207  0.00  0.00    +0.000 A 
ATOM     20  C   UNL     1       2.490   2.396  17.798  0.00  0.00    +0.000 A 
ATOM     21  C   UNL     1       1.527   3.401  17.780  0.00  0.00    +0.000 A 
ATOM     22  C   UNL     1       1.856   4.686  18.206  0.00  0.00    +0.000 A 
ATOM     23  C   UNL     1       3.159   4.976  18.613  0.00  0.00    +0.000 A 
ENDBRANCH  17  18
ENDBRANCH   1  17
TORSDOF 6
ENDMDL
MODEL 9
REMARK VINA RESULT:      -7.7      1.305      1.862
REMARK  Name = 
REMARK  6 active torsions:
REMARK  status: ('A' for Active; 'I' for Inactive)
REMARK    1  A    between atoms: C_2  and  C_17
REMARK    2  A    between atoms: N_3  and  C_4
REMARK    3  A    between atoms: C_4  and  C_5
REMARK    4  A    between atoms: C_4  and  C_12
REMARK    5  A    between atoms: C_5  and  C_6
REMARK    6  A    between atoms: C_12  and  C_14
REMARK                            x       y       z     vdW  Elec       q    Type
REMARK                         _______ _______ _______ _____ _____    ______ ____
ROOT
ATOM      1  C   UNL     1       6.390   4.608  16.935  0.00  0.00    +0.000 C 
ENDROOT
BRANCH   1   4
ATOM      2  O   UNL     1       3.985   5.998  17.609  0.00  0.00    +0.000 OA
ATOM      3  C   UNL     1       4.082   4.807  17.887  0.00  0.00    +0.000 C 
ATOM      4  N   UNL     1       5.177   4.052  17.556  0.00  0.00    +0.000 N 
ATOM      5  H   UNL     1       5.125   3.039  17.593  0.00  0.00    +0.000 HD
BRANCH   3   6
ATOM      6  C   UNL     1       2.992   4.103  18.627  0.00  0.00    +0.000 A 
ATOM      7  C   UNL     1       2.355   3.009  18.031  0.00  0.00    +0.000 A 
ATOM      8  C   UNL     1       1.255   2.409  18.655  0.00  0.00    +0.000 A 
ATOM      9  C   UNL     1       0.785   2.905  19.872  0.00  0.00    +0.000 A 
ATOM     10  C   UNL     1       1.427   3.983  20.478  0.00  0.00    +0.000 A 
ATOM     11  C   UNL     1       2.531   4.580  19.861  0.00  0.00    +0.000 A 
ENDBRANCH   3   6
ENDBRANCH   1   4
BRANCH   1  12
ATOM     12  C   UNL     1       7.158   5.337  18.044  0.00  0.00    +0.000 C 
ATOM     13  O   UNL     1       7.399   4.791  19.127  0.00  0.00    +0.000 OA
BRANCH  12  14
ATOM     14  C   UNL     1       7.648   6.736  17.740  0.00  0.00    +0.000 C 
ATOM     15  F   UNL     1       6.641   7.642  17.619  0.00  0.00    +0.000 F 
ATOM     16  F   UNL     1       8.470   7.216  18.715  0.00  0.00    +0.000 F 
ENDBRANCH  12  14
ENDBRANCH   1  12
BRANCH   1  17
ATOM     17  C   UNL     1       6.064   5.492  15.712  0.00  0.00    +0.000 C 
BRANCH  17  18
ATOM     18  C   UNL     1       6.412   4.872  14.377  0.00  0.00    +0.000 A 
ATOM     19  C   UNL     1       7.536   5.297  13.654  0.00  0.00    +0.000 A 
ATOM     20  C   UNL     1       7.788   4.791  12.377  0.00  0.00    +0.000 A 
ATOM     21  C   UNL     1       6.933   3.846  11.818  0.00  0.00    +0.000 A 
ATOM     22  C   UNL     1       5.844   3.375  12.549  0.00  0.00    +0.000 A 
ATOM     23  C   UNL     1       5.589   3.880  13.825  0.00  0.00    +0.000 A 
ENDBRANCH  17  18
ENDBRANCH   1  17
TORSDOF 6
ENDMDL
