MODEL 1
REMARK VINA RESULT:      -8.7      0.000      0.000
REMARK  Name = 
REMARK  6 active torsions:
REMARK  status: ('A' for Active; 'I' for Inactive)
REMARK    1  A    between atoms: C_4  and  C_5
REMARK    2  A    between atoms: C_8  and  N_9
REMARK    3  A    between atoms: C_10  and  C_12
REMARK    4  A    between atoms: C_12  and  C_13
REMARK    5  A    between atoms: C_13  and  N_14
REMARK    6  A    between atoms: N_26  and  C_27
REMARK                            x       y       z     vdW  Elec       q    Type
REMARK                         _______ _______ _______ _____ _____    ______ ____
ROOT
ATOM      1  N   UNL     1       1.114  14.054  18.938  0.00  0.00    +0.000 N 
ATOM      2  C   UNL     1       0.780  12.893  19.582  0.00  0.00    +0.000 A 
ATOM      3  N   UNL     1       1.277  11.753  19.184  0.00  0.00    +0.000 NA
ATOM      4  C   UNL     1       0.950  10.601  19.888  0.00  0.00    +0.000 A 
ATOM      5  C   UNL     1       0.197  10.607  21.005  0.00  0.00    +0.000 A 
ATOM      6  N   UNL     1      -0.315  11.783  21.431  0.00  0.00    +0.000 N 
ATOM      7  C   UNL     1      -1.114  12.064  22.509  0.00  0.00    +0.000 A 
ATOM      8  O   UNL     1      -1.523  11.260  23.332  0.00  0.00    +0.000 OA
ATOM      9  N   UNL     1      -1.359  13.458  22.405  0.00  0.00    +0.000 N 
ATOM     10  N   UNL     1      -0.714  13.992  21.292  0.00  0.00    +0.000 NA
ATOM     11  C   UNL     1      -0.123  12.949  20.791  0.00  0.00    +0.000 A 
ATOM     12  H   UNL     1       1.957  13.974  18.382  0.00  0.00    +0.000 HD
ATOM     13  H   UNL     1       1.049  14.903  19.491  0.00  0.00    +0.000 HD
ENDROOT
BRANCH   4  14
ATOM     14  C   UNL     1       1.481   9.315  19.396  0.00  0.00    +0.000 A 
ATOM     15  C   UNL     1       1.674   8.217  20.250  0.00  0.00    +0.000 A 
ATOM     16  C   UNL     1       2.174   7.012  19.764  0.00  0.00    +0.000 A 
ATOM     17  C   UNL     1       2.478   6.881  18.416  0.00  0.00    +0.000 A 
ATOM     18  C   UNL     1       2.297   7.967  17.554  0.00  0.00    +0.000 A 
ATOM     19  C   UNL     1       1.788   9.170  18.038  0.00  0.00    +0.000 A 
BRANCH  17  20
ATOM     20  N   UNL     1       2.972   5.700  17.863  0.00  0.00    +0.000 N 
ATOM     21  C   UNL     1       4.273   5.244  17.839  0.00  0.00    +0.000 C 
ATOM     22  O   UNL     1       5.250   5.817  18.310  0.00  0.00    +0.000 OA
ATOM     23  H   UNL     1       2.271   5.054  17.495  0.00  0.00    +0.000 HD
BRANCH  21  24
ATOM     24  C   UNL     1       4.447   3.928  17.094  0.00  0.00    +0.000 C 
BRANCH  24  25
ATOM     25  C   UNL     1       3.797   2.710  17.766  0.00  0.00    +0.000 C 
BRANCH  25  26
ATOM     26  N   UNL     1       2.986   3.049  18.960  0.00  0.00    +0.000 NA
ATOM     27  C   UNL     1       1.577   2.636  18.818  0.00  0.00    +0.000 C 
ATOM     28  C   UNL     1       0.752   3.070  20.031  0.00  0.00    +0.000 C 
ATOM     29  C   UNL     1       1.344   2.520  21.321  0.00  0.00    +0.000 C 
ATOM     30  C   UNL     1       2.813   2.907  21.428  0.00  0.00    +0.000 C 
ATOM     31  C   UNL     1       3.593   2.489  20.179  0.00  0.00    +0.000 C 
ENDBRANCH  25  26
ENDBRANCH  24  25
ENDBRANCH  21  24
ENDBRANCH  17  20
ENDBRANCH   4  14
BRANCH   9  32
ATOM     32  C   UNL     1      -2.106  14.280  23.263  0.00  0.00    +0.000 A 
ATOM     33  C   UNL     1      -3.474  14.497  23.050  0.00  0.00    +0.000 A 
ATOM     34  C   UNL     1      -4.210  15.307  23.919  0.00  0.00    +0.000 A 
ATOM     35  C   UNL     1      -3.579  15.928  24.994  0.00  0.00    +0.000 A 
ATOM     36  C   UNL     1      -2.217  15.731  25.209  0.00  0.00    +0.000 A 
ATOM     37  C   UNL     1      -1.487  14.901  24.355  0.00  0.00    +0.000 A 
ENDBRANCH   9  32
TORSDOF 6
ENDMDL
MODEL 2
REMARK VINA RESULT:      -8.4      1.788      3.088
REMARK  Name = 
REMARK  6 active torsions:
REMARK  status: ('A' for Active; 'I' for Inactive)
REMARK    1  A    between atoms: C_4  and  C_5
REMARK    2  A    between atoms: C_8  and  N_9
REMARK    3  A    between atoms: C_10  and  C_12
REMARK    4  A    between atoms: C_12  and  C_13
REMARK    5  A    between atoms: C_13  and  N_14
REMARK    6  A    between atoms: N_26  and  C_27
REMARK                            x       y       z     vdW  Elec       q    Type
REMARK                         _______ _______ _______ _____ _____    ______ ____
ROOT
ATOM      1  N   UNL     1      -0.888  13.096  17.736  0.00  0.00    +0.000 N 
ATOM      2  C   UNL     1      -0.625  12.270  18.794  0.00  0.00    +0.000 A 
ATOM      3  N   UNL     1       0.088  11.189  18.623  0.00  0.00    +0.000 NA
ATOM      4  C   UNL     1       0.371  10.396  19.728  0.00  0.00    +0.000 A 
ATOM      5  C   UNL     1       0.004  10.720  20.983  0.00  0.00    +0.000 A 
ATOM      6  N   UNL     1      -0.726  11.842  21.172  0.00  0.00    +0.000 N 
ATOM      7  C   UNL     1      -1.237  12.384  22.323  0.00  0.00    +0.000 A 
ATOM      8  O   UNL     1      -1.108  11.934  23.451  0.00  0.00    +0.000 OA
ATOM      9  N   UNL     1      -1.947  13.530  21.881  0.00  0.00    +0.000 N 
ATOM     10  N   UNL     1      -1.855  13.667  20.498  0.00  0.00    +0.000 NA
ATOM     11  C   UNL     1      -1.118  12.647  20.171  0.00  0.00    +0.000 A 
ATOM     12  H   UNL     1      -0.258  12.959  16.954  0.00  0.00    +0.000 HD
ATOM     13  H   UNL     1      -1.072  14.068  17.966  0.00  0.00    +0.000 HD
ENDROOT
BRANCH   4  14
ATOM     14  C   UNL     1       1.136   9.153  19.511  0.00  0.00    +0.000 A 
ATOM     15  C   UNL     1       1.282   8.187  20.519  0.00  0.00    +0.000 A 
ATOM     16  C   UNL     1       2.007   7.019  20.291  0.00  0.00    +0.000 A 
ATOM     17  C   UNL     1       2.587   6.795  19.050  0.00  0.00    +0.000 A 
ATOM     18  C   UNL     1       2.456   7.751  18.038  0.00  0.00    +0.000 A 
ATOM     19  C   UNL     1       1.723   8.914  18.263  0.00  0.00    +0.000 A 
BRANCH  17  20
ATOM     20  N   UNL     1       3.316   5.644  18.753  0.00  0.00    +0.000 N 
ATOM     21  C   UNL     1       2.918   4.539  18.033  0.00  0.00    +0.000 C 
ATOM     22  O   UNL     1       1.817   4.368  17.518  0.00  0.00    +0.000 OA
ATOM     23  H   UNL     1       4.297   5.654  19.040  0.00  0.00    +0.000 HD
BRANCH  21  24
ATOM     24  C   UNL     1       3.973   3.443  17.958  0.00  0.00    +0.000 C 
BRANCH  24  25
ATOM     25  C   UNL     1       5.254   3.825  17.205  0.00  0.00    +0.000 C 
BRANCH  25  26
ATOM     26  N   UNL     1       5.867   5.091  17.672  0.00  0.00    +0.000 NA
ATOM     27  C   UNL     1       7.228   4.894  18.205  0.00  0.00    +0.000 C 
ATOM     28  C   UNL     1       7.801   6.203  18.750  0.00  0.00    +0.000 C 
ATOM     29  C   UNL     1       7.795   7.289  17.685  0.00  0.00    +0.000 C 
ATOM     30  C   UNL     1       6.395   7.445  17.106  0.00  0.00    +0.000 C 
ATOM     31  C   UNL     1       5.845   6.107  16.607  0.00  0.00    +0.000 C 
ENDBRANCH  25  26
ENDBRANCH  24  25
ENDBRANCH  21  24
ENDBRANCH  17  20
ENDBRANCH   4  14
BRANCH   9  32
ATOM     32  C   UNL     1      -2.651  14.472  22.648  0.00  0.00    +0.000 A 
ATOM     33  C   UNL     1      -3.883  14.154  23.234  0.00  0.00    +0.000 A 
ATOM     34  C   UNL     1      -4.568  15.096  24.006  0.00  0.00    +0.000 A 
ATOM     35  C   UNL     1      -4.039  16.373  24.178  0.00  0.00    +0.000 A 
ATOM     36  C   UNL     1      -2.822  16.706  23.589  0.00  0.00    +0.000 A 
ATOM     37  C   UNL     1      -2.126  15.756  22.838  0.00  0.00    +0.000 A 
ENDBRANCH   9  32
TORSDOF 6
ENDMDL
MODEL 3
REMARK VINA RESULT:      -8.2      1.030      1.633
REMARK  Name = 
REMARK  6 active torsions:
REMARK  status: ('A' for Active; 'I' for Inactive)
REMARK    1  A    between atoms: C_4  and  C_5
REMARK    2  A    between atoms: C_8  and  N_9
REMARK    3  A    between atoms: C_10  and  C_12
REMARK    4  A    between atoms: C_12  and  C_13
REMARK    5  A    between atoms: C_13  and  N_14
REMARK    6  A    between atoms: N_26  and  C_27
REMARK                            x       y       z     vdW  Elec       q    Type
REMARK                         _______ _______ _______ _____ _____    ______ ____
ROOT
ATOM      1  N   UNL     1      -0.834  13.407  17.836  0.00  0.00    +0.000 N 
ATOM      2  C   UNL     1      -0.705  12.456  18.812  0.00  0.00    +0.000 A 
ATOM      3  N   UNL     1       0.061  11.416  18.620  0.00  0.00    +0.000 NA
ATOM      4  C   UNL     1       0.202  10.493  19.649  0.00  0.00    +0.000 A 
ATOM      5  C   UNL     1      -0.360  10.650  20.864  0.00  0.00    +0.000 A 
ATOM      6  N   UNL     1      -1.147  11.728  21.076  0.00  0.00    +0.000 N 
ATOM      7  C   UNL     1      -1.843  12.112  22.193  0.00  0.00    +0.000 A 
ATOM      8  O   UNL     1      -1.871  11.524  23.263  0.00  0.00    +0.000 OA
ATOM      9  N   UNL     1      -2.517  13.295  21.792  0.00  0.00    +0.000 N 
ATOM     10  N   UNL     1      -2.222  13.607  20.466  0.00  0.00    +0.000 NA
ATOM     11  C   UNL     1      -1.412  12.648  20.133  0.00  0.00    +0.000 A 
ATOM     12  H   UNL     1      -0.089  13.379  17.150  0.00  0.00    +0.000 HD
ATOM     13  H   UNL     1      -1.082  14.339  18.154  0.00  0.00    +0.000 HD
ENDROOT
BRANCH   4  14
ATOM     14  C   UNL     1       1.032   9.299  19.400  0.00  0.00    +0.000 A 
ATOM     15  C   UNL     1       1.623   9.056  18.149  0.00  0.00    +0.000 A 
ATOM     16  C   UNL     1       2.405   7.923  17.936  0.00  0.00    +0.000 A 
ATOM     17  C   UNL     1       2.616   7.022  18.971  0.00  0.00    +0.000 A 
ATOM     18  C   UNL     1       2.028   7.246  20.219  0.00  0.00    +0.000 A 
ATOM     19  C   UNL     1       1.254   8.384  20.436  0.00  0.00    +0.000 A 
BRANCH  17  20
ATOM     20  N   UNL     1       3.394   5.874  18.827  0.00  0.00    +0.000 N 
ATOM     21  C   UNL     1       4.308   5.576  17.839  0.00  0.00    +0.000 C 
ATOM     22  O   UNL     1       4.600   6.289  16.884  0.00  0.00    +0.000 OA
ATOM     23  H   UNL     1       3.336   5.199  19.593  0.00  0.00    +0.000 HD
BRANCH  21  24
ATOM     24  C   UNL     1       4.934   4.195  17.979  0.00  0.00    +0.000 C 
BRANCH  24  25
ATOM     25  C   UNL     1       4.010   3.024  17.620  0.00  0.00    +0.000 C 
BRANCH  25  26
ATOM     26  N   UNL     1       3.097   2.624  18.718  0.00  0.00    +0.000 NA
ATOM     27  C   UNL     1       3.606   3.021  20.044  0.00  0.00    +0.000 C 
ATOM     28  C   UNL     1       2.683   2.525  21.159  0.00  0.00    +0.000 C 
ATOM     29  C   UNL     1       1.261   3.028  20.957  0.00  0.00    +0.000 C 
ATOM     30  C   UNL     1       0.769   2.657  19.565  0.00  0.00    +0.000 C 
ATOM     31  C   UNL     1       1.739   3.139  18.483  0.00  0.00    +0.000 C 
ENDBRANCH  25  26
ENDBRANCH  24  25
ENDBRANCH  21  24
ENDBRANCH  17  20
ENDBRANCH   4  14
BRANCH   9  32
ATOM     32  C   UNL     1      -3.359  14.122  22.552  0.00  0.00    +0.000 A 
ATOM     33  C   UNL     1      -4.729  14.214  22.273  0.00  0.00    +0.000 A 
ATOM     34  C   UNL     1      -5.559  15.029  23.046  0.00  0.00    +0.000 A 
ATOM     35  C   UNL     1      -5.023  15.781  24.088  0.00  0.00    +0.000 A 
ATOM     36  C   UNL     1      -3.660  15.709  24.367  0.00  0.00    +0.000 A 
ATOM     37  C   UNL     1      -2.835  14.874  23.610  0.00  0.00    +0.000 A 
ENDBRANCH   9  32
TORSDOF 6
ENDMDL
MODEL 4
REMARK VINA RESULT:      -8.2      1.837      2.931
REMARK  Name = 
REMARK  6 active torsions:
REMARK  status: ('A' for Active; 'I' for Inactive)
REMARK    1  A    between atoms: C_4  and  C_5
REMARK    2  A    between atoms: C_8  and  N_9
REMARK    3  A    between atoms: C_10  and  C_12
REMARK    4  A    between atoms: C_12  and  C_13
REMARK    5  A    between atoms: C_13  and  N_14
REMARK    6  A    between atoms: N_26  and  C_27
REMARK                            x       y       z     vdW  Elec       q    Type
REMARK                         _______ _______ _______ _____ _____    ______ ____
ROOT
ATOM      1  N   UNL     1      -0.077  14.107  18.497  0.00  0.00    +0.000 N 
ATOM      2  C   UNL     1      -0.223  12.994  19.279  0.00  0.00    +0.000 A 
ATOM      3  N   UNL     1       0.467  11.915  19.025  0.00  0.00    +0.000 NA
ATOM      4  C   UNL     1       0.324  10.818  19.866  0.00  0.00    +0.000 A 
ATOM      5  C   UNL     1      -0.442  10.833  20.974  0.00  0.00    +0.000 A 
ATOM      6  N   UNL     1      -1.154  11.948  21.252  0.00  0.00    +0.000 N 
ATOM      7  C   UNL     1      -2.012  12.218  22.286  0.00  0.00    +0.000 A 
ATOM      8  O   UNL     1      -2.296  11.463  23.203  0.00  0.00    +0.000 OA
ATOM      9  N   UNL     1      -2.486  13.527  22.011  0.00  0.00    +0.000 N 
ATOM     10  N   UNL     1      -1.917  14.024  20.840  0.00  0.00    +0.000 NA
ATOM     11  C   UNL     1      -1.149  13.043  20.472  0.00  0.00    +0.000 A 
ATOM     12  H   UNL     1       0.779  14.105  17.955  0.00  0.00    +0.000 HD
ATOM     13  H   UNL     1      -0.295  14.994  18.940  0.00  0.00    +0.000 HD
ENDROOT
BRANCH   4  14
ATOM     14  C   UNL     1       1.073   9.591  19.537  0.00  0.00    +0.000 A 
ATOM     15  C   UNL     1       1.268   8.567  20.478  0.00  0.00    +0.000 A 
ATOM     16  C   UNL     1       1.977   7.415  20.145  0.00  0.00    +0.000 A 
ATOM     17  C   UNL     1       2.492   7.264  18.864  0.00  0.00    +0.000 A 
ATOM     18  C   UNL     1       2.312   8.278  17.918  0.00  0.00    +0.000 A 
ATOM     19  C   UNL     1       1.595   9.426  18.248  0.00  0.00    +0.000 A 
BRANCH  17  20
ATOM     20  N   UNL     1       3.203   6.134  18.463  0.00  0.00    +0.000 N 
ATOM     21  C   UNL     1       2.719   4.970  17.906  0.00  0.00    +0.000 C 
ATOM     22  O   UNL     1       1.542   4.718  17.664  0.00  0.00    +0.000 OA
ATOM     23  H   UNL     1       4.221   6.207  18.519  0.00  0.00    +0.000 HD
BRANCH  21  24
ATOM     24  C   UNL     1       3.793   3.923  17.644  0.00  0.00    +0.000 C 
BRANCH  24  25
ATOM     25  C   UNL     1       4.721   4.226  16.461  0.00  0.00    +0.000 C 
BRANCH  25  26
ATOM     26  N   UNL     1       5.993   4.881  16.852  0.00  0.00    +0.000 NA
ATOM     27  C   UNL     1       5.960   6.341  16.642  0.00  0.00    +0.000 C 
ATOM     28  C   UNL     1       7.311   6.975  16.979  0.00  0.00    +0.000 C 
ATOM     29  C   UNL     1       7.729   6.648  18.405  0.00  0.00    +0.000 C 
ATOM     30  C   UNL     1       7.706   5.141  18.623  0.00  0.00    +0.000 C 
ATOM     31  C   UNL     1       6.351   4.542  18.238  0.00  0.00    +0.000 C 
ENDBRANCH  25  26
ENDBRANCH  24  25
ENDBRANCH  21  24
ENDBRANCH  17  20
ENDBRANCH   4  14
BRANCH   9  32
ATOM     32  C   UNL     1      -3.378  14.309  22.761  0.00  0.00    +0.000 A 
ATOM     33  C   UNL     1      -4.762  14.226  22.559  0.00  0.00    +0.000 A 
ATOM     34  C   UNL     1      -5.641  14.999  23.321  0.00  0.00    +0.000 A 
ATOM     35  C   UNL     1      -5.143  15.883  24.274  0.00  0.00    +0.000 A 
ATOM     36  C   UNL     1      -3.769  15.986  24.476  0.00  0.00    +0.000 A 
ATOM     37  C   UNL     1      -2.892  15.194  23.731  0.00  0.00    +0.000 A 
ENDBRANCH   9  32
TORSDOF 6
ENDMDL
MODEL 5
REMARK VINA RESULT:      -8.2      1.195      1.926
REMARK  Name = 
REMARK  6 active torsions:
REMARK  status: ('A' for Active; 'I' for Inactive)
REMARK    1  A    between atoms: C_4  and  C_5
REMARK    2  A    between atoms: C_8  and  N_9
REMARK    3  A    between atoms: C_10  and  C_12
REMARK    4  A    between atoms: C_12  and  C_13
REMARK    5  A    between atoms: C_13  and  N_14
REMARK    6  A    between atoms: N_26  and  C_27
REMARK                            x       y       z     vdW  Elec       q    Type
REMARK                         _______ _______ _______ _____ _____    ______ ____
ROOT
ATOM      1  N   UNL     1      -0.489  14.387  18.418  0.00  0.00    +0.000 N 
ATOM      2  C   UNL     1      -0.591  13.281  19.216  0.00  0.00    +0.000 A 
ATOM      3  N   UNL     1       0.117  12.215  18.958  0.00  0.00    +0.000 NA
ATOM      4  C   UNL     1       0.021  11.125  19.815  0.00  0.00    +0.000 A 
ATOM      5  C   UNL     1      -0.718  11.136  20.941  0.00  0.00    +0.000 A 
ATOM      6  N   UNL     1      -1.449  12.239  21.224  0.00  0.00    +0.000 N 
ATOM      7  C   UNL     1      -2.287  12.502  22.276  0.00  0.00    +0.000 A 
ATOM      8  O   UNL     1      -2.531  11.751  23.208  0.00  0.00    +0.000 OA
ATOM      9  N   UNL     1      -2.798  13.796  21.997  0.00  0.00    +0.000 N 
ATOM     10  N   UNL     1      -2.269  14.291  20.807  0.00  0.00    +0.000 NA
ATOM     11  C   UNL     1      -1.487  13.323  20.432  0.00  0.00    +0.000 A 
ATOM     12  H   UNL     1       0.353  14.398  17.854  0.00  0.00    +0.000 HD
ATOM     13  H   UNL     1      -0.717  15.274  18.856  0.00  0.00    +0.000 HD
ENDROOT
BRANCH   4  14
ATOM     14  C   UNL     1       0.790   9.911  19.482  0.00  0.00    +0.000 A 
ATOM     15  C   UNL     1       1.219   9.643  18.172  0.00  0.00    +0.000 A 
ATOM     16  C   UNL     1       1.947   8.492  17.880  0.00  0.00    +0.000 A 
ATOM     17  C   UNL     1       2.265   7.597  18.893  0.00  0.00    +0.000 A 
ATOM     18  C   UNL     1       1.838   7.848  20.201  0.00  0.00    +0.000 A 
ATOM     19  C   UNL     1       1.119   9.004  20.495  0.00  0.00    +0.000 A 
BRANCH  17  20
ATOM     20  N   UNL     1       2.997   6.432  18.671  0.00  0.00    +0.000 N 
ATOM     21  C   UNL     1       4.054   6.235  17.808  0.00  0.00    +0.000 C 
ATOM     22  O   UNL     1       4.545   7.075  17.061  0.00  0.00    +0.000 OA
ATOM     23  H   UNL     1       2.771   5.643  19.280  0.00  0.00    +0.000 HD
BRANCH  21  24
ATOM     24  C   UNL     1       4.574   4.804  17.793  0.00  0.00    +0.000 C 
BRANCH  24  25
ATOM     25  C   UNL     1       3.540   3.741  17.400  0.00  0.00    +0.000 C 
BRANCH  25  26
ATOM     26  N   UNL     1       2.842   3.130  18.556  0.00  0.00    +0.000 NA
ATOM     27  C   UNL     1       3.579   3.313  19.820  0.00  0.00    +0.000 C 
ATOM     28  C   UNL     1       2.874   2.605  20.977  0.00  0.00    +0.000 C 
ATOM     29  C   UNL     1       1.437   3.087  21.120  0.00  0.00    +0.000 C 
ATOM     30  C   UNL     1       0.704   2.942  19.794  0.00  0.00    +0.000 C 
ATOM     31  C   UNL     1       1.462   3.632  18.657  0.00  0.00    +0.000 C 
ENDBRANCH  25  26
ENDBRANCH  24  25
ENDBRANCH  21  24
ENDBRANCH  17  20
ENDBRANCH   4  14
BRANCH   9  32
ATOM     32  C   UNL     1      -3.689  14.567  22.760  0.00  0.00    +0.000 A 
ATOM     33  C   UNL     1      -3.260  15.718  23.432  0.00  0.00    +0.000 A 
ATOM     34  C   UNL     1      -4.159  16.485  24.177  0.00  0.00    +0.000 A 
ATOM     35  C   UNL     1      -5.492  16.092  24.278  0.00  0.00    +0.000 A 
ATOM     36  C   UNL     1      -5.928  14.942  23.626  0.00  0.00    +0.000 A 
ATOM     37  C   UNL     1      -5.034  14.190  22.860  0.00  0.00    +0.000 A 
ENDBRANCH   9  32
TORSDOF 6
ENDMDL
MODEL 6
REMARK VINA RESULT:      -8.0      1.577      2.940
REMARK  Name = 
REMARK  6 active torsions:
REMARK  status: ('A' for Active; 'I' for Inactive)
REMARK    1  A    between atoms: C_4  and  C_5
REMARK    2  A    between atoms: C_8  and  N_9
REMARK    3  A    between atoms: C_10  and  C_12
REMARK    4  A    between atoms: C_12  and  C_13
REMARK    5  A    between atoms: C_13  and  N_14
REMARK    6  A    between atoms: N_26  and  C_27
REMARK                            x       y       z     vdW  Elec       q    Type
REMARK                         _______ _______ _______ _____ _____    ______ ____
ROOT
ATOM      1  N   UNL     1       1.631  13.954  19.660  0.00  0.00    +0.000 N 
ATOM      2  C   UNL     1       1.076  12.802  20.146  0.00  0.00    +0.000 A 
ATOM      3  N   UNL     1       1.500  11.640  19.727  0.00  0.00    +0.000 NA
ATOM      4  C   UNL     1       0.944  10.490  20.274  0.00  0.00    +0.000 A 
ATOM      5  C   UNL     1       0.034  10.511  21.267  0.00  0.00    +0.000 A 
ATOM      6  N   UNL     1      -0.405  11.709  21.715  0.00  0.00    +0.000 N 
ATOM      7  C   UNL     1      -1.325  12.010  22.686  0.00  0.00    +0.000 A 
ATOM      8  O   UNL     1      -1.941  11.207  23.369  0.00  0.00    +0.000 OA
ATOM      9  N   UNL     1      -1.396  13.427  22.669  0.00  0.00    +0.000 N 
ATOM     10  N   UNL     1      -0.533  13.955  21.711  0.00  0.00    +0.000 NA
ATOM     11  C   UNL     1       0.009  12.884  21.213  0.00  0.00    +0.000 A 
ATOM     12  H   UNL     1       2.535  13.812  19.227  0.00  0.00    +0.000 HD
ATOM     13  H   UNL     1       1.576  14.765  20.269  0.00  0.00    +0.000 HD
ENDROOT
BRANCH   4  14
ATOM     14  C   UNL     1       1.398   9.186  19.755  0.00  0.00    +0.000 A 
ATOM     15  C   UNL     1       1.707   8.996  18.399  0.00  0.00    +0.000 A 
ATOM     16  C   UNL     1       2.137   7.757  17.930  0.00  0.00    +0.000 A 
ATOM     17  C   UNL     1       2.275   6.693  18.811  0.00  0.00    +0.000 A 
ATOM     18  C   UNL     1       1.964   6.865  20.163  0.00  0.00    +0.000 A 
ATOM     19  C   UNL     1       1.543   8.106  20.634  0.00  0.00    +0.000 A 
BRANCH  17  20
ATOM     20  N   UNL     1       2.708   5.430  18.409  0.00  0.00    +0.000 N 
ATOM     21  C   UNL     1       2.002   4.454  17.740  0.00  0.00    +0.000 C 
ATOM     22  O   UNL     1       0.833   4.527  17.375  0.00  0.00    +0.000 OA
ATOM     23  H   UNL     1       3.699   5.231  18.563  0.00  0.00    +0.000 HD
BRANCH  21  24
ATOM     24  C   UNL     1       2.792   3.171  17.516  0.00  0.00    +0.000 C 
BRANCH  24  25
ATOM     25  C   UNL     1       4.152   3.114  18.223  0.00  0.00    +0.000 C 
BRANCH  25  26
ATOM     26  N   UNL     1       5.297   3.455  17.345  0.00  0.00    +0.000 NA
ATOM     27  C   UNL     1       4.867   3.886  16.002  0.00  0.00    +0.000 C 
ATOM     28  C   UNL     1       6.070   4.154  15.098  0.00  0.00    +0.000 C 
ATOM     29  C   UNL     1       7.003   5.185  15.718  0.00  0.00    +0.000 C 
ATOM     30  C   UNL     1       7.396   4.754  17.124  0.00  0.00    +0.000 C 
ATOM     31  C   UNL     1       6.164   4.459  17.983  0.00  0.00    +0.000 C 
ENDBRANCH  25  26
ENDBRANCH  24  25
ENDBRANCH  21  24
ENDBRANCH  17  20
ENDBRANCH   4  14
BRANCH   9  32
ATOM     32  C   UNL     1      -2.171  14.274  23.478  0.00  0.00    +0.000 A 
ATOM     33  C   UNL     1      -1.612  14.933  24.580  0.00  0.00    +0.000 A 
ATOM     34  C   UNL     1      -2.390  15.783  25.370  0.00  0.00    +0.000 A 
ATOM     35  C   UNL     1      -3.740  15.962  25.080  0.00  0.00    +0.000 A 
ATOM     36  C   UNL     1      -4.310  15.302  23.995  0.00  0.00    +0.000 A 
ATOM     37  C   UNL     1      -3.526  14.472  23.190  0.00  0.00    +0.000 A 
ENDBRANCH   9  32
TORSDOF 6
ENDMDL
MODEL 7
REMARK VINA RESULT:      -7.9      1.548      2.092
REMARK  Name = 
REMARK  6 active torsions:
REMARK  status: ('A' for Active; 'I' for Inactive)
REMARK    1  A    between atoms: C_4  and  C_5
REMARK    2  A    between atoms: C_8  and  N_9
REMARK    3  A    between atoms: C_10  and  C_12
REMARK    4  A    between atoms: C_12  and  C_13
REMARK    5  A    between atoms: C_13  and  N_14
REMARK    6  A    between atoms: N_26  and  C_27
REMARK                            x       y       z     vdW  Elec       q    Type
REMARK                         _______ _______ _______ _____ _____    ______ ____
ROOT
ATOM      1  N   UNL     1      -2.800  12.239  17.877  0.00  0.00    +0.000 N 
ATOM      2  C   UNL     1      -1.895  11.855  18.829  0.00  0.00    +0.000 A 
ATOM      3  N   UNL     1      -1.040  10.902  18.577  0.00  0.00    +0.000 NA
ATOM      4  C   UNL     1      -0.108  10.568  19.552  0.00  0.00    +0.000 A 
ATOM      5  C   UNL     1       0.003  11.224  20.723  0.00  0.00    +0.000 A 
ATOM      6  N   UNL     1      -0.872  12.220  20.990  0.00  0.00    +0.000 N 
ATOM      7  C   UNL     1      -0.992  13.023  22.094  0.00  0.00    +0.000 A 
ATOM      8  O   UNL     1      -0.283  12.992  23.088  0.00  0.00    +0.000 OA
ATOM      9  N   UNL     1      -2.119  13.837  21.811  0.00  0.00    +0.000 N 
ATOM     10  N   UNL     1      -2.653  13.526  20.562  0.00  0.00    +0.000 NA
ATOM     11  C   UNL     1      -1.858  12.582  20.153  0.00  0.00    +0.000 A 
ATOM     12  H   UNL     1      -2.542  11.953  16.940  0.00  0.00    +0.000 HD
ATOM     13  H   UNL     1      -3.144  13.192  17.949  0.00  0.00    +0.000 HD
ENDROOT
BRANCH   4  14
ATOM     14  C   UNL     1       0.820   9.456  19.270  0.00  0.00    +0.000 A 
ATOM     15  C   UNL     1       1.371   9.255  17.994  0.00  0.00    +0.000 A 
ATOM     16  C   UNL     1       2.247   8.200  17.751  0.00  0.00    +0.000 A 
ATOM     17  C   UNL     1       2.594   7.336  18.781  0.00  0.00    +0.000 A 
ATOM     18  C   UNL     1       2.048   7.519  20.055  0.00  0.00    +0.000 A 
ATOM     19  C   UNL     1       1.180   8.580  20.301  0.00  0.00    +0.000 A 
BRANCH  17  20
ATOM     20  N   UNL     1       3.472   6.267  18.607  0.00  0.00    +0.000 N 
ATOM     21  C   UNL     1       4.641   6.227  17.879  0.00  0.00    +0.000 C 
ATOM     22  O   UNL     1       5.125   7.152  17.234  0.00  0.00    +0.000 OA
ATOM     23  H   UNL     1       3.261   5.427  19.151  0.00  0.00    +0.000 HD
BRANCH  21  24
ATOM     24  C   UNL     1       5.313   4.861  17.874  0.00  0.00    +0.000 C 
BRANCH  24  25
ATOM     25  C   UNL     1       5.177   4.064  19.179  0.00  0.00    +0.000 C 
BRANCH  25  26
ATOM     26  N   UNL     1       4.024   3.133  19.193  0.00  0.00    +0.000 NA
ATOM     27  C   UNL     1       2.975   3.550  20.142  0.00  0.00    +0.000 C 
ATOM     28  C   UNL     1       1.838   2.528  20.190  0.00  0.00    +0.000 C 
ATOM     29  C   UNL     1       1.248   2.300  18.806  0.00  0.00    +0.000 C 
ATOM     30  C   UNL     1       2.350   1.922  17.825  0.00  0.00    +0.000 C 
ATOM     31  C   UNL     1       3.484   2.950  17.836  0.00  0.00    +0.000 C 
ENDBRANCH  25  26
ENDBRANCH  24  25
ENDBRANCH  21  24
ENDBRANCH  17  20
ENDBRANCH   4  14
BRANCH   9  32
ATOM     32  C   UNL     1      -2.680  14.857  22.595  0.00  0.00    +0.000 A 
ATOM     33  C   UNL     1      -2.171  16.162  22.558  0.00  0.00    +0.000 A 
ATOM     34  C   UNL     1      -2.746  17.172  23.333  0.00  0.00    +0.000 A 
ATOM     35  C   UNL     1      -3.819  16.881  24.172  0.00  0.00    +0.000 A 
ATOM     36  C   UNL     1      -4.325  15.585  24.227  0.00  0.00    +0.000 A 
ATOM     37  C   UNL     1      -3.766  14.581  23.433  0.00  0.00    +0.000 A 
ENDBRANCH   9  32
TORSDOF 6
ENDMDL
MODEL 8
REMARK VINA RESULT:      -7.9      2.456     11.139
REMARK  Name = 
REMARK  6 active torsions:
REMARK  status: ('A' for Active; 'I' for Inactive)
REMARK    1  A    between atoms: C_4  and  C_5
REMARK    2  A    between atoms: C_8  and  N_9
REMARK    3  A    between atoms: C_10  and  C_12
REMARK    4  A    between atoms: C_12  and  C_13
REMARK    5  A    between atoms: C_13  and  N_14
REMARK    6  A    between atoms: N_26  and  C_27
REMARK                            x       y       z     vdW  Elec       q    Type
REMARK                         _______ _______ _______ _____ _____    ______ ____
ROOT
ATOM      1  N   UNL     1       2.209   4.503  21.205  0.00  0.00    +0.000 N 
ATOM      2  C   UNL     1       2.104   5.713  20.574  0.00  0.00    +0.000 A 
ATOM      3  N   UNL     1       1.381   6.667  21.095  0.00  0.00    +0.000 NA
ATOM      4  C   UNL     1       1.333   7.896  20.448  0.00  0.00    +0.000 A 
ATOM      5  C   UNL     1       2.050   8.177  19.342  0.00  0.00    +0.000 A 
ATOM      6  N   UNL     1       2.809   7.198  18.800  0.00  0.00    +0.000 N 
ATOM      7  C   UNL     1       3.608   7.210  17.686  0.00  0.00    +0.000 A 
ATOM      8  O   UNL     1       3.799   8.163  16.946  0.00  0.00    +0.000 OA
ATOM      9  N   UNL     1       4.105   5.884  17.601  0.00  0.00    +0.000 N 
ATOM     10  N   UNL     1       3.614   5.104  18.646  0.00  0.00    +0.000 NA
ATOM     11  C   UNL     1       2.878   5.953  19.298  0.00  0.00    +0.000 A 
ATOM     12  H   UNL     1       1.952   4.540  22.185  0.00  0.00    +0.000 HD
ATOM     13  H   UNL     1       3.050   3.970  21.007  0.00  0.00    +0.000 HD
ENDROOT
BRANCH   4  14
ATOM     14  C   UNL     1       0.473   8.948  21.023  0.00  0.00    +0.000 A 
ATOM     15  C   UNL     1      -0.000  10.022  20.252  0.00  0.00    +0.000 A 
ATOM     16  C   UNL     1      -0.813  11.003  20.815  0.00  0.00    +0.000 A 
ATOM     17  C   UNL     1      -1.174  10.919  22.153  0.00  0.00    +0.000 A 
ATOM     18  C   UNL     1      -0.706   9.860  22.935  0.00  0.00    +0.000 A 
ATOM     19  C   UNL     1       0.100   8.873  22.370  0.00  0.00    +0.000 A 
BRANCH  17  20
ATOM     20  N   UNL     1      -1.992  11.862  22.775  0.00  0.00    +0.000 N 
ATOM     21  C   UNL     1      -1.637  13.073  23.328  0.00  0.00    +0.000 C 
ATOM     22  O   UNL     1      -0.504  13.544  23.375  0.00  0.00    +0.000 OA
ATOM     23  H   UNL     1      -2.995  11.664  22.751  0.00  0.00    +0.000 HD
BRANCH  21  24
ATOM     24  C   UNL     1      -2.798  13.816  23.974  0.00  0.00    +0.000 C 
BRANCH  24  25
ATOM     25  C   UNL     1      -3.935  12.924  24.490  0.00  0.00    +0.000 C 
BRANCH  25  26
ATOM     26  N   UNL     1      -5.037  12.736  23.516  0.00  0.00    +0.000 NA
ATOM     27  C   UNL     1      -6.361  12.705  24.164  0.00  0.00    +0.000 C 
ATOM     28  C   UNL     1      -7.467  12.431  23.144  0.00  0.00    +0.000 C 
ATOM     29  C   UNL     1      -7.444  13.459  22.022  0.00  0.00    +0.000 C 
ATOM     30  C   UNL     1      -6.056  13.519  21.398  0.00  0.00    +0.000 C 
ATOM     31  C   UNL     1      -4.977  13.756  22.457  0.00  0.00    +0.000 C 
ENDBRANCH  25  26
ENDBRANCH  24  25
ENDBRANCH  21  24
ENDBRANCH  17  20
ENDBRANCH   4  14
BRANCH   9  32
ATOM     32  C   UNL     1       4.990   5.341  16.657  0.00  0.00    +0.000 A 
ATOM     33  C   UNL     1       4.554   4.408  15.707  0.00  0.00    +0.000 A 
ATOM     34  C   UNL     1       5.442   3.884  14.764  0.00  0.00    +0.000 A 
ATOM     35  C   UNL     1       6.780   4.270  14.778  0.00  0.00    +0.000 A 
ATOM     36  C   UNL     1       7.229   5.187  15.725  0.00  0.00    +0.000 A 
ATOM     37  C   UNL     1       6.335   5.729  16.652  0.00  0.00    +0.000 A 
ENDBRANCH   9  32
TORSDOF 6
ENDMDL
MODEL 9
REMARK VINA RESULT:      -7.9      1.206      1.598
REMARK  Name = 
REMARK  6 active torsions:
REMARK  status: ('A' for Active; 'I' for Inactive)
REMARK    1  A    between atoms: C_4  and  C_5
REMARK    2  A    between atoms: C_8  and  N_9
REMARK    3  A    between atoms: C_10  and  C_12
REMARK    4  A    between atoms: C_12  and  C_13
REMARK    5  A    between atoms: C_13  and  N_14
REMARK    6  A    between atoms: N_26  and  C_27
REMARK                            x       y       z     vdW  Elec       q    Type
REMARK                         _______ _______ _______ _____ _____    ______ ____
ROOT
ATOM      1  N   UNL     1      -0.421  14.557  18.580  0.00  0.00    +0.000 N 
ATOM      2  C   UNL     1      -0.561  13.464  19.393  0.00  0.00    +0.000 A 
ATOM      3  N   UNL     1       0.113  12.373  19.150  0.00  0.00    +0.000 NA
ATOM      4  C   UNL     1      -0.022  11.298  20.021  0.00  0.00    +0.000 A 
ATOM      5  C   UNL     1      -0.762  11.348  21.145  0.00  0.00    +0.000 A 
ATOM      6  N   UNL     1      -1.457  12.477  21.411  0.00  0.00    +0.000 N 
ATOM      7  C   UNL     1      -2.288  12.781  22.458  0.00  0.00    +0.000 A 
ATOM      8  O   UNL     1      -2.559  12.051  23.398  0.00  0.00    +0.000 OA
ATOM      9  N   UNL     1      -2.755  14.087  22.161  0.00  0.00    +0.000 N 
ATOM     10  N   UNL     1      -2.208  14.550  20.966  0.00  0.00    +0.000 NA
ATOM     11  C   UNL     1      -1.458  13.552  20.605  0.00  0.00    +0.000 A 
ATOM     12  H   UNL     1       0.423  14.532  18.019  0.00  0.00    +0.000 HD
ATOM     13  H   UNL     1      -0.620  15.456  19.007  0.00  0.00    +0.000 HD
ENDROOT
BRANCH   4  14
ATOM     14  C   UNL     1       0.708  10.055  19.705  0.00  0.00    +0.000 A 
ATOM     15  C   UNL     1       0.992   9.093  20.687  0.00  0.00    +0.000 A 
ATOM     16  C   UNL     1       1.681   7.925  20.366  0.00  0.00    +0.000 A 
ATOM     17  C   UNL     1       2.086   7.697  19.058  0.00  0.00    +0.000 A 
ATOM     18  C   UNL     1       1.816   8.649  18.070  0.00  0.00    +0.000 A 
ATOM     19  C   UNL     1       1.119   9.812  18.389  0.00  0.00    +0.000 A 
BRANCH  17  20
ATOM     20  N   UNL     1       2.770   6.546  18.668  0.00  0.00    +0.000 N 
ATOM     21  C   UNL     1       3.882   6.443  17.862  0.00  0.00    +0.000 C 
ATOM     22  O   UNL     1       4.479   7.372  17.327  0.00  0.00    +0.000 OA
ATOM     23  H   UNL     1       2.451   5.674  19.096  0.00  0.00    +0.000 HD
BRANCH  21  24
ATOM     24  C   UNL     1       4.324   5.007  17.608  0.00  0.00    +0.000 C 
BRANCH  24  25
ATOM     25  C   UNL     1       3.182   4.005  17.393  0.00  0.00    +0.000 C 
BRANCH  25  26
ATOM     26  N   UNL     1       2.804   3.258  18.616  0.00  0.00    +0.000 NA
ATOM     27  C   UNL     1       3.849   3.314  19.655  0.00  0.00    +0.000 C 
ATOM     28  C   UNL     1       3.463   2.470  20.871  0.00  0.00    +0.000 C 
ATOM     29  C   UNL     1       2.121   2.909  21.438  0.00  0.00    +0.000 C 
ATOM     30  C   UNL     1       1.063   2.898  20.342  0.00  0.00    +0.000 C 
ATOM     31  C   UNL     1       1.505   3.722  19.131  0.00  0.00    +0.000 C 
ENDBRANCH  25  26
ENDBRANCH  24  25
ENDBRANCH  21  24
ENDBRANCH  17  20
ENDBRANCH   4  14
BRANCH   9  32
ATOM     32  C   UNL     1      -3.623  14.897  22.912  0.00  0.00    +0.000 A 
ATOM     33  C   UNL     1      -4.923  15.170  22.469  0.00  0.00    +0.000 A 
ATOM     34  C   UNL     1      -5.782  15.966  23.232  0.00  0.00    +0.000 A 
ATOM     35  C   UNL     1      -5.339  16.517  24.431  0.00  0.00    +0.000 A 
ATOM     36  C   UNL     1      -4.044  16.264  24.875  0.00  0.00    +0.000 A 
ATOM     37  C   UNL     1      -3.194  15.448  24.125  0.00  0.00    +0.000 A 
ENDBRANCH   9  32
TORSDOF 6
ENDMDL
