MODEL 1
REMARK VINA RESULT:      -8.3      0.000      0.000
REMARK  Name = 
REMARK  14 active torsions:
REMARK  status: ('A' for Active; 'I' for Inactive)
REMARK    1  A    between atoms: C_1  and  C_2
REMARK    2  A    between atoms: C_2  and  N_3
REMARK    3  A    between atoms: N_3  and  C_4
REMARK    4  A    between atoms: C_4  and  C_5
REMARK    5  A    between atoms: C_6  and  C_8
REMARK    6  A    between atoms: C_11  and  C_12
REMARK    7  A    between atoms: C_12  and  C_13
REMARK    8  A    between atoms: C_12  and  N_21
REMARK    9  A    between atoms: C_17  and  O_18
REMARK   10  A    between atoms: O_18  and  C_19
REMARK   11  A    between atoms: C_23  and  C_24
REMARK   12  A    between atoms: N_25  and  C_26
REMARK   13  A    between atoms: C_26  and  C_27
REMARK   14  A    between atoms: C_34  and  C_35
REMARK                            x       y       z     vdW  Elec       q    Type
REMARK                         _______ _______ _______ _____ _____    ______ ____
ROOT
ATOM      1  C   UNL     1       1.266  10.058  19.653  0.00  0.00    +0.000 C 
ENDROOT
BRANCH   1   2
ATOM      2  N   UNL     1       0.448  10.783  18.566  0.00  0.00    +0.000 NA
ATOM      3  C   UNL     1      -0.746  10.037  18.123  0.00  0.00    +0.000 C 
ATOM      4  C   UNL     1      -1.864  10.724  17.304  0.00  0.00    +0.000 C 
ATOM      5  C   UNL     1      -3.040   9.753  17.103  0.00  0.00    +0.000 C 
ATOM      6  N   UNL     1      -2.270  12.017  17.926  0.00  0.00    +0.000 NA
ATOM      7  C   UNL     1      -1.036  12.817  17.925  0.00  0.00    +0.000 C 
ATOM      8  C   UNL     1       0.182  12.241  18.745  0.00  0.00    +0.000 C 
ATOM      9  C   UNL     1       1.333  13.147  18.262  0.00  0.00    +0.000 C 
BRANCH   6  10
ATOM     10  C   UNL     1      -2.811  11.917  19.305  0.00  0.00    +0.000 C 
BRANCH  10  11
ATOM     11  C   UNL     1      -4.282  12.290  19.453  0.00  0.00    +0.000 A 
ATOM     12  C   UNL     1      -5.149  12.187  18.354  0.00  0.00    +0.000 A 
ATOM     13  C   UNL     1      -6.512  12.456  18.503  0.00  0.00    +0.000 A 
ATOM     14  C   UNL     1      -7.026  12.831  19.745  0.00  0.00    +0.000 A 
ATOM     15  C   UNL     1      -6.174  12.946  20.837  0.00  0.00    +0.000 A 
ATOM     16  C   UNL     1      -4.807  12.680  20.693  0.00  0.00    +0.000 A 
ENDBRANCH  10  11
ENDBRANCH   6  10
ENDBRANCH   1   2
BRANCH   1  20
ATOM     17  C   UNL     1       2.373   5.955  18.534  0.00  0.00    +0.000 A 
ATOM     18  C   UNL     1       2.434   7.011  17.650  0.00  0.00    +0.000 A 
ATOM     19  C   UNL     1       2.408   8.308  18.130  0.00  0.00    +0.000 A 
ATOM     20  C   UNL     1       1.813   8.621  19.349  0.00  0.00    +0.000 A 
ATOM     21  C   UNL     1       1.830   7.557  20.269  0.00  0.00    +0.000 A 
ATOM     22  C   UNL     1       2.116   6.239  19.874  0.00  0.00    +0.000 A 
BRANCH  17  24
ATOM     23  N   UNL     1       3.801   3.884  18.368  0.00  0.00    +0.000 N 
ATOM     24  C   UNL     1       2.594   4.558  18.087  0.00  0.00    +0.000 C 
ATOM     25  O   UNL     1       1.670   4.032  17.460  0.00  0.00    +0.000 OA
BRANCH  23  27
ATOM     26  C   UNL     1       3.595   1.435  18.576  0.00  0.00    +0.000 C 
ATOM     27  C   UNL     1       3.983   2.607  17.688  0.00  0.00    +0.000 C 
ENDBRANCH  23  27
BRANCH  23  28
ATOM     28  C   UNL     1       4.928   4.429  19.142  0.00  0.00    +0.000 C 
ATOM     29  C   UNL     1       5.945   5.285  18.413  0.00  0.00    +0.000 C 
ENDBRANCH  23  28
ENDBRANCH  17  24
ENDBRANCH   1  20
BRANCH   1  30
ATOM     30  C   UNL     1       0.549  10.170  21.021  0.00  0.00    +0.000 A 
ATOM     31  C   UNL     1       0.203   9.020  21.771  0.00  0.00    +0.000 A 
ATOM     32  C   UNL     1      -0.580   9.110  22.920  0.00  0.00    +0.000 A 
ATOM     33  C   UNL     1      -1.051  10.351  23.330  0.00  0.00    +0.000 A 
ATOM     34  C   UNL     1      -0.716  11.510  22.624  0.00  0.00    +0.000 A 
ATOM     35  C   UNL     1       0.086  11.421  21.477  0.00  0.00    +0.000 A 
BRANCH  34  36
ATOM     36  O   UNL     1      -1.266  12.651  23.141  0.00  0.00    +0.000 OA
ATOM     37  C   UNL     1      -0.670  13.883  22.764  0.00  0.00    +0.000 C 
ENDBRANCH  34  36
ENDBRANCH   1  30
TORSDOF 9
ENDMDL
MODEL 2
REMARK VINA RESULT:      -8.2      1.057      1.627
REMARK  Name = 
REMARK  14 active torsions:
REMARK  status: ('A' for Active; 'I' for Inactive)
REMARK    1  A    between atoms: C_1  and  C_2
REMARK    2  A    between atoms: C_2  and  N_3
REMARK    3  A    between atoms: N_3  and  C_4
REMARK    4  A    between atoms: C_4  and  C_5
REMARK    5  A    between atoms: C_6  and  C_8
REMARK    6  A    between atoms: C_11  and  C_12
REMARK    7  A    between atoms: C_12  and  C_13
REMARK    8  A    between atoms: C_12  and  N_21
REMARK    9  A    between atoms: C_17  and  O_18
REMARK   10  A    between atoms: O_18  and  C_19
REMARK   11  A    between atoms: C_23  and  C_24
REMARK   12  A    between atoms: N_25  and  C_26
REMARK   13  A    between atoms: C_26  and  C_27
REMARK   14  A    between atoms: C_34  and  C_35
REMARK                            x       y       z     vdW  Elec       q    Type
REMARK                         _______ _______ _______ _____ _____    ______ ____
ROOT
ATOM      1  C   UNL     1       1.167  10.121  19.703  0.00  0.00    +0.000 C 
ENDROOT
BRANCH   1   2
ATOM      2  N   UNL     1       0.351  10.823  18.599  0.00  0.00    +0.000 NA
ATOM      3  C   UNL     1      -0.817  10.048  18.139  0.00  0.00    +0.000 C 
ATOM      4  C   UNL     1      -1.936  10.705  17.298  0.00  0.00    +0.000 C 
ATOM      5  C   UNL     1      -3.086   9.706  17.080  0.00  0.00    +0.000 C 
ATOM      6  N   UNL     1      -2.384  11.991  17.907  0.00  0.00    +0.000 NA
ATOM      7  C   UNL     1      -1.169  12.820  17.924  0.00  0.00    +0.000 C 
ATOM      8  C   UNL     1       0.048  12.275  18.767  0.00  0.00    +0.000 C 
ATOM      9  C   UNL     1       1.186  13.206  18.301  0.00  0.00    +0.000 C 
BRANCH   6  10
ATOM     10  C   UNL     1      -2.946  11.884  19.277  0.00  0.00    +0.000 C 
BRANCH  10  11
ATOM     11  C   UNL     1      -4.387  12.359  19.426  0.00  0.00    +0.000 A 
ATOM     12  C   UNL     1      -5.423  11.688  18.758  0.00  0.00    +0.000 A 
ATOM     13  C   UNL     1      -6.752  12.074  18.950  0.00  0.00    +0.000 A 
ATOM     14  C   UNL     1      -7.065  13.131  19.806  0.00  0.00    +0.000 A 
ATOM     15  C   UNL     1      -6.045  13.809  20.463  0.00  0.00    +0.000 A 
ATOM     16  C   UNL     1      -4.711  13.428  20.273  0.00  0.00    +0.000 A 
ENDBRANCH  10  11
ENDBRANCH   6  10
ENDBRANCH   1   2
BRANCH   1  20
ATOM     17  C   UNL     1       3.075   6.190  19.242  0.00  0.00    +0.000 A 
ATOM     18  C   UNL     1       2.435   6.578  20.400  0.00  0.00    +0.000 A 
ATOM     19  C   UNL     1       1.574   7.659  20.378  0.00  0.00    +0.000 A 
ATOM     20  C   UNL     1       1.706   8.675  19.435  0.00  0.00    +0.000 A 
ATOM     21  C   UNL     1       2.287   8.245  18.228  0.00  0.00    +0.000 A 
ATOM     22  C   UNL     1       2.957   7.013  18.124  0.00  0.00    +0.000 A 
BRANCH  17  24
ATOM     23  N   UNL     1       3.207   3.688  18.963  0.00  0.00    +0.000 N 
ATOM     24  C   UNL     1       3.849   4.927  19.171  0.00  0.00    +0.000 C 
ATOM     25  O   UNL     1       5.072   5.027  19.307  0.00  0.00    +0.000 OA
BRANCH  23  27
ATOM     26  C   UNL     1       3.616   1.372  18.220  0.00  0.00    +0.000 C 
ATOM     27  C   UNL     1       4.045   2.507  19.136  0.00  0.00    +0.000 C 
ENDBRANCH  23  27
BRANCH  23  28
ATOM     28  C   UNL     1       1.763   3.494  18.753  0.00  0.00    +0.000 C 
ATOM     29  C   UNL     1       0.892   3.258  19.970  0.00  0.00    +0.000 C 
ENDBRANCH  23  28
ENDBRANCH  17  24
ENDBRANCH   1  20
BRANCH   1  30
ATOM     30  C   UNL     1       0.453  10.273  21.069  0.00  0.00    +0.000 A 
ATOM     31  C   UNL     1       0.098   9.145  21.847  0.00  0.00    +0.000 A 
ATOM     32  C   UNL     1      -0.682   9.268  22.994  0.00  0.00    +0.000 A 
ATOM     33  C   UNL     1      -1.142  10.522  23.375  0.00  0.00    +0.000 A 
ATOM     34  C   UNL     1      -0.799  11.661  22.641  0.00  0.00    +0.000 A 
ATOM     35  C   UNL     1       0.001  11.538  21.496  0.00  0.00    +0.000 A 
BRANCH  34  36
ATOM     36  O   UNL     1      -1.338  12.819  23.131  0.00  0.00    +0.000 OA
ATOM     37  C   UNL     1      -2.730  12.817  23.407  0.00  0.00    +0.000 C 
ENDBRANCH  34  36
ENDBRANCH   1  30
TORSDOF 9
ENDMDL
MODEL 3
REMARK VINA RESULT:      -8.1      2.691      5.009
REMARK  Name = 
REMARK  14 active torsions:
REMARK  status: ('A' for Active; 'I' for Inactive)
REMARK    1  A    between atoms: C_1  and  C_2
REMARK    2  A    between atoms: C_2  and  N_3
REMARK    3  A    between atoms: N_3  and  C_4
REMARK    4  A    between atoms: C_4  and  C_5
REMARK    5  A    between atoms: C_6  and  C_8
REMARK    6  A    between atoms: C_11  and  C_12
REMARK    7  A    between atoms: C_12  and  C_13
REMARK    8  A    between atoms: C_12  and  N_21
REMARK    9  A    between atoms: C_17  and  O_18
REMARK   10  A    between atoms: O_18  and  C_19
REMARK   11  A    between atoms: C_23  and  C_24
REMARK   12  A    between atoms: N_25  and  C_26
REMARK   13  A    between atoms: C_26  and  C_27
REMARK   14  A    between atoms: C_34  and  C_35
REMARK                            x       y       z     vdW  Elec       q    Type
REMARK                         _______ _______ _______ _____ _____    ______ ____
ROOT
ATOM      1  C   UNL     1       0.105  10.173  20.036  0.00  0.00    +0.000 C 
ENDROOT
BRANCH   1   2
ATOM      2  N   UNL     1       0.651  11.423  20.754  0.00  0.00    +0.000 NA
ATOM      3  C   UNL     1       1.724  12.114  20.013  0.00  0.00    +0.000 C 
ATOM      4  C   UNL     1       2.164  13.548  20.389  0.00  0.00    +0.000 C 
ATOM      5  C   UNL     1       3.194  14.065  19.370  0.00  0.00    +0.000 C 
ATOM      6  N   UNL     1       0.987  14.450  20.543  0.00  0.00    +0.000 NA
ATOM      7  C   UNL     1       0.201  13.831  21.621  0.00  0.00    +0.000 C 
ATOM      8  C   UNL     1      -0.332  12.369  21.359  0.00  0.00    +0.000 C 
ATOM      9  C   UNL     1      -0.806  11.958  22.768  0.00  0.00    +0.000 C 
BRANCH   6  10
ATOM     10  C   UNL     1       0.147  14.612  19.329  0.00  0.00    +0.000 C 
BRANCH  10  11
ATOM     11  C   UNL     1       0.013  16.042  18.818  0.00  0.00    +0.000 A 
ATOM     12  C   UNL     1       1.075  16.645  18.125  0.00  0.00    +0.000 A 
ATOM     13  C   UNL     1       0.930  17.927  17.591  0.00  0.00    +0.000 A 
ATOM     14  C   UNL     1      -0.269  18.625  17.741  0.00  0.00    +0.000 A 
ATOM     15  C   UNL     1      -1.323  18.041  18.436  0.00  0.00    +0.000 A 
ATOM     16  C   UNL     1      -1.183  16.756  18.975  0.00  0.00    +0.000 A 
ENDBRANCH  10  11
ENDBRANCH   6  10
ENDBRANCH   1   2
BRANCH   1  20
ATOM     17  C   UNL     1       2.561   6.915  18.403  0.00  0.00    +0.000 A 
ATOM     18  C   UNL     1       2.143   7.987  17.644  0.00  0.00    +0.000 A 
ATOM     19  C   UNL     1       1.677   9.129  18.269  0.00  0.00    +0.000 A 
ATOM     20  C   UNL     1       1.119   9.085  19.543  0.00  0.00    +0.000 A 
ATOM     21  C   UNL     1       1.615   8.033  20.335  0.00  0.00    +0.000 A 
ATOM     22  C   UNL     1       2.337   6.963  19.778  0.00  0.00    +0.000 A 
BRANCH  17  24
ATOM     23  N   UNL     1       4.533   5.879  17.225  0.00  0.00    +0.000 N 
ATOM     24  C   UNL     1       3.247   5.752  17.790  0.00  0.00    +0.000 C 
ATOM     25  O   UNL     1       2.629   4.684  17.801  0.00  0.00    +0.000 OA
BRANCH  23  27
ATOM     26  C   UNL     1       5.458   5.126  15.066  0.00  0.00    +0.000 C 
ATOM     27  C   UNL     1       5.001   4.728  16.461  0.00  0.00    +0.000 C 
ENDBRANCH  23  27
BRANCH  23  28
ATOM     28  C   UNL     1       5.347   7.105  17.209  0.00  0.00    +0.000 C 
ATOM     29  C   UNL     1       6.752   7.034  17.772  0.00  0.00    +0.000 C 
ENDBRANCH  23  28
ENDBRANCH  17  24
ENDBRANCH   1  20
BRANCH   1  30
ATOM     30  C   UNL     1      -0.928  10.588  18.959  0.00  0.00    +0.000 A 
ATOM     31  C   UNL     1      -1.873  11.616  19.198  0.00  0.00    +0.000 A 
ATOM     32  C   UNL     1      -2.901  11.882  18.297  0.00  0.00    +0.000 A 
ATOM     33  C   UNL     1      -3.017  11.112  17.146  0.00  0.00    +0.000 A 
ATOM     34  C   UNL     1      -2.093  10.101  16.869  0.00  0.00    +0.000 A 
ATOM     35  C   UNL     1      -1.049   9.844  17.769  0.00  0.00    +0.000 A 
BRANCH  34  36
ATOM     36  O   UNL     1      -2.348   9.422  15.709  0.00  0.00    +0.000 OA
ATOM     37  C   UNL     1      -3.139  10.083  14.733  0.00  0.00    +0.000 C 
ENDBRANCH  34  36
ENDBRANCH   1  30
TORSDOF 9
ENDMDL
MODEL 4
REMARK VINA RESULT:      -8.1      2.284      4.356
REMARK  Name = 
REMARK  14 active torsions:
REMARK  status: ('A' for Active; 'I' for Inactive)
REMARK    1  A    between atoms: C_1  and  C_2
REMARK    2  A    between atoms: C_2  and  N_3
REMARK    3  A    between atoms: N_3  and  C_4
REMARK    4  A    between atoms: C_4  and  C_5
REMARK    5  A    between atoms: C_6  and  C_8
REMARK    6  A    between atoms: C_11  and  C_12
REMARK    7  A    between atoms: C_12  and  C_13
REMARK    8  A    between atoms: C_12  and  N_21
REMARK    9  A    between atoms: C_17  and  O_18
REMARK   10  A    between atoms: O_18  and  C_19
REMARK   11  A    between atoms: C_23  and  C_24
REMARK   12  A    between atoms: N_25  and  C_26
REMARK   13  A    between atoms: C_26  and  C_27
REMARK   14  A    between atoms: C_34  and  C_35
REMARK                            x       y       z     vdW  Elec       q    Type
REMARK                         _______ _______ _______ _____ _____    ______ ____
ROOT
ATOM      1  C   UNL     1      -0.535  10.178  19.946  0.00  0.00    +0.000 C 
ENDROOT
BRANCH   1   2
ATOM      2  N   UNL     1      -0.307  11.382  20.881  0.00  0.00    +0.000 NA
ATOM      3  C   UNL     1      -0.037  12.646  20.170  0.00  0.00    +0.000 C 
ATOM      4  C   UNL     1      -0.115  14.010  20.896  0.00  0.00    +0.000 C 
ATOM      5  C   UNL     1       0.074  15.155  19.887  0.00  0.00    +0.000 C 
ATOM      6  N   UNL     1      -1.373  14.127  21.688  0.00  0.00    +0.000 NA
ATOM      7  C   UNL     1      -1.299  13.012  22.645  0.00  0.00    +0.000 C 
ATOM      8  C   UNL     1      -1.236  11.559  22.036  0.00  0.00    +0.000 C 
ATOM      9  C   UNL     1      -0.856  10.723  23.275  0.00  0.00    +0.000 C 
BRANCH   6  10
ATOM     10  C   UNL     1      -2.630  14.039  20.902  0.00  0.00    +0.000 C 
BRANCH  10  11
ATOM     11  C   UNL     1      -3.908  13.956  21.729  0.00  0.00    +0.000 A 
ATOM     12  C   UNL     1      -4.267  15.015  22.578  0.00  0.00    +0.000 A 
ATOM     13  C   UNL     1      -5.474  14.977  23.281  0.00  0.00    +0.000 A 
ATOM     14  C   UNL     1      -6.335  13.886  23.148  0.00  0.00    +0.000 A 
ATOM     15  C   UNL     1      -5.983  12.828  22.318  0.00  0.00    +0.000 A 
ATOM     16  C   UNL     1      -4.774  12.860  21.612  0.00  0.00    +0.000 A 
ENDBRANCH  10  11
ENDBRANCH   6  10
ENDBRANCH   1   2
BRANCH   1  20
ATOM     17  C   UNL     1       2.618   7.546  18.384  0.00  0.00    +0.000 A 
ATOM     18  C   UNL     1       2.098   8.598  17.660  0.00  0.00    +0.000 A 
ATOM     19  C   UNL     1       1.373   9.582  18.306  0.00  0.00    +0.000 A 
ATOM     20  C   UNL     1       0.703   9.328  19.499  0.00  0.00    +0.000 A 
ATOM     21  C   UNL     1       1.293   8.306  20.266  0.00  0.00    +0.000 A 
ATOM     22  C   UNL     1       2.248   7.429  19.723  0.00  0.00    +0.000 A 
BRANCH  17  24
ATOM     23  N   UNL     1       3.180   5.239  17.537  0.00  0.00    +0.000 N 
ATOM     24  C   UNL     1       3.561   6.577  17.774  0.00  0.00    +0.000 C 
ATOM     25  O   UNL     1       4.683   7.008  17.494  0.00  0.00    +0.000 OA
BRANCH  23  27
ATOM     26  C   UNL     1       5.150   3.981  18.324  0.00  0.00    +0.000 C 
ATOM     27  C   UNL     1       4.258   4.338  17.146  0.00  0.00    +0.000 C 
ENDBRANCH  23  27
BRANCH  23  28
ATOM     28  C   UNL     1       1.852   4.664  17.806  0.00  0.00    +0.000 C 
ATOM     29  C   UNL     1       1.684   3.812  19.048  0.00  0.00    +0.000 C 
ENDBRANCH  23  28
ENDBRANCH  17  24
ENDBRANCH   1  20
BRANCH   1  30
ATOM     30  C   UNL     1      -1.461  10.586  18.773  0.00  0.00    +0.000 A 
ATOM     31  C   UNL     1      -2.500  11.533  18.945  0.00  0.00    +0.000 A 
ATOM     32  C   UNL     1      -3.430  11.782  17.940  0.00  0.00    +0.000 A 
ATOM     33  C   UNL     1      -3.354  11.074  16.747  0.00  0.00    +0.000 A 
ATOM     34  C   UNL     1      -2.332  10.144  16.534  0.00  0.00    +0.000 A 
ATOM     35  C   UNL     1      -1.386   9.905  17.541  0.00  0.00    +0.000 A 
BRANCH  34  36
ATOM     36  O   UNL     1      -2.398   9.518  15.320  0.00  0.00    +0.000 OA
ATOM     37  C   UNL     1      -3.247  10.095  14.340  0.00  0.00    +0.000 C 
ENDBRANCH  34  36
ENDBRANCH   1  30
TORSDOF 9
ENDMDL
MODEL 5
REMARK VINA RESULT:      -8.1      1.018      1.561
REMARK  Name = 
REMARK  14 active torsions:
REMARK  status: ('A' for Active; 'I' for Inactive)
REMARK    1  A    between atoms: C_1  and  C_2
REMARK    2  A    between atoms: C_2  and  N_3
REMARK    3  A    between atoms: N_3  and  C_4
REMARK    4  A    between atoms: C_4  and  C_5
REMARK    5  A    between atoms: C_6  and  C_8
REMARK    6  A    between atoms: C_11  and  C_12
REMARK    7  A    between atoms: C_12  and  C_13
REMARK    8  A    between atoms: C_12  and  N_21
REMARK    9  A    between atoms: C_17  and  O_18
REMARK   10  A    between atoms: O_18  and  C_19
REMARK   11  A    between atoms: C_23  and  C_24
REMARK   12  A    between atoms: N_25  and  C_26
REMARK   13  A    between atoms: C_26  and  C_27
REMARK   14  A    between atoms: C_34  and  C_35
REMARK                            x       y       z     vdW  Elec       q    Type
REMARK                         _______ _______ _______ _____ _____    ______ ____
ROOT
ATOM      1  C   UNL     1       1.319   9.983  19.581  0.00  0.00    +0.000 C 
ENDROOT
BRANCH   1   2
ATOM      2  N   UNL     1       0.471  10.731  18.532  0.00  0.00    +0.000 NA
ATOM      3  C   UNL     1      -0.742  10.000  18.118  0.00  0.00    +0.000 C 
ATOM      4  C   UNL     1      -1.880  10.707  17.345  0.00  0.00    +0.000 C 
ATOM      5  C   UNL     1      -3.070   9.748  17.168  0.00  0.00    +0.000 C 
ATOM      6  N   UNL     1      -2.256  11.994  17.998  0.00  0.00    +0.000 NA
ATOM      7  C   UNL     1      -1.017  12.785  17.969  0.00  0.00    +0.000 C 
ATOM      8  C   UNL     1       0.223  12.188  18.740  0.00  0.00    +0.000 C 
ATOM      9  C   UNL     1       1.365  13.092  18.233  0.00  0.00    +0.000 C 
BRANCH   6  10
ATOM     10  C   UNL     1      -2.753  11.878  19.392  0.00  0.00    +0.000 C 
BRANCH  10  11
ATOM     11  C   UNL     1      -4.148  12.445  19.633  0.00  0.00    +0.000 A 
ATOM     12  C   UNL     1      -4.317  13.582  20.438  0.00  0.00    +0.000 A 
ATOM     13  C   UNL     1      -5.584  14.149  20.601  0.00  0.00    +0.000 A 
ATOM     14  C   UNL     1      -6.694  13.591  19.967  0.00  0.00    +0.000 A 
ATOM     15  C   UNL     1      -6.539  12.458  19.176  0.00  0.00    +0.000 A 
ATOM     16  C   UNL     1      -5.272  11.884  19.011  0.00  0.00    +0.000 A 
ENDBRANCH  10  11
ENDBRANCH   6  10
ENDBRANCH   1   2
BRANCH   1  20
ATOM     17  C   UNL     1       2.585   5.977  18.295  0.00  0.00    +0.000 A 
ATOM     18  C   UNL     1       2.479   7.041  17.425  0.00  0.00    +0.000 A 
ATOM     19  C   UNL     1       2.413   8.329  17.923  0.00  0.00    +0.000 A 
ATOM     20  C   UNL     1       1.929   8.591  19.201  0.00  0.00    +0.000 A 
ATOM     21  C   UNL     1       2.117   7.525  20.100  0.00  0.00    +0.000 A 
ATOM     22  C   UNL     1       2.452   6.233  19.658  0.00  0.00    +0.000 A 
BRANCH  17  24
ATOM     23  N   UNL     1       2.075   3.509  18.240  0.00  0.00    +0.000 N 
ATOM     24  C   UNL     1       2.855   4.603  17.808  0.00  0.00    +0.000 C 
ATOM     25  O   UNL     1       3.793   4.477  17.015  0.00  0.00    +0.000 OA
BRANCH  23  27
ATOM     26  C   UNL     1       3.709   1.742  18.779  0.00  0.00    +0.000 C 
ATOM     27  C   UNL     1       2.577   2.192  17.868  0.00  0.00    +0.000 C 
ENDBRANCH  23  27
BRANCH  23  28
ATOM     28  C   UNL     1       0.919   3.585  19.149  0.00  0.00    +0.000 C 
ATOM     29  C   UNL     1       1.099   3.095  20.571  0.00  0.00    +0.000 C 
ENDBRANCH  23  28
ENDBRANCH  17  24
ENDBRANCH   1  20
BRANCH   1  30
ATOM     30  C   UNL     1       0.594   9.989  20.950  0.00  0.00    +0.000 A 
ATOM     31  C   UNL     1       0.188   8.786  21.576  0.00  0.00    +0.000 A 
ATOM     32  C   UNL     1      -0.601   8.794  22.724  0.00  0.00    +0.000 A 
ATOM     33  C   UNL     1      -1.018  10.007  23.258  0.00  0.00    +0.000 A 
ATOM     34  C   UNL     1      -0.622  11.215  22.677  0.00  0.00    +0.000 A 
ATOM     35  C   UNL     1       0.186  11.206  21.531  0.00  0.00    +0.000 A 
BRANCH  34  36
ATOM     36  O   UNL     1      -1.123  12.322  23.306  0.00  0.00    +0.000 OA
ATOM     37  C   UNL     1      -2.535  12.445  23.369  0.00  0.00    +0.000 C 
ENDBRANCH  34  36
ENDBRANCH   1  30
TORSDOF 9
ENDMDL
MODEL 6
REMARK VINA RESULT:      -8.0      1.347      1.919
REMARK  Name = 
REMARK  14 active torsions:
REMARK  status: ('A' for Active; 'I' for Inactive)
REMARK    1  A    between atoms: C_1  and  C_2
REMARK    2  A    between atoms: C_2  and  N_3
REMARK    3  A    between atoms: N_3  and  C_4
REMARK    4  A    between atoms: C_4  and  C_5
REMARK    5  A    between atoms: C_6  and  C_8
REMARK    6  A    between atoms: C_11  and  C_12
REMARK    7  A    between atoms: C_12  and  C_13
REMARK    8  A    between atoms: C_12  and  N_21
REMARK    9  A    between atoms: C_17  and  O_18
REMARK   10  A    between atoms: O_18  and  C_19
REMARK   11  A    between atoms: C_23  and  C_24
REMARK   12  A    between atoms: N_25  and  C_26
REMARK   13  A    between atoms: C_26  and  C_27
REMARK   14  A    between atoms: C_34  and  C_35
REMARK                            x       y       z     vdW  Elec       q    Type
REMARK                         _______ _______ _______ _____ _____    ______ ____
ROOT
ATOM      1  C   UNL     1       1.385   9.974  19.421  0.00  0.00    +0.000 C 
ENDROOT
BRANCH   1   2
ATOM      2  N   UNL     1       0.501  10.808  18.473  0.00  0.00    +0.000 NA
ATOM      3  C   UNL     1      -0.761  10.143  18.097  0.00  0.00    +0.000 C 
ATOM      4  C   UNL     1      -1.919  10.931  17.440  0.00  0.00    +0.000 C 
ATOM      5  C   UNL     1      -3.151  10.023  17.287  0.00  0.00    +0.000 C 
ATOM      6  N   UNL     1      -2.207  12.189  18.188  0.00  0.00    +0.000 NA
ATOM      7  C   UNL     1      -0.944  12.939  18.124  0.00  0.00    +0.000 C 
ATOM      8  C   UNL     1       0.319  12.258  18.779  0.00  0.00    +0.000 C 
ATOM      9  C   UNL     1       1.459  13.153  18.252  0.00  0.00    +0.000 C 
BRANCH   6  10
ATOM     10  C   UNL     1      -2.620  12.007  19.603  0.00  0.00    +0.000 C 
BRANCH  10  11
ATOM     11  C   UNL     1      -3.940  12.668  19.984  0.00  0.00    +0.000 A 
ATOM     12  C   UNL     1      -3.944  13.846  20.746  0.00  0.00    +0.000 A 
ATOM     13  C   UNL     1      -5.147  14.496  21.034  0.00  0.00    +0.000 A 
ATOM     14  C   UNL     1      -6.358  13.980  20.568  0.00  0.00    +0.000 A 
ATOM     15  C   UNL     1      -6.365  12.808  19.821  0.00  0.00    +0.000 A 
ATOM     16  C   UNL     1      -5.163  12.151  19.531  0.00  0.00    +0.000 A 
ENDBRANCH  10  11
ENDBRANCH   6  10
ENDBRANCH   1   2
BRANCH   1  20
ATOM     17  C   UNL     1       3.575   6.379  18.160  0.00  0.00    +0.000 A 
ATOM     18  C   UNL     1       3.098   6.551  19.442  0.00  0.00    +0.000 A 
ATOM     19  C   UNL     1       2.142   7.516  19.693  0.00  0.00    +0.000 A 
ATOM     20  C   UNL     1       2.014   8.642  18.885  0.00  0.00    +0.000 A 
ATOM     21  C   UNL     1       2.430   8.428  17.558  0.00  0.00    +0.000 A 
ATOM     22  C   UNL     1       3.193   7.306  17.192  0.00  0.00    +0.000 A 
BRANCH  17  24
ATOM     23  N   UNL     1       5.789   5.435  17.409  0.00  0.00    +0.000 N 
ATOM     24  C   UNL     1       4.450   5.235  17.806  0.00  0.00    +0.000 C 
ATOM     25  O   UNL     1       3.939   4.114  17.875  0.00  0.00    +0.000 OA
BRANCH  23  27
ATOM     26  C   UNL     1       6.493   4.266  15.354  0.00  0.00    +0.000 C 
ATOM     27  C   UNL     1       6.470   4.262  16.875  0.00  0.00    +0.000 C 
ENDBRANCH  23  27
BRANCH  23  28
ATOM     28  C   UNL     1       6.479   6.734  17.340  0.00  0.00    +0.000 C 
ATOM     29  C   UNL     1       7.745   6.910  18.152  0.00  0.00    +0.000 C 
ENDBRANCH  23  28
ENDBRANCH  17  24
ENDBRANCH   1  20
BRANCH   1  30
ATOM     30  C   UNL     1       0.690   9.820  20.797  0.00  0.00    +0.000 A 
ATOM     31  C   UNL     1       0.328   8.549  21.304  0.00  0.00    +0.000 A 
ATOM     32  C   UNL     1      -0.436   8.418  22.461  0.00  0.00    +0.000 A 
ATOM     33  C   UNL     1      -0.873   9.559  23.124  0.00  0.00    +0.000 A 
ATOM     34  C   UNL     1      -0.521  10.830  22.662  0.00  0.00    +0.000 A 
ATOM     35  C   UNL     1       0.263  10.960  21.506  0.00  0.00    +0.000 A 
BRANCH  34  36
ATOM     36  O   UNL     1      -1.036  11.853  23.409  0.00  0.00    +0.000 OA
ATOM     37  C   UNL     1      -2.447  12.007  23.407  0.00  0.00    +0.000 C 
ENDBRANCH  34  36
ENDBRANCH   1  30
TORSDOF 9
ENDMDL
MODEL 7
REMARK VINA RESULT:      -7.8      2.718      4.944
REMARK  Name = 
REMARK  14 active torsions:
REMARK  status: ('A' for Active; 'I' for Inactive)
REMARK    1  A    between atoms: C_1  and  C_2
REMARK    2  A    between atoms: C_2  and  N_3
REMARK    3  A    between atoms: N_3  and  C_4
REMARK    4  A    between atoms: C_4  and  C_5
REMARK    5  A    between atoms: C_6  and  C_8
REMARK    6  A    between atoms: C_11  and  C_12
REMARK    7  A    between atoms: C_12  and  C_13
REMARK    8  A    between atoms: C_12  and  N_21
REMARK    9  A    between atoms: C_17  and  O_18
REMARK   10  A    between atoms: O_18  and  C_19
REMARK   11  A    between atoms: C_23  and  C_24
REMARK   12  A    between atoms: N_25  and  C_26
REMARK   13  A    between atoms: C_26  and  C_27
REMARK   14  A    between atoms: C_34  and  C_35
REMARK                            x       y       z     vdW  Elec       q    Type
REMARK                         _______ _______ _______ _____ _____    ______ ____
ROOT
ATOM      1  C   UNL     1      -0.052   9.959  20.152  0.00  0.00    +0.000 C 
ENDROOT
BRANCH   1   2
ATOM      2  N   UNL     1       0.270  11.113  21.122  0.00  0.00    +0.000 NA
ATOM      3  C   UNL     1       1.219  12.102  20.576  0.00  0.00    +0.000 C 
ATOM      4  C   UNL     1       1.409  13.485  21.242  0.00  0.00    +0.000 C 
ATOM      5  C   UNL     1       2.346  14.356  20.388  0.00  0.00    +0.000 C 
ATOM      6  N   UNL     1       0.095  14.135  21.519  0.00  0.00    +0.000 NA
ATOM      7  C   UNL     1      -0.585  13.194  22.421  0.00  0.00    +0.000 C 
ATOM      8  C   UNL     1      -0.863  11.747  21.858  0.00  0.00    +0.000 C 
ATOM      9  C   UNL     1      -1.274  10.992  23.138  0.00  0.00    +0.000 C 
BRANCH   6  10
ATOM     10  C   UNL     1      -0.749  14.396  20.326  0.00  0.00    +0.000 C 
BRANCH  10  11
ATOM     11  C   UNL     1      -0.759  15.842  19.842  0.00  0.00    +0.000 A 
ATOM     12  C   UNL     1      -1.049  16.883  20.739  0.00  0.00    +0.000 A 
ATOM     13  C   UNL     1      -0.986  18.214  20.318  0.00  0.00    +0.000 A 
ATOM     14  C   UNL     1      -0.636  18.524  19.004  0.00  0.00    +0.000 A 
ATOM     15  C   UNL     1      -0.357  17.500  18.105  0.00  0.00    +0.000 A 
ATOM     16  C   UNL     1      -0.421  16.164  18.520  0.00  0.00    +0.000 A 
ENDBRANCH  10  11
ENDBRANCH   6  10
ENDBRANCH   1   2
BRANCH   1  20
ATOM     17  C   UNL     1       2.698   6.704  19.075  0.00  0.00    +0.000 A 
ATOM     18  C   UNL     1       2.366   7.719  18.204  0.00  0.00    +0.000 A 
ATOM     19  C   UNL     1       1.785   8.876  18.689  0.00  0.00    +0.000 A 
ATOM     20  C   UNL     1       1.051   8.882  19.872  0.00  0.00    +0.000 A 
ATOM     21  C   UNL     1       1.456   7.891  20.785  0.00  0.00    +0.000 A 
ATOM     22  C   UNL     1       2.278   6.818  20.400  0.00  0.00    +0.000 A 
BRANCH  17  24
ATOM     23  N   UNL     1       2.885   4.285  18.392  0.00  0.00    +0.000 N 
ATOM     24  C   UNL     1       3.495   5.534  18.634  0.00  0.00    +0.000 C 
ATOM     25  O   UNL     1       4.708   5.719  18.498  0.00  0.00    +0.000 OA
BRANCH  23  27
ATOM     26  C   UNL     1       4.244   2.551  19.500  0.00  0.00    +0.000 C 
ATOM     27  C   UNL     1       3.799   3.168  18.183  0.00  0.00    +0.000 C 
ENDBRANCH  23  27
BRANCH  23  28
ATOM     28  C   UNL     1       1.445   3.999  18.494  0.00  0.00    +0.000 C 
ATOM     29  C   UNL     1       0.907   3.520  19.827  0.00  0.00    +0.000 C 
ENDBRANCH  23  28
ENDBRANCH  17  24
ENDBRANCH   1  20
BRANCH   1  30
ATOM     30  C   UNL     1      -0.713  10.515  18.867  0.00  0.00    +0.000 A 
ATOM     31  C   UNL     1      -0.576  11.874  18.493  0.00  0.00    +0.000 A 
ATOM     32  C   UNL     1      -1.297  12.412  17.430  0.00  0.00    +0.000 A 
ATOM     33  C   UNL     1      -2.187  11.607  16.731  0.00  0.00    +0.000 A 
ATOM     34  C   UNL     1      -2.336  10.256  17.060  0.00  0.00    +0.000 A 
ATOM     35  C   UNL     1      -1.598   9.711  18.120  0.00  0.00    +0.000 A 
BRANCH  34  36
ATOM     36  O   UNL     1      -3.258   9.599  16.293  0.00  0.00    +0.000 OA
ATOM     37  C   UNL     1      -3.444  10.064  14.965  0.00  0.00    +0.000 C 
ENDBRANCH  34  36
ENDBRANCH   1  30
TORSDOF 9
ENDMDL
MODEL 8
REMARK VINA RESULT:      -7.8      2.097      4.026
REMARK  Name = 
REMARK  14 active torsions:
REMARK  status: ('A' for Active; 'I' for Inactive)
REMARK    1  A    between atoms: C_1  and  C_2
REMARK    2  A    between atoms: C_2  and  N_3
REMARK    3  A    between atoms: N_3  and  C_4
REMARK    4  A    between atoms: C_4  and  C_5
REMARK    5  A    between atoms: C_6  and  C_8
REMARK    6  A    between atoms: C_11  and  C_12
REMARK    7  A    between atoms: C_12  and  C_13
REMARK    8  A    between atoms: C_12  and  N_21
REMARK    9  A    between atoms: C_17  and  O_18
REMARK   10  A    between atoms: O_18  and  C_19
REMARK   11  A    between atoms: C_23  and  C_24
REMARK   12  A    between atoms: N_25  and  C_26
REMARK   13  A    between atoms: C_26  and  C_27
REMARK   14  A    between atoms: C_34  and  C_35
REMARK                            x       y       z     vdW  Elec       q    Type
REMARK                         _______ _______ _______ _____ _____    ______ ____
ROOT
ATOM      1  C   UNL     1      -0.704  10.232  19.870  0.00  0.00    +0.000 C 
ENDROOT
BRANCH   1   2
ATOM      2  N   UNL     1      -0.535  11.560  20.636  0.00  0.00    +0.000 NA
ATOM      3  C   UNL     1      -0.397  12.739  19.761  0.00  0.00    +0.000 C 
ATOM      4  C   UNL     1      -0.553  14.174  20.315  0.00  0.00    +0.000 C 
ATOM      5  C   UNL     1      -0.498  15.192  19.164  0.00  0.00    +0.000 C 
ATOM      6  N   UNL     1      -1.784  14.298  21.149  0.00  0.00    +0.000 NA
ATOM      7  C   UNL     1      -1.583  13.323  22.231  0.00  0.00    +0.000 C 
ATOM      8  C   UNL     1      -1.429  11.812  21.805  0.00  0.00    +0.000 C 
ATOM      9  C   UNL     1      -0.933  11.172  23.117  0.00  0.00    +0.000 C 
BRANCH   6  10
ATOM     10  C   UNL     1      -3.060  14.017  20.443  0.00  0.00    +0.000 C 
BRANCH  10  11
ATOM     11  C   UNL     1      -4.305  14.032  21.324  0.00  0.00    +0.000 A 
ATOM     12  C   UNL     1      -5.077  12.869  21.471  0.00  0.00    +0.000 A 
ATOM     13  C   UNL     1      -6.175  12.856  22.336  0.00  0.00    +0.000 A 
ATOM     14  C   UNL     1      -6.518  13.999  23.059  0.00  0.00    +0.000 A 
ATOM     15  C   UNL     1      -5.766  15.159  22.912  0.00  0.00    +0.000 A 
ATOM     16  C   UNL     1      -4.665  15.178  22.046  0.00  0.00    +0.000 A 
ENDBRANCH  10  11
ENDBRANCH   6  10
ENDBRANCH   1   2
BRANCH   1  20
ATOM     17  C   UNL     1       2.599   7.733  18.402  0.00  0.00    +0.000 A 
ATOM     18  C   UNL     1       2.074   8.779  17.674  0.00  0.00    +0.000 A 
ATOM     19  C   UNL     1       1.291   9.728  18.304  0.00  0.00    +0.000 A 
ATOM     20  C   UNL     1       0.579   9.431  19.463  0.00  0.00    +0.000 A 
ATOM     21  C   UNL     1       1.170   8.415  20.238  0.00  0.00    +0.000 A 
ATOM     22  C   UNL     1       2.176   7.580  19.722  0.00  0.00    +0.000 A 
BRANCH  17  24
ATOM     23  N   UNL     1       3.458   5.408  17.944  0.00  0.00    +0.000 N 
ATOM     24  C   UNL     1       3.598   6.806  17.818  0.00  0.00    +0.000 C 
ATOM     25  O   UNL     1       4.547   7.327  17.226  0.00  0.00    +0.000 OA
BRANCH  23  27
ATOM     26  C   UNL     1       5.531   4.302  18.695  0.00  0.00    +0.000 C 
ATOM     27  C   UNL     1       4.611   4.619  17.526  0.00  0.00    +0.000 C 
ENDBRANCH  23  27
BRANCH  23  28
ATOM     28  C   UNL     1       2.337   4.712  18.598  0.00  0.00    +0.000 C 
ATOM     29  C   UNL     1       1.392   3.910  17.728  0.00  0.00    +0.000 C 
ENDBRANCH  23  28
ENDBRANCH  17  24
ENDBRANCH   1  20
BRANCH   1  30
ATOM     30  C   UNL     1      -1.714  10.415  18.709  0.00  0.00    +0.000 A 
ATOM     31  C   UNL     1      -1.389  10.043  17.382  0.00  0.00    +0.000 A 
ATOM     32  C   UNL     1      -2.230  10.350  16.315  0.00  0.00    +0.000 A 
ATOM     33  C   UNL     1      -3.403  11.056  16.551  0.00  0.00    +0.000 A 
ATOM     34  C   UNL     1      -3.764  11.425  17.850  0.00  0.00    +0.000 A 
ATOM     35  C   UNL     1      -2.925  11.101  18.926  0.00  0.00    +0.000 A 
BRANCH  34  36
ATOM     36  O   UNL     1      -4.936  12.127  17.920  0.00  0.00    +0.000 OA
ATOM     37  C   UNL     1      -6.130  11.376  18.081  0.00  0.00    +0.000 C 
ENDBRANCH  34  36
ENDBRANCH   1  30
TORSDOF 9
ENDMDL
MODEL 9
REMARK VINA RESULT:      -7.8      0.795      1.213
REMARK  Name = 
REMARK  14 active torsions:
REMARK  status: ('A' for Active; 'I' for Inactive)
REMARK    1  A    between atoms: C_1  and  C_2
REMARK    2  A    between atoms: C_2  and  N_3
REMARK    3  A    between atoms: N_3  and  C_4
REMARK    4  A    between atoms: C_4  and  C_5
REMARK    5  A    between atoms: C_6  and  C_8
REMARK    6  A    between atoms: C_11  and  C_12
REMARK    7  A    between atoms: C_12  and  C_13
REMARK    8  A    between atoms: C_12  and  N_21
REMARK    9  A    between atoms: C_17  and  O_18
REMARK   10  A    between atoms: O_18  and  C_19
REMARK   11  A    between atoms: C_23  and  C_24
REMARK   12  A    between atoms: N_25  and  C_26
REMARK   13  A    between atoms: C_26  and  C_27
REMARK   14  A    between atoms: C_34  and  C_35
REMARK                            x       y       z     vdW  Elec       q    Type
REMARK                         _______ _______ _______ _____ _____    ______ ____
ROOT
ATOM      1  C   UNL     1       1.274  10.249  19.616  0.00  0.00    +0.000 C 
ENDROOT
BRANCH   1   2
ATOM      2  N   UNL     1       0.373  10.939  18.572  0.00  0.00    +0.000 NA
ATOM      3  C   UNL     1      -0.807  10.143  18.185  0.00  0.00    +0.000 C 
ATOM      4  C   UNL     1      -1.992  10.781  17.422  0.00  0.00    +0.000 C 
ATOM      5  C   UNL     1      -3.134   9.761  17.276  0.00  0.00    +0.000 C 
ATOM      6  N   UNL     1      -2.422  12.056  18.066  0.00  0.00    +0.000 NA
ATOM      7  C   UNL     1      -1.225  12.908  18.008  0.00  0.00    +0.000 C 
ATOM      8  C   UNL     1       0.055  12.384  18.766  0.00  0.00    +0.000 C 
ATOM      9  C   UNL     1       1.142  13.338  18.231  0.00  0.00    +0.000 C 
BRANCH   6  10
ATOM     10  C   UNL     1      -2.891  11.933  19.469  0.00  0.00    +0.000 C 
BRANCH  10  11
ATOM     11  C   UNL     1      -4.261  12.540  19.751  0.00  0.00    +0.000 A 
ATOM     12  C   UNL     1      -4.397  13.559  20.706  0.00  0.00    +0.000 A 
ATOM     13  C   UNL     1      -5.636  14.171  20.914  0.00  0.00    +0.000 A 
ATOM     14  C   UNL     1      -6.752  13.774  20.176  0.00  0.00    +0.000 A 
ATOM     15  C   UNL     1      -6.630  12.758  19.235  0.00  0.00    +0.000 A 
ATOM     16  C   UNL     1      -5.392  12.141  19.023  0.00  0.00    +0.000 A 
ENDBRANCH  10  11
ENDBRANCH   6  10
ENDBRANCH   1   2
BRANCH   1  20
ATOM     17  C   UNL     1       2.798   6.358  18.255  0.00  0.00    +0.000 A 
ATOM     18  C   UNL     1       2.825   7.488  17.465  0.00  0.00    +0.000 A 
ATOM     19  C   UNL     1       2.657   8.732  18.044  0.00  0.00    +0.000 A 
ATOM     20  C   UNL     1       1.960   8.892  19.238  0.00  0.00    +0.000 A 
ATOM     21  C   UNL     1       2.008   7.758  20.069  0.00  0.00    +0.000 A 
ATOM     22  C   UNL     1       2.432   6.505  19.592  0.00  0.00    +0.000 A 
BRANCH  17  24
ATOM     23  N   UNL     1       4.515   4.673  17.504  0.00  0.00    +0.000 N 
ATOM     24  C   UNL     1       3.166   5.027  17.715  0.00  0.00    +0.000 C 
ATOM     25  O   UNL     1       2.231   4.262  17.462  0.00  0.00    +0.000 OA
BRANCH  23  27
ATOM     26  C   UNL     1       5.823   3.588  15.716  0.00  0.00    +0.000 C 
ATOM     27  C   UNL     1       4.733   3.435  16.765  0.00  0.00    +0.000 C 
ENDBRANCH  23  27
BRANCH  23  28
ATOM     28  C   UNL     1       5.683   5.513  17.817  0.00  0.00    +0.000 C 
ATOM     29  C   UNL     1       6.359   5.321  19.159  0.00  0.00    +0.000 C 
ENDBRANCH  23  28
ENDBRANCH  17  24
ENDBRANCH   1  20
BRANCH   1  30
ATOM     30  C   UNL     1       0.564  10.221  20.993  0.00  0.00    +0.000 A 
ATOM     31  C   UNL     1       0.309   9.003  21.669  0.00  0.00    +0.000 A 
ATOM     32  C   UNL     1      -0.467   8.962  22.825  0.00  0.00    +0.000 A 
ATOM     33  C   UNL     1      -1.021  10.137  23.318  0.00  0.00    +0.000 A 
ATOM     34  C   UNL     1      -0.777  11.360  22.686  0.00  0.00    +0.000 A 
ATOM     35  C   UNL     1       0.018  11.403  21.532  0.00  0.00    +0.000 A 
BRANCH  34  36
ATOM     36  O   UNL     1      -1.401  12.423  23.279  0.00  0.00    +0.000 OA
ATOM     37  C   UNL     1      -0.888  13.715  22.995  0.00  0.00    +0.000 C 
ENDBRANCH  34  36
ENDBRANCH   1  30
TORSDOF 9
ENDMDL
