MODEL 1
REMARK VINA RESULT:      -8.6      0.000      0.000
REMARK  Name = 
REMARK  5 active torsions:
REMARK  status: ('A' for Active; 'I' for Inactive)
REMARK    1  A    between atoms: C_1  and  C_2
REMARK    2  A    between atoms: C_2  and  N_3
REMARK    3  A    between atoms: C_2  and  C_10
REMARK    4  A    between atoms: C_13  and  O_14
REMARK    5  A    between atoms: O_14  and  C_15
REMARK                            x       y       z     vdW  Elec       q    Type
REMARK                         _______ _______ _______ _____ _____    ______ ____
ROOT
ATOM      1  O   UNL     1       1.225   8.369  19.530  0.00  0.00    +0.000 OA
ENDROOT
BRANCH   1   2
ATOM      2  C   UNL     1       1.155   9.691  18.971  0.00  0.00    +0.000 C 
ATOM      3  C   UNL     1       0.719  10.722  20.011  0.00  0.00    +0.000 C 
ATOM      4  C   UNL     1      -0.797  10.860  19.843  0.00  0.00    +0.000 C 
ATOM      5  N   UNL     1      -0.997  10.591  18.437  0.00  0.00    +0.000 N 
ATOM      6  C   UNL     1      -2.218  10.744  17.810  0.00  0.00    +0.000 A 
ATOM      7  C   UNL     1      -2.362  10.400  16.481  0.00  0.00    +0.000 A 
ATOM      8  C   UNL     1      -3.587  10.604  15.911  0.00  0.00    +0.000 A 
ATOM      9  N   UNL     1      -4.620  11.129  16.571  0.00  0.00    +0.000 NA
ATOM     10  C   UNL     1      -4.435  11.460  17.860  0.00  0.00    +0.000 A 
ATOM     11  N   UNL     1      -5.507  11.963  18.561  0.00  0.00    +0.000 N 
ATOM     12  C   UNL     1      -6.647  12.568  17.861  0.00  0.00    +0.000 C 
ATOM     13  C   UNL     1      -6.677  14.087  18.084  0.00  0.00    +0.000 C 
ATOM     14  O   UNL     1      -6.642  14.410  19.484  0.00  0.00    +0.000 OA
ATOM     15  C   UNL     1      -5.430  13.907  20.072  0.00  0.00    +0.000 C 
ATOM     16  C   UNL     1      -5.333  12.379  19.950  0.00  0.00    +0.000 C 
ATOM     17  N   UNL     1      -3.252  11.273  18.487  0.00  0.00    +0.000 NA
ATOM     18  C   UNL     1       0.083   9.797  17.869  0.00  0.00    +0.000 C 
ENDBRANCH   1   2
BRANCH   1  22
ATOM     19  C   UNL     1       4.532   6.209  18.085  0.00  0.00    +0.000 A 
ATOM     20  C   UNL     1       3.799   5.697  19.162  0.00  0.00    +0.000 A 
ATOM     21  C   UNL     1       2.666   6.369  19.641  0.00  0.00    +0.000 A 
ATOM     22  C   UNL     1       2.253   7.573  19.068  0.00  0.00    +0.000 A 
ATOM     23  C   UNL     1       2.940   8.054  17.950  0.00  0.00    +0.000 A 
ATOM     24  C   UNL     1       4.059   7.374  17.458  0.00  0.00    +0.000 A 
BRANCH  19  26
ATOM     25  C   UNL     1       7.019   6.413  18.156  0.00  0.00    +0.000 C 
ATOM     26  C   UNL     1       5.847   5.570  17.652  0.00  0.00    +0.000 C 
BRANCH  26  27
ATOM     27  N   UNL     1       5.908   5.464  16.212  0.00  0.00    +0.000 N 
ATOM     28  C   UNL     1       5.527   4.348  15.508  0.00  0.00    +0.000 C 
ATOM     29  O   UNL     1       5.063   3.342  16.018  0.00  0.00    +0.000 OA
ATOM     30  N   UNL     1       5.670   4.542  14.148  0.00  0.00    +0.000 N 
ATOM     31  C   UNL     1       5.251   3.597  13.115  0.00  0.00    +0.000 C 
ATOM     32  C   UNL     1       6.682   3.625  12.589  0.00  0.00    +0.000 C 
ATOM     33  C   UNL     1       6.958   4.816  13.503  0.00  0.00    +0.000 C 
ATOM     34  H   UNL     1       6.479   6.127  15.707  0.00  0.00    +0.000 HD
ENDBRANCH  26  27
ENDBRANCH  19  26
ENDBRANCH   1  22
TORSDOF 4
ENDMDL
MODEL 2
REMARK VINA RESULT:      -8.4      5.550     10.139
REMARK  Name = 
REMARK  5 active torsions:
REMARK  status: ('A' for Active; 'I' for Inactive)
REMARK    1  A    between atoms: C_1  and  C_2
REMARK    2  A    between atoms: C_2  and  N_3
REMARK    3  A    between atoms: C_2  and  C_10
REMARK    4  A    between atoms: C_13  and  O_14
REMARK    5  A    between atoms: O_14  and  C_15
REMARK                            x       y       z     vdW  Elec       q    Type
REMARK                         _______ _______ _______ _____ _____    ______ ____
ROOT
ATOM      1  O   UNL     1       0.982  12.134  21.215  0.00  0.00    +0.000 OA
ENDROOT
BRANCH   1   2
ATOM      2  C   UNL     1       0.225  11.291  20.331  0.00  0.00    +0.000 C 
ATOM      3  C   UNL     1      -0.494  10.177  21.090  0.00  0.00    +0.000 C 
ATOM      4  C   UNL     1       0.436   8.963  21.020  0.00  0.00    +0.000 C 
ATOM      5  N   UNL     1       1.119   9.146  19.759  0.00  0.00    +0.000 N 
ATOM      6  C   UNL     1       1.964   8.196  19.219  0.00  0.00    +0.000 A 
ATOM      7  C   UNL     1       2.645   8.461  18.048  0.00  0.00    +0.000 A 
ATOM      8  C   UNL     1       3.442   7.470  17.550  0.00  0.00    +0.000 A 
ATOM      9  N   UNL     1       3.569   6.276  18.130  0.00  0.00    +0.000 NA
ATOM     10  C   UNL     1       2.882   6.055  19.263  0.00  0.00    +0.000 A 
ATOM     11  N   UNL     1       3.041   4.841  19.892  0.00  0.00    +0.000 N 
ATOM     12  C   UNL     1       3.529   3.670  19.154  0.00  0.00    +0.000 C 
ATOM     13  C   UNL     1       2.406   2.640  18.965  0.00  0.00    +0.000 C 
ATOM     14  O   UNL     1       1.793   2.299  20.219  0.00  0.00    +0.000 OA
ATOM     15  C   UNL     1       1.214   3.472  20.816  0.00  0.00    +0.000 C 
ATOM     16  C   UNL     1       2.274   4.546  21.099  0.00  0.00    +0.000 C 
ATOM     17  N   UNL     1       2.086   6.998  19.815  0.00  0.00    +0.000 NA
ATOM     18  C   UNL     1       1.129  10.538  19.335  0.00  0.00    +0.000 C 
ENDBRANCH   1   2
BRANCH   1  22
ATOM     19  C   UNL     1       2.844  15.457  19.431  0.00  0.00    +0.000 A 
ATOM     20  C   UNL     1       1.482  15.230  19.198  0.00  0.00    +0.000 A 
ATOM     21  C   UNL     1       0.821  14.157  19.811  0.00  0.00    +0.000 A 
ATOM     22  C   UNL     1       1.506  13.280  20.652  0.00  0.00    +0.000 A 
ATOM     23  C   UNL     1       2.848  13.541  20.943  0.00  0.00    +0.000 A 
ATOM     24  C   UNL     1       3.505  14.623  20.348  0.00  0.00    +0.000 A 
BRANCH  19  26
ATOM     25  C   UNL     1       3.201  16.483  17.184  0.00  0.00    +0.000 C 
ATOM     26  C   UNL     1       3.607  16.527  18.658  0.00  0.00    +0.000 C 
BRANCH  26  27
ATOM     27  N   UNL     1       5.032  16.316  18.776  0.00  0.00    +0.000 N 
ATOM     28  C   UNL     1       5.896  17.220  19.346  0.00  0.00    +0.000 C 
ATOM     29  O   UNL     1       5.549  18.278  19.845  0.00  0.00    +0.000 OA
ATOM     30  N   UNL     1       7.192  16.742  19.344  0.00  0.00    +0.000 N 
ATOM     31  C   UNL     1       8.332  17.404  19.973  0.00  0.00    +0.000 C 
ATOM     32  C   UNL     1       9.030  17.363  18.618  0.00  0.00    +0.000 C 
ATOM     33  C   UNL     1       7.934  16.425  18.120  0.00  0.00    +0.000 C 
ATOM     34  H   UNL     1       5.460  15.601  18.206  0.00  0.00    +0.000 HD
ENDBRANCH  26  27
ENDBRANCH  19  26
ENDBRANCH   1  22
TORSDOF 4
ENDMDL
MODEL 3
REMARK VINA RESULT:      -8.3      8.082     11.127
REMARK  Name = 
REMARK  5 active torsions:
REMARK  status: ('A' for Active; 'I' for Inactive)
REMARK    1  A    between atoms: C_1  and  C_2
REMARK    2  A    between atoms: C_2  and  N_3
REMARK    3  A    between atoms: C_2  and  C_10
REMARK    4  A    between atoms: C_13  and  O_14
REMARK    5  A    between atoms: O_14  and  C_15
REMARK                            x       y       z     vdW  Elec       q    Type
REMARK                         _______ _______ _______ _____ _____    ______ ____
ROOT
ATOM      1  O   UNL     1       8.002   9.756  18.079  0.00  0.00    +0.000 OA
ENDROOT
BRANCH   1   2
ATOM      2  C   UNL     1       9.324   9.993  18.590  0.00  0.00    +0.000 C 
ATOM      3  C   UNL     1       9.291  10.480  20.038  0.00  0.00    +0.000 C 
ATOM      4  C   UNL     1       9.336  12.009  19.960  0.00  0.00    +0.000 C 
ATOM      5  N   UNL     1      10.094  12.253  18.754  0.00  0.00    +0.000 N 
ATOM      6  C   UNL     1      10.501  13.515  18.367  0.00  0.00    +0.000 A 
ATOM      7  C   UNL     1      11.159  13.692  17.166  0.00  0.00    +0.000 A 
ATOM      8  C   UNL     1      11.562  14.960  16.854  0.00  0.00    +0.000 A 
ATOM      9  N   UNL     1      11.364  16.006  17.658  0.00  0.00    +0.000 NA
ATOM     10  C   UNL     1      10.728  15.789  18.821  0.00  0.00    +0.000 A 
ATOM     11  N   UNL     1      10.482  16.870  19.637  0.00  0.00    +0.000 N 
ATOM     12  C   UNL     1      11.270  18.102  19.512  0.00  0.00    +0.000 C 
ATOM     13  C   UNL     1      12.195  18.279  20.725  0.00  0.00    +0.000 C 
ATOM     14  O   UNL     1      11.461  18.204  21.958  0.00  0.00    +0.000 OA
ATOM     15  C   UNL     1      10.831  16.918  22.075  0.00  0.00    +0.000 C 
ATOM     16  C   UNL     1       9.837  16.667  20.931  0.00  0.00    +0.000 C 
ATOM     17  N   UNL     1      10.293  14.561  19.184  0.00  0.00    +0.000 NA
ATOM     18  C   UNL     1      10.043  11.127  17.833  0.00  0.00    +0.000 C 
ENDBRANCH   1   2
BRANCH   1  22
ATOM     19  C   UNL     1       6.848   5.768  17.407  0.00  0.00    +0.000 A 
ATOM     20  C   UNL     1       7.856   6.040  18.340  0.00  0.00    +0.000 A 
ATOM     21  C   UNL     1       8.235   7.360  18.619  0.00  0.00    +0.000 A 
ATOM     22  C   UNL     1       7.630   8.432  17.962  0.00  0.00    +0.000 A 
ATOM     23  C   UNL     1       6.578   8.172  17.081  0.00  0.00    +0.000 A 
ATOM     24  C   UNL     1       6.184   6.856  16.816  0.00  0.00    +0.000 A 
BRANCH  19  26
ATOM     25  C   UNL     1       6.755   4.183  15.481  0.00  0.00    +0.000 C 
ATOM     26  C   UNL     1       6.530   4.338  16.986  0.00  0.00    +0.000 C 
BRANCH  26  27
ATOM     27  N   UNL     1       5.160   4.007  17.309  0.00  0.00    +0.000 N 
ATOM     28  C   UNL     1       4.730   3.669  18.568  0.00  0.00    +0.000 C 
ATOM     29  O   UNL     1       5.447   3.646  19.555  0.00  0.00    +0.000 OA
ATOM     30  N   UNL     1       3.369   3.429  18.584  0.00  0.00    +0.000 N 
ATOM     31  C   UNL     1       2.578   3.157  19.781  0.00  0.00    +0.000 C 
ATOM     32  C   UNL     1       2.116   1.867  19.113  0.00  0.00    +0.000 C 
ATOM     33  C   UNL     1       2.728   2.364  17.806  0.00  0.00    +0.000 C 
ATOM     34  H   UNL     1       4.534   3.769  16.553  0.00  0.00    +0.000 HD
ENDBRANCH  26  27
ENDBRANCH  19  26
ENDBRANCH   1  22
TORSDOF 4
ENDMDL
MODEL 4
REMARK VINA RESULT:      -8.3      1.621      2.374
REMARK  Name = 
REMARK  5 active torsions:
REMARK  status: ('A' for Active; 'I' for Inactive)
REMARK    1  A    between atoms: C_1  and  C_2
REMARK    2  A    between atoms: C_2  and  N_3
REMARK    3  A    between atoms: C_2  and  C_10
REMARK    4  A    between atoms: C_13  and  O_14
REMARK    5  A    between atoms: O_14  and  C_15
REMARK                            x       y       z     vdW  Elec       q    Type
REMARK                         _______ _______ _______ _____ _____    ______ ____
ROOT
ATOM      1  O   UNL     1       1.070   9.287  20.746  0.00  0.00    +0.000 OA
ENDROOT
BRANCH   1   2
ATOM      2  C   UNL     1       1.010  10.449  19.903  0.00  0.00    +0.000 C 
ATOM      3  C   UNL     1       0.431  11.655  20.644  0.00  0.00    +0.000 C 
ATOM      4  C   UNL     1      -1.063  11.665  20.310  0.00  0.00    +0.000 C 
ATOM      5  N   UNL     1      -1.107  11.085  18.987  0.00  0.00    +0.000 N 
ATOM      6  C   UNL     1      -2.262  11.027  18.231  0.00  0.00    +0.000 A 
ATOM      7  C   UNL     1      -2.256  10.394  17.004  0.00  0.00    +0.000 A 
ATOM      8  C   UNL     1      -3.423  10.397  16.293  0.00  0.00    +0.000 A 
ATOM      9  N   UNL     1      -4.536  10.993  16.721  0.00  0.00    +0.000 NA
ATOM     10  C   UNL     1      -4.497  11.606  17.916  0.00  0.00    +0.000 A 
ATOM     11  N   UNL     1      -5.654  12.186  18.386  0.00  0.00    +0.000 N 
ATOM     12  C   UNL     1      -6.736  12.557  17.466  0.00  0.00    +0.000 C 
ATOM     13  C   UNL     1      -6.845  14.083  17.343  0.00  0.00    +0.000 C 
ATOM     14  O   UNL     1      -6.965  14.705  18.633  0.00  0.00    +0.000 OA
ATOM     15  C   UNL     1      -5.803  14.413  19.427  0.00  0.00    +0.000 C 
ATOM     16  C   UNL     1      -5.639  12.904  19.657  0.00  0.00    +0.000 C 
ATOM     17  N   UNL     1      -3.379  11.629  18.676  0.00  0.00    +0.000 NA
ATOM     18  C   UNL     1       0.054  10.251  18.711  0.00  0.00    +0.000 C 
ENDBRANCH   1   2
BRANCH   1  22
ATOM     19  C   UNL     1       2.283   5.632  19.056  0.00  0.00    +0.000 A 
ATOM     20  C   UNL     1       2.437   6.812  18.317  0.00  0.00    +0.000 A 
ATOM     21  C   UNL     1       2.083   8.051  18.866  0.00  0.00    +0.000 A 
ATOM     22  C   UNL     1       1.552   8.138  20.154  0.00  0.00    +0.000 A 
ATOM     23  C   UNL     1       1.460   6.973  20.921  0.00  0.00    +0.000 A 
ATOM     24  C   UNL     1       1.832   5.737  20.381  0.00  0.00    +0.000 A 
BRANCH  19  26
ATOM     25  C   UNL     1       2.663   3.208  19.513  0.00  0.00    +0.000 C 
ATOM     26  C   UNL     1       2.523   4.268  18.419  0.00  0.00    +0.000 C 
BRANCH  26  27
ATOM     27  N   UNL     1       3.720   4.291  17.608  0.00  0.00    +0.000 N 
ATOM     28  C   UNL     1       4.978   4.529  18.105  0.00  0.00    +0.000 C 
ATOM     29  O   UNL     1       5.225   4.710  19.286  0.00  0.00    +0.000 OA
ATOM     30  N   UNL     1       5.930   4.465  17.106  0.00  0.00    +0.000 N 
ATOM     31  C   UNL     1       7.373   4.560  17.313  0.00  0.00    +0.000 C 
ATOM     32  C   UNL     1       7.382   5.717  16.320  0.00  0.00    +0.000 C 
ATOM     33  C   UNL     1       5.945   5.363  15.947  0.00  0.00    +0.000 C 
ATOM     34  H   UNL     1       3.618   4.385  16.608  0.00  0.00    +0.000 HD
ENDBRANCH  26  27
ENDBRANCH  19  26
ENDBRANCH   1  22
TORSDOF 4
ENDMDL
MODEL 5
REMARK VINA RESULT:      -8.0      1.575      2.309
REMARK  Name = 
REMARK  5 active torsions:
REMARK  status: ('A' for Active; 'I' for Inactive)
REMARK    1  A    between atoms: C_1  and  C_2
REMARK    2  A    between atoms: C_2  and  N_3
REMARK    3  A    between atoms: C_2  and  C_10
REMARK    4  A    between atoms: C_13  and  O_14
REMARK    5  A    between atoms: O_14  and  C_15
REMARK                            x       y       z     vdW  Elec       q    Type
REMARK                         _______ _______ _______ _____ _____    ______ ____
ROOT
ATOM      1  O   UNL     1       0.318   9.838  20.128  0.00  0.00    +0.000 OA
ENDROOT
BRANCH   1   2
ATOM      2  C   UNL     1       0.001  10.825  19.133  0.00  0.00    +0.000 C 
ATOM      3  C   UNL     1      -0.018  12.236  19.722  0.00  0.00    +0.000 C 
ATOM      4  C   UNL     1      -1.480  12.513  20.080  0.00  0.00    +0.000 C 
ATOM      5  N   UNL     1      -2.210  11.740  19.101  0.00  0.00    +0.000 N 
ATOM      6  C   UNL     1      -3.583  11.808  18.963  0.00  0.00    +0.000 A 
ATOM      7  C   UNL     1      -4.229  10.989  18.058  0.00  0.00    +0.000 A 
ATOM      8  C   UNL     1      -5.584  11.125  17.949  0.00  0.00    +0.000 A 
ATOM      9  N   UNL     1      -6.287  12.012  18.654  0.00  0.00    +0.000 NA
ATOM     10  C   UNL     1      -5.619  12.796  19.516  0.00  0.00    +0.000 A 
ATOM     11  N   UNL     1      -6.342  13.685  20.279  0.00  0.00    +0.000 N 
ATOM     12  C   UNL     1      -7.680  14.120  19.861  0.00  0.00    +0.000 C 
ATOM     13  C   UNL     1      -7.659  15.590  19.418  0.00  0.00    +0.000 C 
ATOM     14  O   UNL     1      -7.084  16.433  20.430  0.00  0.00    +0.000 OA
ATOM     15  C   UNL     1      -5.727  16.035  20.686  0.00  0.00    +0.000 C 
ATOM     16  C   UNL     1      -5.646  14.588  21.192  0.00  0.00    +0.000 C 
ATOM     17  N   UNL     1      -4.280  12.704  19.681  0.00  0.00    +0.000 NA
ATOM     18  C   UNL     1      -1.420  10.640  18.567  0.00  0.00    +0.000 C 
ENDBRANCH   1   2
BRANCH   1  22
ATOM     19  C   UNL     1       2.758   6.585  19.055  0.00  0.00    +0.000 A 
ATOM     20  C   UNL     1       2.561   7.624  18.137  0.00  0.00    +0.000 A 
ATOM     21  C   UNL     1       1.788   8.742  18.477  0.00  0.00    +0.000 A 
ATOM     22  C   UNL     1       1.185   8.840  19.732  0.00  0.00    +0.000 A 
ATOM     23  C   UNL     1       1.434   7.840  20.676  0.00  0.00    +0.000 A 
ATOM     24  C   UNL     1       2.221   6.732  20.344  0.00  0.00    +0.000 A 
BRANCH  19  26
ATOM     25  C   UNL     1       4.425   4.866  19.760  0.00  0.00    +0.000 C 
ATOM     26  C   UNL     1       3.469   5.299  18.648  0.00  0.00    +0.000 C 
BRANCH  26  27
ATOM     27  N   UNL     1       4.208   5.496  17.421  0.00  0.00    +0.000 N 
ATOM     28  C   UNL     1       4.593   4.475  16.586  0.00  0.00    +0.000 C 
ATOM     29  O   UNL     1       4.322   3.300  16.770  0.00  0.00    +0.000 OA
ATOM     30  N   UNL     1       5.261   4.961  15.479  0.00  0.00    +0.000 N 
ATOM     31  C   UNL     1       5.705   4.154  14.344  0.00  0.00    +0.000 C 
ATOM     32  C   UNL     1       7.112   4.686  14.590  0.00  0.00    +0.000 C 
ATOM     33  C   UNL     1       6.521   5.707  15.559  0.00  0.00    +0.000 C 
ATOM     34  H   UNL     1       4.681   6.377  17.283  0.00  0.00    +0.000 HD
ENDBRANCH  26  27
ENDBRANCH  19  26
ENDBRANCH   1  22
TORSDOF 4
ENDMDL
MODEL 6
REMARK VINA RESULT:      -8.0      1.132      1.392
REMARK  Name = 
REMARK  5 active torsions:
REMARK  status: ('A' for Active; 'I' for Inactive)
REMARK    1  A    between atoms: C_1  and  C_2
REMARK    2  A    between atoms: C_2  and  N_3
REMARK    3  A    between atoms: C_2  and  C_10
REMARK    4  A    between atoms: C_13  and  O_14
REMARK    5  A    between atoms: O_14  and  C_15
REMARK                            x       y       z     vdW  Elec       q    Type
REMARK                         _______ _______ _______ _____ _____    ______ ____
ROOT
ATOM      1  O   UNL     1       1.457   8.443  19.083  0.00  0.00    +0.000 OA
ENDROOT
BRANCH   1   2
ATOM      2  C   UNL     1       1.249   9.638  18.311  0.00  0.00    +0.000 C 
ATOM      3  C   UNL     1       1.476  10.897  19.146  0.00  0.00    +0.000 C 
ATOM      4  C   UNL     1       0.092  11.307  19.658  0.00  0.00    +0.000 C 
ATOM      5  N   UNL     1      -0.793  10.848  18.612  0.00  0.00    +0.000 N 
ATOM      6  C   UNL     1      -2.144  11.135  18.592  0.00  0.00    +0.000 A 
ATOM      7  C   UNL     1      -2.951  10.606  17.604  0.00  0.00    +0.000 A 
ATOM      8  C   UNL     1      -4.272  10.952  17.624  0.00  0.00    +0.000 A 
ATOM      9  N   UNL     1      -4.796  11.779  18.529  0.00  0.00    +0.000 NA
ATOM     10  C   UNL     1      -3.975  12.280  19.467  0.00  0.00    +0.000 A 
ATOM     11  N   UNL     1      -4.516  13.101  20.431  0.00  0.00    +0.000 N 
ATOM     12  C   UNL     1      -5.789  13.794  20.200  0.00  0.00    +0.000 C 
ATOM     13  C   UNL     1      -5.562  15.304  20.032  0.00  0.00    +0.000 C 
ATOM     14  O   UNL     1      -4.817  15.847  21.135  0.00  0.00    +0.000 OA
ATOM     15  C   UNL     1      -3.527  15.217  21.211  0.00  0.00    +0.000 C 
ATOM     16  C   UNL     1      -3.647  13.704  21.438  0.00  0.00    +0.000 C 
ATOM     17  N   UNL     1      -2.660  11.968  19.512  0.00  0.00    +0.000 NA
ATOM     18  C   UNL     1      -0.209   9.768  17.829  0.00  0.00    +0.000 C 
ENDBRANCH   1   2
BRANCH   1  22
ATOM     19  C   UNL     1       4.761   6.216  17.740  0.00  0.00    +0.000 A 
ATOM     20  C   UNL     1       4.056   5.779  18.867  0.00  0.00    +0.000 A 
ATOM     21  C   UNL     1       2.925   6.474  19.317  0.00  0.00    +0.000 A 
ATOM     22  C   UNL     1       2.486   7.625  18.662  0.00  0.00    +0.000 A 
ATOM     23  C   UNL     1       3.144   8.027  17.497  0.00  0.00    +0.000 A 
ATOM     24  C   UNL     1       4.262   7.323  17.035  0.00  0.00    +0.000 A 
BRANCH  19  26
ATOM     25  C   UNL     1       7.249   6.384  17.859  0.00  0.00    +0.000 C 
ATOM     26  C   UNL     1       6.075   5.559  17.330  0.00  0.00    +0.000 C 
BRANCH  26  27
ATOM     27  N   UNL     1       6.162   5.456  15.890  0.00  0.00    +0.000 N 
ATOM     28  C   UNL     1       5.913   4.303  15.188  0.00  0.00    +0.000 C 
ATOM     29  O   UNL     1       5.557   3.253  15.697  0.00  0.00    +0.000 OA
ATOM     30  N   UNL     1       6.048   4.507  13.828  0.00  0.00    +0.000 N 
ATOM     31  C   UNL     1       5.746   3.519  12.796  0.00  0.00    +0.000 C 
ATOM     32  C   UNL     1       7.170   3.702  12.283  0.00  0.00    +0.000 C 
ATOM     33  C   UNL     1       7.305   4.919  13.194  0.00  0.00    +0.000 C 
ATOM     34  H   UNL     1       6.662   6.176  15.388  0.00  0.00    +0.000 HD
ENDBRANCH  26  27
ENDBRANCH  19  26
ENDBRANCH   1  22
TORSDOF 4
ENDMDL
MODEL 7
REMARK VINA RESULT:      -7.8      3.091      3.952
REMARK  Name = 
REMARK  5 active torsions:
REMARK  status: ('A' for Active; 'I' for Inactive)
REMARK    1  A    between atoms: C_1  and  C_2
REMARK    2  A    between atoms: C_2  and  N_3
REMARK    3  A    between atoms: C_2  and  C_10
REMARK    4  A    between atoms: C_13  and  O_14
REMARK    5  A    between atoms: O_14  and  C_15
REMARK                            x       y       z     vdW  Elec       q    Type
REMARK                         _______ _______ _______ _____ _____    ______ ____
ROOT
ATOM      1  O   UNL     1       0.900   7.290  21.368  0.00  0.00    +0.000 OA
ENDROOT
BRANCH   1   2
ATOM      2  C   UNL     1       1.379   8.645  21.366  0.00  0.00    +0.000 C 
ATOM      3  C   UNL     1       1.319   9.267  22.761  0.00  0.00    +0.000 C 
ATOM      4  C   UNL     1      -0.013  10.020  22.819  0.00  0.00    +0.000 C 
ATOM      5  N   UNL     1      -0.223  10.420  21.446  0.00  0.00    +0.000 N 
ATOM      6  C   UNL     1      -1.253  11.255  21.057  0.00  0.00    +0.000 A 
ATOM      7  C   UNL     1      -1.444  11.542  19.720  0.00  0.00    +0.000 A 
ATOM      8  C   UNL     1      -2.461  12.398  19.404  0.00  0.00    +0.000 A 
ATOM      9  N   UNL     1      -3.245  12.969  20.319  0.00  0.00    +0.000 NA
ATOM     10  C   UNL     1      -3.018  12.672  21.610  0.00  0.00    +0.000 A 
ATOM     11  N   UNL     1      -3.850  13.223  22.558  0.00  0.00    +0.000 N 
ATOM     12  C   UNL     1      -4.625  14.434  22.265  0.00  0.00    +0.000 C 
ATOM     13  C   UNL     1      -4.077  15.633  23.053  0.00  0.00    +0.000 C 
ATOM     14  O   UNL     1      -3.997  15.343  24.459  0.00  0.00    +0.000 OA
ATOM     15  C   UNL     1      -3.110  14.233  24.679  0.00  0.00    +0.000 C 
ATOM     16  C   UNL     1      -3.605  12.962  23.974  0.00  0.00    +0.000 C 
ATOM     17  N   UNL     1      -2.037  11.823  21.989  0.00  0.00    +0.000 NA
ATOM     18  C   UNL     1       0.495   9.570  20.508  0.00  0.00    +0.000 C 
ENDBRANCH   1   2
BRANCH   1  22
ATOM     19  C   UNL     1       2.772   4.958  18.411  0.00  0.00    +0.000 A 
ATOM     20  C   UNL     1       2.064   4.321  19.437  0.00  0.00    +0.000 A 
ATOM     21  C   UNL     1       1.394   5.068  20.415  0.00  0.00    +0.000 A 
ATOM     22  C   UNL     1       1.429   6.463  20.398  0.00  0.00    +0.000 A 
ATOM     23  C   UNL     1       2.076   7.105  19.338  0.00  0.00    +0.000 A 
ATOM     24  C   UNL     1       2.729   6.360  18.350  0.00  0.00    +0.000 A 
BRANCH  19  26
ATOM     25  C   UNL     1       3.708   2.703  17.888  0.00  0.00    +0.000 C 
ATOM     26  C   UNL     1       3.627   4.160  17.432  0.00  0.00    +0.000 C 
BRANCH  26  27
ATOM     27  N   UNL     1       4.958   4.719  17.350  0.00  0.00    +0.000 N 
ATOM     28  C   UNL     1       5.789   4.879  18.431  0.00  0.00    +0.000 C 
ATOM     29  O   UNL     1       5.510   4.533  19.568  0.00  0.00    +0.000 OA
ATOM     30  N   UNL     1       7.006   5.413  18.052  0.00  0.00    +0.000 N 
ATOM     31  C   UNL     1       8.152   5.604  18.936  0.00  0.00    +0.000 C 
ATOM     32  C   UNL     1       8.143   7.075  18.536  0.00  0.00    +0.000 C 
ATOM     33  C   UNL     1       7.149   6.733  17.430  0.00  0.00    +0.000 C 
ATOM     34  H   UNL     1       5.207   5.245  16.524  0.00  0.00    +0.000 HD
ENDBRANCH  26  27
ENDBRANCH  19  26
ENDBRANCH   1  22
TORSDOF 4
ENDMDL
MODEL 8
REMARK VINA RESULT:      -7.8      1.442      1.980
REMARK  Name = 
REMARK  5 active torsions:
REMARK  status: ('A' for Active; 'I' for Inactive)
REMARK    1  A    between atoms: C_1  and  C_2
REMARK    2  A    between atoms: C_2  and  N_3
REMARK    3  A    between atoms: C_2  and  C_10
REMARK    4  A    between atoms: C_13  and  O_14
REMARK    5  A    between atoms: O_14  and  C_15
REMARK                            x       y       z     vdW  Elec       q    Type
REMARK                         _______ _______ _______ _____ _____    ______ ____
ROOT
ATOM      1  O   UNL     1       1.121   9.788  20.801  0.00  0.00    +0.000 OA
ENDROOT
BRANCH   1   2
ATOM      2  C   UNL     1       0.918  10.819  19.820  0.00  0.00    +0.000 C 
ATOM      3  C   UNL     1       0.651  12.175  20.473  0.00  0.00    +0.000 C 
ATOM      4  C   UNL     1      -0.872  12.308  20.539  0.00  0.00    +0.000 C 
ATOM      5  N   UNL     1      -1.317  11.556  19.387  0.00  0.00    +0.000 N 
ATOM      6  C   UNL     1      -2.635  11.525  18.975  0.00  0.00    +0.000 A 
ATOM      7  C   UNL     1      -3.009  10.729  17.911  0.00  0.00    +0.000 A 
ATOM      8  C   UNL     1      -4.322  10.765  17.533  0.00  0.00    +0.000 A 
ATOM      9  N   UNL     1      -5.230  11.538  18.129  0.00  0.00    +0.000 NA
ATOM     10  C   UNL     1      -4.823  12.305  19.154  0.00  0.00    +0.000 A 
ATOM     11  N   UNL     1      -5.763  13.073  19.802  0.00  0.00    +0.000 N 
ATOM     12  C   UNL     1      -7.026  13.432  19.144  0.00  0.00    +0.000 C 
ATOM     13  C   UNL     1      -7.053  14.928  18.800  0.00  0.00    +0.000 C 
ATOM     14  O   UNL     1      -6.773  15.735  19.956  0.00  0.00    +0.000 OA
ATOM     15  C   UNL     1      -5.463  15.427  20.462  0.00  0.00    +0.000 C 
ATOM     16  C   UNL     1      -5.351  13.957  20.889  0.00  0.00    +0.000 C 
ATOM     17  N   UNL     1      -3.542  12.306  19.585  0.00  0.00    +0.000 NA
ATOM     18  C   UNL     1      -0.338  10.565  18.965  0.00  0.00    +0.000 C 
ENDBRANCH   1   2
BRANCH   1  22
ATOM     19  C   UNL     1       2.362   6.107  19.190  0.00  0.00    +0.000 A 
ATOM     20  C   UNL     1       1.706   6.125  20.427  0.00  0.00    +0.000 A 
ATOM     21  C   UNL     1       1.242   7.330  20.972  0.00  0.00    +0.000 A 
ATOM     22  C   UNL     1       1.437   8.539  20.305  0.00  0.00    +0.000 A 
ATOM     23  C   UNL     1       2.029   8.520  19.039  0.00  0.00    +0.000 A 
ATOM     24  C   UNL     1       2.476   7.316  18.485  0.00  0.00    +0.000 A 
BRANCH  19  26
ATOM     25  C   UNL     1       3.806   4.155  19.770  0.00  0.00    +0.000 C 
ATOM     26  C   UNL     1       3.003   4.830  18.658  0.00  0.00    +0.000 C 
BRANCH  26  27
ATOM     27  N   UNL     1       3.872   5.127  17.542  0.00  0.00    +0.000 N 
ATOM     28  C   UNL     1       4.468   4.169  16.758  0.00  0.00    +0.000 C 
ATOM     29  O   UNL     1       4.299   2.969  16.895  0.00  0.00    +0.000 OA
ATOM     30  N   UNL     1       5.222   4.744  15.753  0.00  0.00    +0.000 N 
ATOM     31  C   UNL     1       5.893   4.012  14.682  0.00  0.00    +0.000 C 
ATOM     32  C   UNL     1       7.193   4.679  15.117  0.00  0.00    +0.000 C 
ATOM     33  C   UNL     1       6.376   5.613  16.006  0.00  0.00    +0.000 C 
ATOM     34  H   UNL     1       4.265   6.055  17.475  0.00  0.00    +0.000 HD
ENDBRANCH  26  27
ENDBRANCH  19  26
ENDBRANCH   1  22
TORSDOF 4
ENDMDL
MODEL 9
REMARK VINA RESULT:      -7.8      3.542      4.974
REMARK  Name = 
REMARK  5 active torsions:
REMARK  status: ('A' for Active; 'I' for Inactive)
REMARK    1  A    between atoms: C_1  and  C_2
REMARK    2  A    between atoms: C_2  and  N_3
REMARK    3  A    between atoms: C_2  and  C_10
REMARK    4  A    between atoms: C_13  and  O_14
REMARK    5  A    between atoms: O_14  and  C_15
REMARK                            x       y       z     vdW  Elec       q    Type
REMARK                         _______ _______ _______ _____ _____    ______ ____
ROOT
ATOM      1  O   UNL     1       4.077   6.146  18.857  0.00  0.00    +0.000 OA
ENDROOT
BRANCH   1   2
ATOM      2  C   UNL     1       2.651   6.283  18.743  0.00  0.00    +0.000 C 
ATOM      3  C   UNL     1       2.265   7.319  17.689  0.00  0.00    +0.000 C 
ATOM      4  C   UNL     1       2.061   8.630  18.454  0.00  0.00    +0.000 C 
ATOM      5  N   UNL     1       1.604   8.184  19.751  0.00  0.00    +0.000 N 
ATOM      6  C   UNL     1       1.161   9.053  20.729  0.00  0.00    +0.000 A 
ATOM      7  C   UNL     1       0.807   8.571  21.974  0.00  0.00    +0.000 A 
ATOM      8  C   UNL     1       0.349   9.478  22.888  0.00  0.00    +0.000 A 
ATOM      9  N   UNL     1       0.216  10.778  22.622  0.00  0.00    +0.000 NA
ATOM     10  C   UNL     1       0.562  11.204  21.396  0.00  0.00    +0.000 A 
ATOM     11  N   UNL     1       0.469  12.550  21.127  0.00  0.00    +0.000 N 
ATOM     12  C   UNL     1      -0.403  13.418  21.927  0.00  0.00    +0.000 C 
ATOM     13  C   UNL     1      -1.615  13.878  21.104  0.00  0.00    +0.000 C 
ATOM     14  O   UNL     1      -1.208  14.479  19.864  0.00  0.00    +0.000 OA
ATOM     15  C   UNL     1      -0.480  13.525  19.073  0.00  0.00    +0.000 C 
ATOM     16  C   UNL     1       0.790  13.045  19.791  0.00  0.00    +0.000 C 
ATOM     17  N   UNL     1       1.034  10.361  20.450  0.00  0.00    +0.000 NA
ATOM     18  C   UNL     1       2.015   6.818  20.041  0.00  0.00    +0.000 C 
ENDBRANCH   1   2
BRANCH   1  22
ATOM     19  C   UNL     1       5.757   4.508  15.367  0.00  0.00    +0.000 A 
ATOM     20  C   UNL     1       6.282   5.699  15.885  0.00  0.00    +0.000 A 
ATOM     21  C   UNL     1       5.774   6.249  17.069  0.00  0.00    +0.000 A 
ATOM     22  C   UNL     1       4.723   5.634  17.750  0.00  0.00    +0.000 A 
ATOM     23  C   UNL     1       4.241   4.411  17.276  0.00  0.00    +0.000 A 
ATOM     24  C   UNL     1       4.760   3.850  16.105  0.00  0.00    +0.000 A 
BRANCH  19  26
ATOM     25  C   UNL     1       7.289   4.884  13.432  0.00  0.00    +0.000 C 
ATOM     26  C   UNL     1       6.197   3.980  14.006  0.00  0.00    +0.000 C 
BRANCH  26  27
ATOM     27  N   UNL     1       5.076   3.934  13.094  0.00  0.00    +0.000 N 
ATOM     28  C   UNL     1       4.997   3.083  12.019  0.00  0.00    +0.000 C 
ATOM     29  O   UNL     1       5.845   2.252  11.739  0.00  0.00    +0.000 OA
ATOM     30  N   UNL     1       3.803   3.243  11.342  0.00  0.00    +0.000 N 
ATOM     31  C   UNL     1       3.355   2.418  10.223  0.00  0.00    +0.000 C 
ATOM     32  C   UNL     1       3.211   3.700   9.411  0.00  0.00    +0.000 C 
ATOM     33  C   UNL     1       3.402   4.497  10.698  0.00  0.00    +0.000 C 
ATOM     34  H   UNL     1       4.435   4.714  13.084  0.00  0.00    +0.000 HD
ENDBRANCH  26  27
ENDBRANCH  19  26
ENDBRANCH   1  22
TORSDOF 4
ENDMDL
