MODEL 1
REMARK VINA RESULT:      -8.6      0.000      0.000
REMARK  Name = 
REMARK  5 active torsions:
REMARK  status: ('A' for Active; 'I' for Inactive)
REMARK    1  A    between atoms: C_1  and  N_2
REMARK    2  A    between atoms: N_2  and  C_3
REMARK    3  A    between atoms: N_2  and  C_10
REMARK    4  A    between atoms: C_3  and  C_4
REMARK    5  A    between atoms: C_17  and  C_18
REMARK                            x       y       z     vdW  Elec       q    Type
REMARK                         _______ _______ _______ _____ _____    ______ ____
ROOT
ATOM      1  C   UNL     1       4.827   4.504  19.068  0.00  0.00    +0.000 A 
ATOM      2  N   UNL     1       5.270   3.256  19.300  0.00  0.00    +0.000 NA
ATOM      3  C   UNL     1       4.443   2.432  19.959  0.00  0.00    +0.000 A 
ATOM      4  N   UNL     1       3.242   2.739  20.460  0.00  0.00    +0.000 NA
ATOM      5  C   UNL     1       2.831   3.998  20.284  0.00  0.00    +0.000 A 
ATOM      6  C   UNL     1       1.648   4.435  20.861  0.00  0.00    +0.000 A 
ATOM      7  C   UNL     1       1.214   5.769  20.764  0.00  0.00    +0.000 A 
ATOM      8  C   UNL     1       1.950   6.709  20.037  0.00  0.00    +0.000 A 
ATOM      9  C   UNL     1       3.103   6.234  19.403  0.00  0.00    +0.000 A 
ATOM     10  C   UNL     1       3.581   4.917  19.556  0.00  0.00    +0.000 A 
ENDROOT
BRANCH   8  11
ATOM     11  C   UNL     1       1.614   8.146  19.943  0.00  0.00    +0.000 A 
ATOM     12  C   UNL     1       1.715   8.822  18.690  0.00  0.00    +0.000 A 
ATOM     13  C   UNL     1       1.366  10.161  18.526  0.00  0.00    +0.000 A 
ATOM     14  C   UNL     1       0.959  10.838  19.645  0.00  0.00    +0.000 A 
ATOM     15  C   UNL     1       0.877  10.224  20.872  0.00  0.00    +0.000 A 
ATOM     16  C   UNL     1       1.180   8.888  21.053  0.00  0.00    +0.000 A 
ATOM     17  O   UNL     1       0.465  11.081  21.846  0.00  0.00    +0.000 OA
ATOM     18  C   UNL     1       0.383  12.315  21.102  0.00  0.00    +0.000 C 
ATOM     19  O   UNL     1       0.610  12.149  19.689  0.00  0.00    +0.000 OA
ENDBRANCH   8  11
BRANCH   1  21
ATOM     20  C   UNL     1       6.967   5.584  19.183  0.00  0.00    +0.000 C 
ATOM     21  N   UNL     1       5.702   5.439  18.470  0.00  0.00    +0.000 N 
BRANCH  21  22
ATOM     22  C   UNL     1       5.687   5.545  16.990  0.00  0.00    +0.000 C 
BRANCH  22  23
ATOM     23  C   UNL     1       6.529   4.462  16.279  0.00  0.00    +0.000 C 
ATOM     24  C   UNL     1       5.638   3.469  15.527  0.00  0.00    +0.000 C 
ATOM     25  C   UNL     1       5.227   3.982  14.158  0.00  0.00    +0.000 C 
ATOM     26  C   UNL     1       6.478   4.125  13.313  0.00  0.00    +0.000 C 
ATOM     27  C   UNL     1       7.385   5.198  13.898  0.00  0.00    +0.000 C 
ATOM     28  C   UNL     1       7.668   5.028  15.395  0.00  0.00    +0.000 C 
ENDBRANCH  22  23
ENDBRANCH  21  22
ENDBRANCH   1  21
TORSDOF 4
ENDMDL
MODEL 2
REMARK VINA RESULT:      -8.1      0.592      1.278
REMARK  Name = 
REMARK  5 active torsions:
REMARK  status: ('A' for Active; 'I' for Inactive)
REMARK    1  A    between atoms: C_1  and  N_2
REMARK    2  A    between atoms: N_2  and  C_3
REMARK    3  A    between atoms: N_2  and  C_10
REMARK    4  A    between atoms: C_3  and  C_4
REMARK    5  A    between atoms: C_17  and  C_18
REMARK                            x       y       z     vdW  Elec       q    Type
REMARK                         _______ _______ _______ _____ _____    ______ ____
ROOT
ATOM      1  C   UNL     1       4.832   4.436  19.105  0.00  0.00    +0.000 A 
ATOM      2  N   UNL     1       5.297   3.183  19.252  0.00  0.00    +0.000 NA
ATOM      3  C   UNL     1       4.488   2.304  19.859  0.00  0.00    +0.000 A 
ATOM      4  N   UNL     1       3.285   2.556  20.383  0.00  0.00    +0.000 NA
ATOM      5  C   UNL     1       2.851   3.816  20.293  0.00  0.00    +0.000 A 
ATOM      6  C   UNL     1       1.663   4.193  20.902  0.00  0.00    +0.000 A 
ATOM      7  C   UNL     1       1.206   5.523  20.894  0.00  0.00    +0.000 A 
ATOM      8  C   UNL     1       1.922   6.521  20.228  0.00  0.00    +0.000 A 
ATOM      9  C   UNL     1       3.079   6.110  19.560  0.00  0.00    +0.000 A 
ATOM     10  C   UNL     1       3.581   4.794  19.623  0.00  0.00    +0.000 A 
ENDROOT
BRANCH   8  11
ATOM     11  C   UNL     1       1.560   7.955  20.231  0.00  0.00    +0.000 A 
ATOM     12  C   UNL     1       1.039   8.557  21.416  0.00  0.00    +0.000 A 
ATOM     13  C   UNL     1       0.725   9.913  21.496  0.00  0.00    +0.000 A 
ATOM     14  C   UNL     1       0.892  10.658  20.360  0.00  0.00    +0.000 A 
ATOM     15  C   UNL     1       1.365  10.103  19.194  0.00  0.00    +0.000 A 
ATOM     16  C   UNL     1       1.720   8.771  19.100  0.00  0.00    +0.000 A 
ATOM     17  O   UNL     1       1.440  11.016  18.187  0.00  0.00    +0.000 OA
ATOM     18  C   UNL     1       0.880  12.177  18.834  0.00  0.00    +0.000 C 
ATOM     19  O   UNL     1       0.612  11.980  20.236  0.00  0.00    +0.000 OA
ENDBRANCH   8  11
BRANCH   1  21
ATOM     20  C   UNL     1       6.922   5.593  19.324  0.00  0.00    +0.000 C 
ATOM     21  N   UNL     1       5.687   5.424  18.566  0.00  0.00    +0.000 N 
BRANCH  21  22
ATOM     22  C   UNL     1       5.714   5.578  17.090  0.00  0.00    +0.000 C 
BRANCH  22  23
ATOM     23  C   UNL     1       6.492   4.461  16.361  0.00  0.00    +0.000 C 
ATOM     24  C   UNL     1       5.542   3.521  15.611  0.00  0.00    +0.000 C 
ATOM     25  C   UNL     1       5.144   4.068  14.251  0.00  0.00    +0.000 C 
ATOM     26  C   UNL     1       6.391   4.154  13.393  0.00  0.00    +0.000 C 
ATOM     27  C   UNL     1       7.359   5.173  13.977  0.00  0.00    +0.000 C 
ATOM     28  C   UNL     1       7.649   4.976  15.469  0.00  0.00    +0.000 C 
ENDBRANCH  22  23
ENDBRANCH  21  22
ENDBRANCH   1  21
TORSDOF 4
ENDMDL
MODEL 3
REMARK VINA RESULT:      -7.9      0.789      1.258
REMARK  Name = 
REMARK  5 active torsions:
REMARK  status: ('A' for Active; 'I' for Inactive)
REMARK    1  A    between atoms: C_1  and  N_2
REMARK    2  A    between atoms: N_2  and  C_3
REMARK    3  A    between atoms: N_2  and  C_10
REMARK    4  A    between atoms: C_3  and  C_4
REMARK    5  A    between atoms: C_17  and  C_18
REMARK                            x       y       z     vdW  Elec       q    Type
REMARK                         _______ _______ _______ _____ _____    ______ ____
ROOT
ATOM      1  C   UNL     1       4.771   3.924  18.978  0.00  0.00    +0.000 A 
ATOM      2  N   UNL     1       5.179   2.712  19.393  0.00  0.00    +0.000 NA
ATOM      3  C   UNL     1       4.398   2.080  20.280  0.00  0.00    +0.000 A 
ATOM      4  N   UNL     1       3.279   2.553  20.839  0.00  0.00    +0.000 NA
ATOM      5  C   UNL     1       2.909   3.783  20.474  0.00  0.00    +0.000 A 
ATOM      6  C   UNL     1       1.823   4.397  21.081  0.00  0.00    +0.000 A 
ATOM      7  C   UNL     1       1.443   5.717  20.780  0.00  0.00    +0.000 A 
ATOM      8  C   UNL     1       2.132   6.457  19.815  0.00  0.00    +0.000 A 
ATOM      9  C   UNL     1       3.179   5.798  19.163  0.00  0.00    +0.000 A 
ATOM     10  C   UNL     1       3.610   4.502  19.509  0.00  0.00    +0.000 A 
ENDROOT
BRANCH   8  11
ATOM     11  C   UNL     1       1.853   7.872  19.488  0.00  0.00    +0.000 A 
ATOM     12  C   UNL     1       2.220   8.394  18.210  0.00  0.00    +0.000 A 
ATOM     13  C   UNL     1       1.941   9.704  17.825  0.00  0.00    +0.000 A 
ATOM     14  C   UNL     1       1.332  10.509  18.750  0.00  0.00    +0.000 A 
ATOM     15  C   UNL     1       0.991  10.045  19.999  0.00  0.00    +0.000 A 
ATOM     16  C   UNL     1       1.222   8.740  20.392  0.00  0.00    +0.000 A 
ATOM     17  O   UNL     1       0.411  11.011  20.762  0.00  0.00    +0.000 OA
ATOM     18  C   UNL     1       0.508  12.147  19.879  0.00  0.00    +0.000 C 
ATOM     19  O   UNL     1       1.011  11.815  18.570  0.00  0.00    +0.000 OA
ENDBRANCH   8  11
BRANCH   1  21
ATOM     20  C   UNL     1       6.592   5.480  18.844  0.00  0.00    +0.000 C 
ATOM     21  N   UNL     1       5.611   4.673  18.125  0.00  0.00    +0.000 N 
BRANCH  21  22
ATOM     22  C   UNL     1       5.985   4.067  16.823  0.00  0.00    +0.000 C 
BRANCH  22  23
ATOM     23  C   UNL     1       5.564   4.911  15.599  0.00  0.00    +0.000 C 
ATOM     24  C   UNL     1       6.687   5.858  15.164  0.00  0.00    +0.000 C 
ATOM     25  C   UNL     1       7.713   5.171  14.280  0.00  0.00    +0.000 C 
ATOM     26  C   UNL     1       7.023   4.745  12.999  0.00  0.00    +0.000 C 
ATOM     27  C   UNL     1       5.967   3.691  13.298  0.00  0.00    +0.000 C 
ATOM     28  C   UNL     1       4.999   4.077  14.422  0.00  0.00    +0.000 C 
ENDBRANCH  22  23
ENDBRANCH  21  22
ENDBRANCH   1  21
TORSDOF 4
ENDMDL
MODEL 4
REMARK VINA RESULT:      -7.9      4.654      8.637
REMARK  Name = 
REMARK  5 active torsions:
REMARK  status: ('A' for Active; 'I' for Inactive)
REMARK    1  A    between atoms: C_1  and  N_2
REMARK    2  A    between atoms: N_2  and  C_3
REMARK    3  A    between atoms: N_2  and  C_10
REMARK    4  A    between atoms: C_3  and  C_4
REMARK    5  A    between atoms: C_17  and  C_18
REMARK                            x       y       z     vdW  Elec       q    Type
REMARK                         _______ _______ _______ _____ _____    ______ ____
ROOT
ATOM      1  C   UNL     1      -1.126  12.060  20.460  0.00  0.00    +0.000 A 
ATOM      2  N   UNL     1      -2.005  12.772  21.188  0.00  0.00    +0.000 NA
ATOM      3  C   UNL     1      -2.166  12.410  22.468  0.00  0.00    +0.000 A 
ATOM      4  N   UNL     1      -1.584  11.376  23.085  0.00  0.00    +0.000 NA
ATOM      5  C   UNL     1      -0.760  10.631  22.343  0.00  0.00    +0.000 A 
ATOM      6  C   UNL     1      -0.195   9.478  22.868  0.00  0.00    +0.000 A 
ATOM      7  C   UNL     1       0.619   8.626  22.102  0.00  0.00    +0.000 A 
ATOM      8  C   UNL     1       0.926   8.934  20.773  0.00  0.00    +0.000 A 
ATOM      9  C   UNL     1       0.406  10.136  20.283  0.00  0.00    +0.000 A 
ATOM     10  C   UNL     1      -0.468  10.958  21.022  0.00  0.00    +0.000 A 
ENDROOT
BRANCH   8  11
ATOM     11  C   UNL     1       1.707   8.062  19.870  0.00  0.00    +0.000 A 
ATOM     12  C   UNL     1       2.063   8.523  18.566  0.00  0.00    +0.000 A 
ATOM     13  C   UNL     1       2.839   7.769  17.687  0.00  0.00    +0.000 A 
ATOM     14  C   UNL     1       3.218   6.522  18.106  0.00  0.00    +0.000 A 
ATOM     15  C   UNL     1       2.869   6.037  19.344  0.00  0.00    +0.000 A 
ATOM     16  C   UNL     1       2.133   6.780  20.249  0.00  0.00    +0.000 A 
ATOM     17  O   UNL     1       3.336   4.776  19.550  0.00  0.00    +0.000 OA
ATOM     18  C   UNL     1       3.940   4.500  18.269  0.00  0.00    +0.000 C 
ATOM     19  O   UNL     1       3.945   5.634  17.381  0.00  0.00    +0.000 OA
ENDBRANCH   8  11
BRANCH   1  21
ATOM     20  C   UNL     1      -2.099  11.807  18.282  0.00  0.00    +0.000 C 
ATOM     21  N   UNL     1      -0.999  12.336  19.080  0.00  0.00    +0.000 N 
BRANCH  21  22
ATOM     22  C   UNL     1      -0.376  13.626  18.693  0.00  0.00    +0.000 C 
BRANCH  22  23
ATOM     23  C   UNL     1       0.902  13.966  19.492  0.00  0.00    +0.000 C 
ATOM     24  C   UNL     1       2.042  13.001  19.153  0.00  0.00    +0.000 C 
ATOM     25  C   UNL     1       2.782  13.401  17.889  0.00  0.00    +0.000 C 
ATOM     26  C   UNL     1       3.445  14.743  18.134  0.00  0.00    +0.000 C 
ATOM     27  C   UNL     1       2.389  15.817  18.349  0.00  0.00    +0.000 C 
ATOM     28  C   UNL     1       1.330  15.452  19.395  0.00  0.00    +0.000 C 
ENDBRANCH  22  23
ENDBRANCH  21  22
ENDBRANCH   1  21
TORSDOF 4
ENDMDL
MODEL 5
REMARK VINA RESULT:      -7.8      4.643      8.496
REMARK  Name = 
REMARK  5 active torsions:
REMARK  status: ('A' for Active; 'I' for Inactive)
REMARK    1  A    between atoms: C_1  and  N_2
REMARK    2  A    between atoms: N_2  and  C_3
REMARK    3  A    between atoms: N_2  and  C_10
REMARK    4  A    between atoms: C_3  and  C_4
REMARK    5  A    between atoms: C_17  and  C_18
REMARK                            x       y       z     vdW  Elec       q    Type
REMARK                         _______ _______ _______ _____ _____    ______ ____
ROOT
ATOM      1  C   UNL     1      -0.371  12.318  20.611  0.00  0.00    +0.000 A 
ATOM      2  N   UNL     1      -1.181  13.111  21.334  0.00  0.00    +0.000 NA
ATOM      3  C   UNL     1      -1.525  12.677  22.554  0.00  0.00    +0.000 A 
ATOM      4  N   UNL     1      -1.189  11.507  23.109  0.00  0.00    +0.000 NA
ATOM      5  C   UNL     1      -0.436  10.693  22.365  0.00  0.00    +0.000 A 
ATOM      6  C   UNL     1      -0.129   9.417  22.815  0.00  0.00    +0.000 A 
ATOM      7  C   UNL     1       0.598   8.501  22.035  0.00  0.00    +0.000 A 
ATOM      8  C   UNL     1       1.079   8.861  20.772  0.00  0.00    +0.000 A 
ATOM      9  C   UNL     1       0.821  10.174  20.365  0.00  0.00    +0.000 A 
ATOM     10  C   UNL     1       0.032  11.073  21.110  0.00  0.00    +0.000 A 
ENDROOT
BRANCH   8  11
ATOM     11  C   UNL     1       1.784   7.944  19.852  0.00  0.00    +0.000 A 
ATOM     12  C   UNL     1       2.172   8.395  18.554  0.00  0.00    +0.000 A 
ATOM     13  C   UNL     1       2.881   7.595  17.659  0.00  0.00    +0.000 A 
ATOM     14  C   UNL     1       3.158   6.314  18.056  0.00  0.00    +0.000 A 
ATOM     15  C   UNL     1       2.775   5.839  19.288  0.00  0.00    +0.000 A 
ATOM     16  C   UNL     1       2.105   6.625  20.208  0.00  0.00    +0.000 A 
ATOM     17  O   UNL     1       3.139   4.541  19.472  0.00  0.00    +0.000 OA
ATOM     18  C   UNL     1       3.714   4.238  18.184  0.00  0.00    +0.000 C 
ATOM     19  O   UNL     1       3.809   5.382  17.314  0.00  0.00    +0.000 OA
ENDBRANCH   8  11
BRANCH   1  21
ATOM     20  C   UNL     1       1.330  12.452  18.925  0.00  0.00    +0.000 C 
ATOM     21  N   UNL     1      -0.066  12.683  19.280  0.00  0.00    +0.000 N 
BRANCH  21  22
ATOM     22  C   UNL     1      -1.119  12.483  18.254  0.00  0.00    +0.000 C 
BRANCH  22  23
ATOM     23  C   UNL     1      -1.941  11.190  18.449  0.00  0.00    +0.000 C 
ATOM     24  C   UNL     1      -3.444  11.484  18.465  0.00  0.00    +0.000 C 
ATOM     25  C   UNL     1      -4.028  11.589  17.068  0.00  0.00    +0.000 C 
ATOM     26  C   UNL     1      -3.887  10.238  16.394  0.00  0.00    +0.000 C 
ATOM     27  C   UNL     1      -2.416   9.901  16.200  0.00  0.00    +0.000 C 
ATOM     28  C   UNL     1      -1.568  10.050  17.468  0.00  0.00    +0.000 C 
ENDBRANCH  22  23
ENDBRANCH  21  22
ENDBRANCH   1  21
TORSDOF 4
ENDMDL
MODEL 6
REMARK VINA RESULT:      -7.7      0.962      1.297
REMARK  Name = 
REMARK  5 active torsions:
REMARK  status: ('A' for Active; 'I' for Inactive)
REMARK    1  A    between atoms: C_1  and  N_2
REMARK    2  A    between atoms: N_2  and  C_3
REMARK    3  A    between atoms: N_2  and  C_10
REMARK    4  A    between atoms: C_3  and  C_4
REMARK    5  A    between atoms: C_17  and  C_18
REMARK                            x       y       z     vdW  Elec       q    Type
REMARK                         _______ _______ _______ _____ _____    ______ ____
ROOT
ATOM      1  C   UNL     1       4.962   3.931  19.374  0.00  0.00    +0.000 A 
ATOM      2  N   UNL     1       5.291   2.698  19.798  0.00  0.00    +0.000 NA
ATOM      3  C   UNL     1       4.341   2.002  20.438  0.00  0.00    +0.000 A 
ATOM      4  N   UNL     1       3.112   2.428  20.748  0.00  0.00    +0.000 NA
ATOM      5  C   UNL     1       2.808   3.676  20.382  0.00  0.00    +0.000 A 
ATOM      6  C   UNL     1       1.596   4.239  20.755  0.00  0.00    +0.000 A 
ATOM      7  C   UNL     1       1.265   5.572  20.455  0.00  0.00    +0.000 A 
ATOM      8  C   UNL     1       2.141   6.380  19.724  0.00  0.00    +0.000 A 
ATOM      9  C   UNL     1       3.326   5.774  19.295  0.00  0.00    +0.000 A 
ATOM     10  C   UNL     1       3.697   4.462  19.653  0.00  0.00    +0.000 A 
ENDROOT
BRANCH   8  11
ATOM     11  C   UNL     1       1.912   7.811  19.428  0.00  0.00    +0.000 A 
ATOM     12  C   UNL     1       2.303   8.349  18.164  0.00  0.00    +0.000 A 
ATOM     13  C   UNL     1       2.071   9.676  17.807  0.00  0.00    +0.000 A 
ATOM     14  C   UNL     1       1.485  10.479  18.748  0.00  0.00    +0.000 A 
ATOM     15  C   UNL     1       1.121   9.999  19.984  0.00  0.00    +0.000 A 
ATOM     16  C   UNL     1       1.306   8.679  20.348  0.00  0.00    +0.000 A 
ATOM     17  O   UNL     1       0.570  10.967  20.766  0.00  0.00    +0.000 OA
ATOM     18  C   UNL     1       0.710  12.119  19.909  0.00  0.00    +0.000 C 
ATOM     19  O   UNL     1       1.208  11.799  18.595  0.00  0.00    +0.000 OA
ENDBRANCH   8  11
BRANCH   1  21
ATOM     20  C   UNL     1       6.697   5.542  19.759  0.00  0.00    +0.000 C 
ATOM     21  N   UNL     1       5.960   4.742  18.787  0.00  0.00    +0.000 N 
BRANCH  21  22
ATOM     22  C   UNL     1       6.670   4.206  17.600  0.00  0.00    +0.000 C 
BRANCH  22  23
ATOM     23  C   UNL     1       7.015   5.279  16.543  0.00  0.00    +0.000 C 
ATOM     24  C   UNL     1       6.960   4.701  15.125  0.00  0.00    +0.000 C 
ATOM     25  C   UNL     1       5.548   4.672  14.567  0.00  0.00    +0.000 C 
ATOM     26  C   UNL     1       5.060   6.102  14.442  0.00  0.00    +0.000 C 
ATOM     27  C   UNL     1       4.944   6.739  15.819  0.00  0.00    +0.000 C 
ATOM     28  C   UNL     1       6.200   6.589  16.684  0.00  0.00    +0.000 C 
ENDBRANCH  22  23
ENDBRANCH  21  22
ENDBRANCH   1  21
TORSDOF 4
ENDMDL
MODEL 7
REMARK VINA RESULT:      -7.6      3.622      8.003
REMARK  Name = 
REMARK  5 active torsions:
REMARK  status: ('A' for Active; 'I' for Inactive)
REMARK    1  A    between atoms: C_1  and  N_2
REMARK    2  A    between atoms: N_2  and  C_3
REMARK    3  A    between atoms: N_2  and  C_10
REMARK    4  A    between atoms: C_3  and  C_4
REMARK    5  A    between atoms: C_17  and  C_18
REMARK                            x       y       z     vdW  Elec       q    Type
REMARK                         _______ _______ _______ _____ _____    ______ ____
ROOT
ATOM      1  C   UNL     1       2.130   5.329  19.881  0.00  0.00    +0.000 A 
ATOM      2  N   UNL     1       1.111   4.961  20.679  0.00  0.00    +0.000 NA
ATOM      3  C   UNL     1       0.849   3.650  20.762  0.00  0.00    +0.000 A 
ATOM      4  N   UNL     1       1.462   2.669  20.091  0.00  0.00    +0.000 NA
ATOM      5  C   UNL     1       2.431   3.041  19.251  0.00  0.00    +0.000 A 
ATOM      6  C   UNL     1       3.048   2.105  18.435  0.00  0.00    +0.000 A 
ATOM      7  C   UNL     1       4.021   2.463  17.485  0.00  0.00    +0.000 A 
ATOM      8  C   UNL     1       4.437   3.791  17.354  0.00  0.00    +0.000 A 
ATOM      9  C   UNL     1       3.856   4.710  18.233  0.00  0.00    +0.000 A 
ATOM     10  C   UNL     1       2.830   4.371  19.138  0.00  0.00    +0.000 A 
ENDROOT
BRANCH   8  11
ATOM     11  C   UNL     1       5.395   4.272  16.335  0.00  0.00    +0.000 A 
ATOM     12  C   UNL     1       6.342   5.287  16.669  0.00  0.00    +0.000 A 
ATOM     13  C   UNL     1       7.301   5.748  15.768  0.00  0.00    +0.000 A 
ATOM     14  C   UNL     1       7.275   5.217  14.507  0.00  0.00    +0.000 A 
ATOM     15  C   UNL     1       6.358   4.258  14.144  0.00  0.00    +0.000 A 
ATOM     16  C   UNL     1       5.422   3.757  15.029  0.00  0.00    +0.000 A 
ATOM     17  O   UNL     1       6.500   3.880  12.845  0.00  0.00    +0.000 OA
ATOM     18  C   UNL     1       7.550   4.773  12.418  0.00  0.00    +0.000 C 
ATOM     19  O   UNL     1       8.105   5.560  13.489  0.00  0.00    +0.000 OA
ENDBRANCH   8  11
BRANCH   1  21
ATOM     20  C   UNL     1       2.236   7.119  18.287  0.00  0.00    +0.000 C 
ATOM     21  N   UNL     1       2.378   6.705  19.679  0.00  0.00    +0.000 N 
BRANCH  21  22
ATOM     22  C   UNL     1       1.977   7.641  20.759  0.00  0.00    +0.000 C 
BRANCH  22  23
ATOM     23  C   UNL     1       0.673   8.415  20.461  0.00  0.00    +0.000 C 
ATOM     24  C   UNL     1      -0.310   8.319  21.631  0.00  0.00    +0.000 C 
ATOM     25  C   UNL     1      -0.013   9.333  22.721  0.00  0.00    +0.000 C 
ATOM     26  C   UNL     1      -0.207  10.721  22.141  0.00  0.00    +0.000 C 
ATOM     27  C   UNL     1       0.820  10.979  21.048  0.00  0.00    +0.000 C 
ATOM     28  C   UNL     1       0.898   9.874  19.990  0.00  0.00    +0.000 C 
ENDBRANCH  22  23
ENDBRANCH  21  22
ENDBRANCH   1  21
TORSDOF 4
ENDMDL
MODEL 8
REMARK VINA RESULT:      -7.4      4.794      8.971
REMARK  Name = 
REMARK  5 active torsions:
REMARK  status: ('A' for Active; 'I' for Inactive)
REMARK    1  A    between atoms: C_1  and  N_2
REMARK    2  A    between atoms: N_2  and  C_3
REMARK    3  A    between atoms: N_2  and  C_10
REMARK    4  A    between atoms: C_3  and  C_4
REMARK    5  A    between atoms: C_17  and  C_18
REMARK                            x       y       z     vdW  Elec       q    Type
REMARK                         _______ _______ _______ _____ _____    ______ ____
ROOT
ATOM      1  C   UNL     1      -1.162  12.718  20.801  0.00  0.00    +0.000 A 
ATOM      2  N   UNL     1      -2.043  13.429  21.526  0.00  0.00    +0.000 NA
ATOM      3  C   UNL     1      -2.341  12.963  22.747  0.00  0.00    +0.000 A 
ATOM      4  N   UNL     1      -1.893  11.831  23.300  0.00  0.00    +0.000 NA
ATOM      5  C   UNL     1      -1.067  11.093  22.553  0.00  0.00    +0.000 A 
ATOM      6  C   UNL     1      -0.638   9.852  23.002  0.00  0.00    +0.000 A 
ATOM      7  C   UNL     1       0.172   9.011  22.219  0.00  0.00    +0.000 A 
ATOM      8  C   UNL     1       0.614   9.416  20.956  0.00  0.00    +0.000 A 
ATOM      9  C   UNL     1       0.229  10.698  20.550  0.00  0.00    +0.000 A 
ATOM     10  C   UNL     1      -0.640  11.517  21.298  0.00  0.00    +0.000 A 
ENDROOT
BRANCH   8  11
ATOM     11  C   UNL     1       1.402   8.572  20.033  0.00  0.00    +0.000 A 
ATOM     12  C   UNL     1       1.662   9.020  18.703  0.00  0.00    +0.000 A 
ATOM     13  C   UNL     1       2.438   8.293  17.802  0.00  0.00    +0.000 A 
ATOM     14  C   UNL     1       2.915   7.082  18.228  0.00  0.00    +0.000 A 
ATOM     15  C   UNL     1       2.659   6.608  19.493  0.00  0.00    +0.000 A 
ATOM     16  C   UNL     1       1.925   7.327  20.417  0.00  0.00    +0.000 A 
ATOM     17  O   UNL     1       3.214   5.384  19.702  0.00  0.00    +0.000 OA
ATOM     18  C   UNL     1       3.769   5.113  18.398  0.00  0.00    +0.000 C 
ATOM     19  O   UNL     1       3.659   6.223  17.486  0.00  0.00    +0.000 OA
ENDBRANCH   8  11
BRANCH   1  21
ATOM     20  C   UNL     1      -1.588  12.296  18.478  0.00  0.00    +0.000 C 
ATOM     21  N   UNL     1      -0.896  13.112  19.470  0.00  0.00    +0.000 N 
BRANCH  21  22
ATOM     22  C   UNL     1      -0.697  14.559  19.209  0.00  0.00    +0.000 C 
BRANCH  22  23
ATOM     23  C   UNL     1       0.780  14.956  18.992  0.00  0.00    +0.000 C 
ATOM     24  C   UNL     1       1.359  15.642  20.234  0.00  0.00    +0.000 C 
ATOM     25  C   UNL     1       1.829  14.645  21.278  0.00  0.00    +0.000 C 
ATOM     26  C   UNL     1       2.972  13.844  20.687  0.00  0.00    +0.000 C 
ATOM     27  C   UNL     1       2.476  13.008  19.517  0.00  0.00    +0.000 C 
ATOM     28  C   UNL     1       1.675  13.801  18.477  0.00  0.00    +0.000 C 
ENDBRANCH  22  23
ENDBRANCH  21  22
ENDBRANCH   1  21
TORSDOF 4
ENDMDL
MODEL 9
REMARK VINA RESULT:      -7.4      4.509      8.849
REMARK  Name = 
REMARK  5 active torsions:
REMARK  status: ('A' for Active; 'I' for Inactive)
REMARK    1  A    between atoms: C_1  and  N_2
REMARK    2  A    between atoms: N_2  and  C_3
REMARK    3  A    between atoms: N_2  and  C_10
REMARK    4  A    between atoms: C_3  and  C_4
REMARK    5  A    between atoms: C_17  and  C_18
REMARK                            x       y       z     vdW  Elec       q    Type
REMARK                         _______ _______ _______ _____ _____    ______ ____
ROOT
ATOM      1  C   UNL     1      -1.143  12.010  20.226  0.00  0.00    +0.000 A 
ATOM      2  N   UNL     1      -1.994  12.868  20.817  0.00  0.00    +0.000 NA
ATOM      3  C   UNL     1      -2.173  12.731  22.138  0.00  0.00    +0.000 A 
ATOM      4  N   UNL     1      -1.633  11.794  22.924  0.00  0.00    +0.000 NA
ATOM      5  C   UNL     1      -0.838  10.904  22.324  0.00  0.00    +0.000 A 
ATOM      6  C   UNL     1      -0.320   9.834  23.040  0.00  0.00    +0.000 A 
ATOM      7  C   UNL     1       0.461   8.835  22.433  0.00  0.00    +0.000 A 
ATOM      8  C   UNL     1       0.783   8.904  21.075  0.00  0.00    +0.000 A 
ATOM      9  C   UNL     1       0.312  10.026  20.386  0.00  0.00    +0.000 A 
ATOM     10  C   UNL     1      -0.530  10.994  20.969  0.00  0.00    +0.000 A 
ENDROOT
BRANCH   8  11
ATOM     11  C   UNL     1       1.532   7.864  20.337  0.00  0.00    +0.000 A 
ATOM     12  C   UNL     1       1.553   6.521  20.821  0.00  0.00    +0.000 A 
ATOM     13  C   UNL     1       2.199   5.487  20.146  0.00  0.00    +0.000 A 
ATOM     14  C   UNL     1       2.869   5.818  18.999  0.00  0.00    +0.000 A 
ATOM     15  C   UNL     1       2.892   7.107  18.520  0.00  0.00    +0.000 A 
ATOM     16  C   UNL     1       2.228   8.142  19.150  0.00  0.00    +0.000 A 
ATOM     17  O   UNL     1       3.626   7.215  17.379  0.00  0.00    +0.000 OA
ATOM     18  C   UNL     1       4.126   5.867  17.251  0.00  0.00    +0.000 C 
ATOM     19  O   UNL     1       3.579   4.958  18.225  0.00  0.00    +0.000 OA
ENDBRANCH   8  11
BRANCH   1  21
ATOM     20  C   UNL     1      -2.229  11.709  18.108  0.00  0.00    +0.000 C 
ATOM     21  N   UNL     1      -1.001  12.047  18.820  0.00  0.00    +0.000 N 
BRANCH  21  22
ATOM     22  C   UNL     1      -0.088  13.067  18.249  0.00  0.00    +0.000 C 
BRANCH  22  23
ATOM     23  C   UNL     1       0.772  13.797  19.305  0.00  0.00    +0.000 C 
ATOM     24  C   UNL     1       2.260  13.483  19.124  0.00  0.00    +0.000 C 
ATOM     25  C   UNL     1       2.909  14.354  18.062  0.00  0.00    +0.000 C 
ATOM     26  C   UNL     1       2.853  15.794  18.533  0.00  0.00    +0.000 C 
ATOM     27  C   UNL     1       1.407  16.260  18.619  0.00  0.00    +0.000 C 
ATOM     28  C   UNL     1       0.491  15.317  19.407  0.00  0.00    +0.000 C 
ENDBRANCH  22  23
ENDBRANCH  21  22
ENDBRANCH   1  21
TORSDOF 4
ENDMDL
