MODEL 1
REMARK VINA RESULT:      -8.5      0.000      0.000
REMARK  Name = 
REMARK  1 active torsions:
REMARK  status: ('A' for Active; 'I' for Inactive)
REMARK    1  A    between atoms: C_2  and  C_13
REMARK                            x       y       z     vdW  Elec       q    Type
REMARK                         _______ _______ _______ _____ _____    ______ ____
ROOT
ATOM      1  O   UNL     1       1.867   5.619  20.046  0.00  0.00    +0.000 OA
ATOM      2  C   UNL     1       2.499   6.234  19.195  0.00  0.00    +0.000 C 
ATOM      3  N   UNL     1       2.525   7.603  19.036  0.00  0.00    +0.000 N 
ATOM      4  C   UNL     1       1.765   8.391  19.866  0.00  0.00    +0.000 A 
ATOM      5  N   UNL     1       1.103   9.454  19.486  0.00  0.00    +0.000 NA
ATOM      6  C   UNL     1       0.395   9.846  20.598  0.00  0.00    +0.000 A 
ATOM      7  C   UNL     1      -0.600  10.825  20.728  0.00  0.00    +0.000 A 
ATOM      8  C   UNL     1      -1.149  11.059  21.996  0.00  0.00    +0.000 A 
ATOM      9  C   UNL     1      -0.692  10.357  23.114  0.00  0.00    +0.000 A 
ATOM     10  C   UNL     1       0.283   9.359  23.000  0.00  0.00    +0.000 A 
ATOM     11  C   UNL     1       0.769   9.109  21.717  0.00  0.00    +0.000 A 
ATOM     12  N   UNL     1       1.622   8.161  21.212  0.00  0.00    +0.000 N 
ATOM     13  H   UNL     1       2.723   7.994  18.126  0.00  0.00    +0.000 HD
ATOM     14  H   UNL     1       2.051   7.398  21.715  0.00  0.00    +0.000 HD
ENDROOT
BRANCH   2  15
ATOM     15  C   UNL     1       3.294   5.467  18.209  0.00  0.00    +0.000 A 
ATOM     16  C   UNL     1       3.199   4.066  18.191  0.00  0.00    +0.000 A 
ATOM     17  C   UNL     1       4.038   3.295  17.375  0.00  0.00    +0.000 A 
ATOM     18  C   UNL     1       4.982   3.994  16.623  0.00  0.00    +0.000 A 
ATOM     19  N   UNL     1       5.993   3.580  15.788  0.00  0.00    +0.000 N 
ATOM     20  C   UNL     1       6.655   4.691  15.344  0.00  0.00    +0.000 A 
ATOM     21  N   UNL     1       6.113   5.793  15.808  0.00  0.00    +0.000 NA
ATOM     22  C   UNL     1       5.085   5.380  16.618  0.00  0.00    +0.000 A 
ATOM     23  C   UNL     1       4.221   6.145  17.404  0.00  0.00    +0.000 A 
ATOM     24  H   UNL     1       6.228   2.621  15.569  0.00  0.00    +0.000 HD
ENDBRANCH   2  15
TORSDOF 1
ENDMDL
MODEL 2
REMARK VINA RESULT:      -8.3      6.499      9.041
REMARK  Name = 
REMARK  1 active torsions:
REMARK  status: ('A' for Active; 'I' for Inactive)
REMARK    1  A    between atoms: C_2  and  C_13
REMARK                            x       y       z     vdW  Elec       q    Type
REMARK                         _______ _______ _______ _____ _____    ______ ____
ROOT
ATOM      1  O   UNL     1       7.579   9.787  17.507  0.00  0.00    +0.000 OA
ATOM      2  C   UNL     1       8.467   9.407  18.263  0.00  0.00    +0.000 C 
ATOM      3  N   UNL     1       8.685   8.108  18.668  0.00  0.00    +0.000 N 
ATOM      4  C   UNL     1       7.838   7.117  18.236  0.00  0.00    +0.000 A 
ATOM      5  N   UNL     1       7.414   6.123  18.973  0.00  0.00    +0.000 NA
ATOM      6  C   UNL     1       6.503   5.460  18.183  0.00  0.00    +0.000 A 
ATOM      7  C   UNL     1       5.623   4.419  18.511  0.00  0.00    +0.000 A 
ATOM      8  C   UNL     1       4.809   3.887  17.502  0.00  0.00    +0.000 A 
ATOM      9  C   UNL     1       4.894   4.359  16.190  0.00  0.00    +0.000 A 
ATOM     10  C   UNL     1       5.748   5.415  15.849  0.00  0.00    +0.000 A 
ATOM     11  C   UNL     1       6.504   5.962  16.886  0.00  0.00    +0.000 A 
ATOM     12  N   UNL     1       7.343   7.045  16.956  0.00  0.00    +0.000 N 
ATOM     13  H   UNL     1       9.144   7.934  19.551  0.00  0.00    +0.000 HD
ATOM     14  H   UNL     1       7.546   7.707  16.222  0.00  0.00    +0.000 HD
ENDROOT
BRANCH   2  15
ATOM     15  C   UNL     1       9.388  10.413  18.837  0.00  0.00    +0.000 A 
ATOM     16  C   UNL     1       9.358  10.663  20.219  0.00  0.00    +0.000 A 
ATOM     17  C   UNL     1      10.107  11.705  20.782  0.00  0.00    +0.000 A 
ATOM     18  C   UNL     1      10.845  12.487  19.894  0.00  0.00    +0.000 A 
ATOM     19  N   UNL     1      11.619  13.609  20.070  0.00  0.00    +0.000 N 
ATOM     20  C   UNL     1      12.076  14.002  18.843  0.00  0.00    +0.000 A 
ATOM     21  N   UNL     1      11.677  13.187  17.895  0.00  0.00    +0.000 NA
ATOM     22  C   UNL     1      10.897  12.250  18.525  0.00  0.00    +0.000 A 
ATOM     23  C   UNL     1      10.178  11.187  17.975  0.00  0.00    +0.000 A 
ATOM     24  H   UNL     1      11.792  14.081  20.947  0.00  0.00    +0.000 HD
ENDBRANCH   2  15
TORSDOF 1
ENDMDL
MODEL 3
REMARK VINA RESULT:      -7.8      1.957      8.228
REMARK  Name = 
REMARK  1 active torsions:
REMARK  status: ('A' for Active; 'I' for Inactive)
REMARK    1  A    between atoms: C_2  and  C_13
REMARK                            x       y       z     vdW  Elec       q    Type
REMARK                         _______ _______ _______ _____ _____    ______ ____
ROOT
ATOM      1  O   UNL     1       1.979   9.323  17.368  0.00  0.00    +0.000 OA
ATOM      2  C   UNL     1       1.656   8.894  18.470  0.00  0.00    +0.000 C 
ATOM      3  N   UNL     1       2.107   7.728  19.050  0.00  0.00    +0.000 N 
ATOM      4  C   UNL     1       2.977   6.924  18.355  0.00  0.00    +0.000 A 
ATOM      5  N   UNL     1       2.936   5.616  18.341  0.00  0.00    +0.000 NA
ATOM      6  C   UNL     1       3.896   5.241  17.430  0.00  0.00    +0.000 A 
ATOM      7  C   UNL     1       4.180   3.976  16.897  0.00  0.00    +0.000 A 
ATOM      8  C   UNL     1       5.248   3.852  15.998  0.00  0.00    +0.000 A 
ATOM      9  C   UNL     1       6.035   4.958  15.664  0.00  0.00    +0.000 A 
ATOM     10  C   UNL     1       5.751   6.233  16.167  0.00  0.00    +0.000 A 
ATOM     11  C   UNL     1       4.648   6.336  17.015  0.00  0.00    +0.000 A 
ATOM     12  N   UNL     1       4.016   7.405  17.596  0.00  0.00    +0.000 N 
ATOM     13  H   UNL     1       1.530   7.258  19.733  0.00  0.00    +0.000 HD
ATOM     14  H   UNL     1       4.234   8.383  17.472  0.00  0.00    +0.000 HD
ENDROOT
BRANCH   2  15
ATOM     15  C   UNL     1       0.668   9.657  19.266  0.00  0.00    +0.000 A 
ATOM     16  C   UNL     1      -0.243  10.499  18.608  0.00  0.00    +0.000 A 
ATOM     17  C   UNL     1      -1.096  11.345  19.328  0.00  0.00    +0.000 A 
ATOM     18  C   UNL     1      -0.962  11.325  20.716  0.00  0.00    +0.000 A 
ATOM     19  N   UNL     1      -1.561  12.052  21.716  0.00  0.00    +0.000 N 
ATOM     20  C   UNL     1      -1.019  11.657  22.908  0.00  0.00    +0.000 A 
ATOM     21  N   UNL     1      -0.138  10.698  22.743  0.00  0.00    +0.000 NA
ATOM     22  C   UNL     1      -0.075  10.490  21.387  0.00  0.00    +0.000 A 
ATOM     23  C   UNL     1       0.746   9.622  20.666  0.00  0.00    +0.000 A 
ATOM     24  H   UNL     1      -2.255  12.777  21.591  0.00  0.00    +0.000 HD
ENDBRANCH   2  15
TORSDOF 1
ENDMDL
MODEL 4
REMARK VINA RESULT:      -7.8      1.037      1.279
REMARK  Name = 
REMARK  1 active torsions:
REMARK  status: ('A' for Active; 'I' for Inactive)
REMARK    1  A    between atoms: C_2  and  C_13
REMARK                            x       y       z     vdW  Elec       q    Type
REMARK                         _______ _______ _______ _____ _____    ______ ____
ROOT
ATOM      1  O   UNL     1       2.098   6.443  19.565  0.00  0.00    +0.000 OA
ATOM      2  C   UNL     1       2.576   6.851  18.513  0.00  0.00    +0.000 C 
ATOM      3  N   UNL     1       2.380   8.101  17.965  0.00  0.00    +0.000 N 
ATOM      4  C   UNL     1       1.559   8.995  18.606  0.00  0.00    +0.000 A 
ATOM      5  N   UNL     1       0.719   9.800  18.007  0.00  0.00    +0.000 NA
ATOM      6  C   UNL     1       0.026  10.412  19.026  0.00  0.00    +0.000 A 
ATOM      7  C   UNL     1      -1.099  11.246  18.970  0.00  0.00    +0.000 A 
ATOM      8  C   UNL     1      -1.600  11.777  20.166  0.00  0.00    +0.000 A 
ATOM      9  C   UNL     1      -0.975  11.507  21.387  0.00  0.00    +0.000 A 
ATOM     10  C   UNL     1       0.134  10.656  21.465  0.00  0.00    +0.000 A 
ATOM     11  C   UNL     1       0.576  10.099  20.265  0.00  0.00    +0.000 A 
ATOM     12  N   UNL     1       1.534   9.163  19.970  0.00  0.00    +0.000 N 
ATOM     13  H   UNL     1       2.461   8.223  16.965  0.00  0.00    +0.000 HD
ATOM     14  H   UNL     1       2.105   8.648  20.623  0.00  0.00    +0.000 HD
ENDROOT
BRANCH   2  15
ATOM     15  C   UNL     1       3.419   5.934  17.714  0.00  0.00    +0.000 A 
ATOM     16  C   UNL     1       3.205   4.549  17.803  0.00  0.00    +0.000 A 
ATOM     17  C   UNL     1       4.070   3.641  17.178  0.00  0.00    +0.000 A 
ATOM     18  C   UNL     1       5.161   4.190  16.503  0.00  0.00    +0.000 A 
ATOM     19  N   UNL     1       6.229   3.621  15.852  0.00  0.00    +0.000 N 
ATOM     20  C   UNL     1       7.037   4.631  15.407  0.00  0.00    +0.000 A 
ATOM     21  N   UNL     1       6.540   5.811  15.697  0.00  0.00    +0.000 NA
ATOM     22  C   UNL     1       5.385   5.558  16.393  0.00  0.00    +0.000 A 
ATOM     23  C   UNL     1       4.498   6.458  16.986  0.00  0.00    +0.000 A 
ATOM     24  H   UNL     1       6.405   2.631  15.749  0.00  0.00    +0.000 HD
ENDBRANCH   2  15
TORSDOF 1
ENDMDL
MODEL 5
REMARK VINA RESULT:      -7.8      2.354      8.170
REMARK  Name = 
REMARK  1 active torsions:
REMARK  status: ('A' for Active; 'I' for Inactive)
REMARK    1  A    between atoms: C_2  and  C_13
REMARK                            x       y       z     vdW  Elec       q    Type
REMARK                         _______ _______ _______ _____ _____    ______ ____
ROOT
ATOM      1  O   UNL     1       1.779   8.466  19.427  0.00  0.00    +0.000 OA
ATOM      2  C   UNL     1       1.364   8.231  20.556  0.00  0.00    +0.000 C 
ATOM      3  N   UNL     1       1.379   7.004  21.185  0.00  0.00    +0.000 N 
ATOM      4  C   UNL     1       1.867   5.910  20.514  0.00  0.00    +0.000 A 
ATOM      5  N   UNL     1       1.351   4.709  20.568  0.00  0.00    +0.000 NA
ATOM      6  C   UNL     1       2.072   3.972  19.657  0.00  0.00    +0.000 A 
ATOM      7  C   UNL     1       1.853   2.671  19.183  0.00  0.00    +0.000 A 
ATOM      8  C   UNL     1       2.767   2.128  18.270  0.00  0.00    +0.000 A 
ATOM      9  C   UNL     1       3.890   2.854  17.864  0.00  0.00    +0.000 A 
ATOM     10  C   UNL     1       4.112   4.163  18.307  0.00  0.00    +0.000 A 
ATOM     11  C   UNL     1       3.156   4.697  19.171  0.00  0.00    +0.000 A 
ATOM     12  N   UNL     1       2.981   5.946  19.710  0.00  0.00    +0.000 N 
ATOM     13  H   UNL     1       0.696   6.806  21.903  0.00  0.00    +0.000 HD
ATOM     14  H   UNL     1       3.536   6.769  19.532  0.00  0.00    +0.000 HD
ENDROOT
BRANCH   2  15
ATOM     15  C   UNL     1       0.754   9.333  21.333  0.00  0.00    +0.000 A 
ATOM     16  C   UNL     1       0.001   9.033  22.479  0.00  0.00    +0.000 A 
ATOM     17  C   UNL     1      -0.711  10.029  23.159  0.00  0.00    +0.000 A 
ATOM     18  C   UNL     1      -0.656  11.312  22.614  0.00  0.00    +0.000 A 
ATOM     19  N   UNL     1      -1.270  12.492  22.956  0.00  0.00    +0.000 N 
ATOM     20  C   UNL     1      -0.898  13.441  22.045  0.00  0.00    +0.000 A 
ATOM     21  N   UNL     1      -0.056  12.958  21.161  0.00  0.00    +0.000 NA
ATOM     22  C   UNL     1       0.092  11.633  21.486  0.00  0.00    +0.000 A 
ATOM     23  C   UNL     1       0.830  10.642  20.835  0.00  0.00    +0.000 A 
ATOM     24  H   UNL     1      -1.911  12.628  23.727  0.00  0.00    +0.000 HD
ENDBRANCH   2  15
TORSDOF 1
ENDMDL
MODEL 6
REMARK VINA RESULT:      -7.6      1.899      8.259
REMARK  Name = 
REMARK  1 active torsions:
REMARK  status: ('A' for Active; 'I' for Inactive)
REMARK    1  A    between atoms: C_2  and  C_13
REMARK                            x       y       z     vdW  Elec       q    Type
REMARK                         _______ _______ _______ _____ _____    ______ ____
ROOT
ATOM      1  O   UNL     1       1.476   8.955  18.768  0.00  0.00    +0.000 OA
ATOM      2  C   UNL     1       1.438   8.576  19.933  0.00  0.00    +0.000 C 
ATOM      3  N   UNL     1       2.000   7.418  20.427  0.00  0.00    +0.000 N 
ATOM      4  C   UNL     1       2.645   6.564  19.566  0.00  0.00    +0.000 A 
ATOM      5  N   UNL     1       2.575   5.258  19.618  0.00  0.00    +0.000 NA
ATOM      6  C   UNL     1       3.261   4.822  18.508  0.00  0.00    +0.000 A 
ATOM      7  C   UNL     1       3.372   3.531  17.973  0.00  0.00    +0.000 A 
ATOM      8  C   UNL     1       4.171   3.343  16.837  0.00  0.00    +0.000 A 
ATOM      9  C   UNL     1       4.867   4.412  16.267  0.00  0.00    +0.000 A 
ATOM     10  C   UNL     1       4.749   5.712  16.772  0.00  0.00    +0.000 A 
ATOM     11  C   UNL     1       3.903   5.878  17.868  0.00  0.00    +0.000 A 
ATOM     12  N   UNL     1       3.463   6.986  18.547  0.00  0.00    +0.000 N 
ATOM     13  H   UNL     1       1.609   6.990  21.254  0.00  0.00    +0.000 HD
ATOM     14  H   UNL     1       3.662   7.951  18.330  0.00  0.00    +0.000 HD
ENDROOT
BRANCH   2  15
ATOM     15  C   UNL     1       0.704   9.396  20.923  0.00  0.00    +0.000 A 
ATOM     16  C   UNL     1       0.678   8.990  22.267  0.00  0.00    +0.000 A 
ATOM     17  C   UNL     1      -0.122   9.654  23.207  0.00  0.00    +0.000 A 
ATOM     18  C   UNL     1      -0.904  10.703  22.725  0.00  0.00    +0.000 A 
ATOM     19  N   UNL     1      -1.840  11.513  23.323  0.00  0.00    +0.000 N 
ATOM     20  C   UNL     1      -2.344  12.351  22.367  0.00  0.00    +0.000 A 
ATOM     21  N   UNL     1      -1.768  12.159  21.203  0.00  0.00    +0.000 NA
ATOM     22  C   UNL     1      -0.884  11.127  21.400  0.00  0.00    +0.000 A 
ATOM     23  C   UNL     1      -0.057  10.486  20.477  0.00  0.00    +0.000 A 
ATOM     24  H   UNL     1      -2.129  11.473  24.291  0.00  0.00    +0.000 HD
ENDBRANCH   2  15
TORSDOF 1
ENDMDL
MODEL 7
REMARK VINA RESULT:      -7.5      1.196      1.771
REMARK  Name = 
REMARK  1 active torsions:
REMARK  status: ('A' for Active; 'I' for Inactive)
REMARK    1  A    between atoms: C_2  and  C_13
REMARK                            x       y       z     vdW  Elec       q    Type
REMARK                         _______ _______ _______ _____ _____    ______ ____
ROOT
ATOM      1  O   UNL     1       2.767   8.849  17.898  0.00  0.00    +0.000 OA
ATOM      2  C   UNL     1       2.678   7.713  18.350  0.00  0.00    +0.000 C 
ATOM      3  N   UNL     1       1.896   7.325  19.418  0.00  0.00    +0.000 N 
ATOM      4  C   UNL     1       1.154   8.268  20.086  0.00  0.00    +0.000 A 
ATOM      5  N   UNL     1       0.989   8.307  21.383  0.00  0.00    +0.000 NA
ATOM      6  C   UNL     1       0.294   9.471  21.618  0.00  0.00    +0.000 A 
ATOM      7  C   UNL     1      -0.016  10.100  22.831  0.00  0.00    +0.000 A 
ATOM      8  C   UNL     1      -0.777  11.277  22.800  0.00  0.00    +0.000 A 
ATOM      9  C   UNL     1      -1.244  11.796  21.590  0.00  0.00    +0.000 A 
ATOM     10  C   UNL     1      -0.923  11.195  20.367  0.00  0.00    +0.000 A 
ATOM     11  C   UNL     1      -0.118  10.058  20.426  0.00  0.00    +0.000 A 
ATOM     12  N   UNL     1       0.476   9.286  19.460  0.00  0.00    +0.000 N 
ATOM     13  H   UNL     1       2.163   6.516  19.961  0.00  0.00    +0.000 HD
ATOM     14  H   UNL     1       0.462   9.440  18.463  0.00  0.00    +0.000 HD
ENDROOT
BRANCH   2  15
ATOM     15  C   UNL     1       3.495   6.640  17.741  0.00  0.00    +0.000 A 
ATOM     16  C   UNL     1       3.089   5.303  17.881  0.00  0.00    +0.000 A 
ATOM     17  C   UNL     1       3.904   4.250  17.446  0.00  0.00    +0.000 A 
ATOM     18  C   UNL     1       5.140   4.606  16.906  0.00  0.00    +0.000 A 
ATOM     19  N   UNL     1       6.204   3.862  16.455  0.00  0.00    +0.000 N 
ATOM     20  C   UNL     1       7.191   4.727  16.073  0.00  0.00    +0.000 A 
ATOM     21  N   UNL     1       6.819   5.978  16.215  0.00  0.00    +0.000 NA
ATOM     22  C   UNL     1       5.556   5.924  16.748  0.00  0.00    +0.000 A 
ATOM     23  C   UNL     1       4.722   6.969  17.149  0.00  0.00    +0.000 A 
ATOM     24  H   UNL     1       6.259   2.852  16.439  0.00  0.00    +0.000 HD
ENDBRANCH   2  15
TORSDOF 1
ENDMDL
MODEL 8
REMARK VINA RESULT:      -7.4      1.847      2.475
REMARK  Name = 
REMARK  1 active torsions:
REMARK  status: ('A' for Active; 'I' for Inactive)
REMARK    1  A    between atoms: C_2  and  C_13
REMARK                            x       y       z     vdW  Elec       q    Type
REMARK                         _______ _______ _______ _____ _____    ______ ____
ROOT
ATOM      1  O   UNL     1       2.332   8.769  17.392  0.00  0.00    +0.000 OA
ATOM      2  C   UNL     1       2.456   8.036  18.367  0.00  0.00    +0.000 C 
ATOM      3  N   UNL     1       1.830   8.195  19.585  0.00  0.00    +0.000 N 
ATOM      4  C   UNL     1       1.003   9.274  19.780  0.00  0.00    +0.000 A 
ATOM      5  N   UNL     1       0.935   9.972  20.885  0.00  0.00    +0.000 NA
ATOM      6  C   UNL     1       0.087  11.015  20.594  0.00  0.00    +0.000 A 
ATOM      7  C   UNL     1      -0.223  12.155  21.348  0.00  0.00    +0.000 A 
ATOM      8  C   UNL     1      -1.158  13.064  20.835  0.00  0.00    +0.000 A 
ATOM      9  C   UNL     1      -1.793  12.826  19.613  0.00  0.00    +0.000 A 
ATOM     10  C   UNL     1      -1.477  11.706  18.835  0.00  0.00    +0.000 A 
ATOM     11  C   UNL     1      -0.502  10.849  19.345  0.00  0.00    +0.000 A 
ATOM     12  N   UNL     1       0.128   9.745  18.831  0.00  0.00    +0.000 N 
ATOM     13  H   UNL     1       2.261   7.820  20.418  0.00  0.00    +0.000 HD
ATOM     14  H   UNL     1       0.014   9.351  17.909  0.00  0.00    +0.000 HD
ENDROOT
BRANCH   2  15
ATOM     15  C   UNL     1       3.381   6.884  18.276  0.00  0.00    +0.000 A 
ATOM     16  C   UNL     1       3.324   5.878  19.254  0.00  0.00    +0.000 A 
ATOM     17  C   UNL     1       4.273   4.848  19.288  0.00  0.00    +0.000 A 
ATOM     18  C   UNL     1       5.282   4.904  18.326  0.00  0.00    +0.000 A 
ATOM     19  N   UNL     1       6.395   4.128  18.104  0.00  0.00    +0.000 N 
ATOM     20  C   UNL     1       7.076   4.662  17.046  0.00  0.00    +0.000 A 
ATOM     21  N   UNL     1       6.456   5.708  16.550  0.00  0.00    +0.000 NA
ATOM     22  C   UNL     1       5.350   5.884  17.343  0.00  0.00    +0.000 A 
ATOM     23  C   UNL     1       4.380   6.887  17.292  0.00  0.00    +0.000 A 
ATOM     24  H   UNL     1       6.678   3.324  18.649  0.00  0.00    +0.000 HD
ENDBRANCH   2  15
TORSDOF 1
ENDMDL
MODEL 9
REMARK VINA RESULT:      -7.3      1.700      8.104
REMARK  Name = 
REMARK  1 active torsions:
REMARK  status: ('A' for Active; 'I' for Inactive)
REMARK    1  A    between atoms: C_2  and  C_13
REMARK                            x       y       z     vdW  Elec       q    Type
REMARK                         _______ _______ _______ _____ _____    ______ ____
ROOT
ATOM      1  O   UNL     1       1.697   7.073  21.057  0.00  0.00    +0.000 OA
ATOM      2  C   UNL     1       1.436   8.102  20.444  0.00  0.00    +0.000 C 
ATOM      3  N   UNL     1       1.800   8.385  19.145  0.00  0.00    +0.000 N 
ATOM      4  C   UNL     1       2.550   7.474  18.443  0.00  0.00    +0.000 A 
ATOM      5  N   UNL     1       3.529   7.780  17.631  0.00  0.00    +0.000 NA
ATOM      6  C   UNL     1       4.070   6.572  17.255  0.00  0.00    +0.000 A 
ATOM      7  C   UNL     1       5.236   6.300  16.527  0.00  0.00    +0.000 A 
ATOM      8  C   UNL     1       5.553   4.964  16.244  0.00  0.00    +0.000 A 
ATOM      9  C   UNL     1       4.709   3.927  16.649  0.00  0.00    +0.000 A 
ATOM     10  C   UNL     1       3.553   4.178  17.398  0.00  0.00    +0.000 A 
ATOM     11  C   UNL     1       3.294   5.512  17.713  0.00  0.00    +0.000 A 
ATOM     12  N   UNL     1       2.347   6.116  18.500  0.00  0.00    +0.000 N 
ATOM     13  H   UNL     1       1.902   9.348  18.857  0.00  0.00    +0.000 HD
ATOM     14  H   UNL     1       1.641   5.663  19.060  0.00  0.00    +0.000 HD
ENDROOT
BRANCH   2  15
ATOM     15  C   UNL     1       0.690   9.174  21.141  0.00  0.00    +0.000 A 
ATOM     16  C   UNL     1       0.442   9.056  22.517  0.00  0.00    +0.000 A 
ATOM     17  C   UNL     1      -0.381   9.972  23.186  0.00  0.00    +0.000 A 
ATOM     18  C   UNL     1      -0.957  10.973  22.403  0.00  0.00    +0.000 A 
ATOM     19  N   UNL     1      -1.851  11.976  22.691  0.00  0.00    +0.000 N 
ATOM     20  C   UNL     1      -2.120  12.647  21.530  0.00  0.00    +0.000 A 
ATOM     21  N   UNL     1      -1.429  12.166  20.523  0.00  0.00    +0.000 NA
ATOM     22  C   UNL     1      -0.715  11.114  21.041  0.00  0.00    +0.000 A 
ATOM     23  C   UNL     1       0.136  10.220  20.389  0.00  0.00    +0.000 A 
ATOM     24  H   UNL     1      -2.265  12.162  23.595  0.00  0.00    +0.000 HD
ENDBRANCH   2  15
TORSDOF 1
ENDMDL
