MODEL 1
REMARK VINA RESULT:      -8.7      0.000      0.000
REMARK  Name = 
REMARK  6 active torsions:
REMARK  status: ('A' for Active; 'I' for Inactive)
REMARK    1  A    between atoms: C_8  and  C_9
REMARK    2  A    between atoms: C_20  and  C_21
REMARK    3  A    between atoms: C_21  and  C_22
REMARK    4  A    between atoms: C_22  and  C_23
REMARK    5  A    between atoms: C_23  and  N_24
REMARK    6  A    between atoms: N_27  and  C_28
REMARK                            x       y       z     vdW  Elec       q    Type
REMARK                         _______ _______ _______ _____ _____    ______ ____
ROOT
ATOM      1 CL   UNL     1       5.444  16.507  19.478  0.00  0.00    +0.000 Cl
ATOM      2  C   UNL     1       6.770  15.497  19.058  0.00  0.00    +0.000 A 
ATOM      3  C   UNL     1       6.646  14.594  18.009  0.00  0.00    +0.000 A 
ATOM      4  C   UNL     1       7.692  13.717  17.733  0.00  0.00    +0.000 A 
ATOM      5  C   UNL     1       8.836  13.695  18.547  0.00  0.00    +0.000 A 
ATOM      6  C   UNL     1       8.987  14.638  19.576  0.00  0.00    +0.000 A 
ATOM      7  C   UNL     1       7.946  15.558  19.800  0.00  0.00    +0.000 A 
ATOM      8  C   UNL     1      10.135  14.622  20.554  0.00  0.00    +0.000 C 
ATOM      9  N   UNL     1      11.375  14.432  20.250  0.00  0.00    +0.000 NA
ATOM     10  C   UNL     1      11.771  14.146  18.880  0.00  0.00    +0.000 C 
ATOM     11  C   UNL     1      11.173  12.869  18.433  0.00  0.00    +0.000 A 
ATOM     12  N   UNL     1      11.784  11.776  18.034  0.00  0.00    +0.000 NA
ATOM     13  N   UNL     1      10.826  10.839  17.743  0.00  0.00    +0.000 NA
ATOM     14  C   UNL     1       9.642  11.373  17.974  0.00  0.00    +0.000 A 
ATOM     15  N   UNL     1       9.812  12.699  18.328  0.00  0.00    +0.000 N 
ENDROOT
BRANCH   8  16
ATOM     16  C   UNL     1       9.808  14.833  22.004  0.00  0.00    +0.000 A 
ATOM     17  C   UNL     1       8.911  13.980  22.657  0.00  0.00    +0.000 A 
ATOM     18  C   UNL     1       8.533  14.221  23.979  0.00  0.00    +0.000 A 
ATOM     19  C   UNL     1       9.070  15.308  24.657  0.00  0.00    +0.000 A 
ATOM     20  C   UNL     1      10.003  16.133  24.028  0.00  0.00    +0.000 A 
ATOM     21  C   UNL     1      10.382  15.897  22.705  0.00  0.00    +0.000 A 
ENDBRANCH   8  16
BRANCH  14  22
ATOM     22  C   UNL     1       8.351  10.624  17.990  0.00  0.00    +0.000 C 
BRANCH  22  23
ATOM     23  C   UNL     1       8.526   9.140  18.321  0.00  0.00    +0.000 C 
BRANCH  23  24
ATOM     24  C   UNL     1       7.474   8.193  17.709  0.00  0.00    +0.000 C 
BRANCH  24  25
ATOM     25  N   UNL     1       7.879   6.786  17.539  0.00  0.00    +0.000 NA
ATOM     26  C   UNL     1       7.587   5.929  18.714  0.00  0.00    +0.000 C 
ATOM     27  C   UNL     1       6.086   5.666  18.973  0.00  0.00    +0.000 C 
ATOM     28  N   UNL     1       5.486   5.028  17.790  0.00  0.00    +0.000 N 
ATOM     29  C   UNL     1       5.677   5.806  16.549  0.00  0.00    +0.000 C 
ATOM     30  C   UNL     1       7.174   6.181  16.371  0.00  0.00    +0.000 C 
BRANCH  28  31
ATOM     31  C   UNL     1       4.213   4.461  17.926  0.00  0.00    +0.000 A 
ATOM     32  C   UNL     1       3.992   3.089  18.105  0.00  0.00    +0.000 A 
ATOM     33  C   UNL     1       2.698   2.562  18.183  0.00  0.00    +0.000 A 
ATOM     34  C   UNL     1       1.594   3.401  18.075  0.00  0.00    +0.000 A 
ATOM     35  C   UNL     1       1.784   4.767  17.904  0.00  0.00    +0.000 A 
ATOM     36  C   UNL     1       3.081   5.290  17.837  0.00  0.00    +0.000 A 
ENDBRANCH  28  31
ENDBRANCH  24  25
ENDBRANCH  23  24
ENDBRANCH  22  23
ENDBRANCH  14  22
TORSDOF 6
ENDMDL
MODEL 2
REMARK VINA RESULT:      -8.5      7.495     10.698
REMARK  Name = 
REMARK  6 active torsions:
REMARK  status: ('A' for Active; 'I' for Inactive)
REMARK    1  A    between atoms: C_8  and  C_9
REMARK    2  A    between atoms: C_20  and  C_21
REMARK    3  A    between atoms: C_21  and  C_22
REMARK    4  A    between atoms: C_22  and  C_23
REMARK    5  A    between atoms: C_23  and  N_24
REMARK    6  A    between atoms: N_27  and  C_28
REMARK                            x       y       z     vdW  Elec       q    Type
REMARK                         _______ _______ _______ _____ _____    ______ ____
ROOT
ATOM      1 CL   UNL     1       2.017  13.259  17.802  0.00  0.00    +0.000 Cl
ATOM      2  C   UNL     1       0.772  13.122  18.979  0.00  0.00    +0.000 A 
ATOM      3  C   UNL     1       1.092  13.155  20.331  0.00  0.00    +0.000 A 
ATOM      4  C   UNL     1       0.091  12.954  21.277  0.00  0.00    +0.000 A 
ATOM      5  C   UNL     1      -1.220  12.652  20.873  0.00  0.00    +0.000 A 
ATOM      6  C   UNL     1      -1.559  12.666  19.511  0.00  0.00    +0.000 A 
ATOM      7  C   UNL     1      -0.546  12.934  18.571  0.00  0.00    +0.000 A 
ATOM      8  C   UNL     1      -2.914  12.260  18.989  0.00  0.00    +0.000 C 
ATOM      9  N   UNL     1      -4.048  12.607  19.497  0.00  0.00    +0.000 NA
ATOM     10  C   UNL     1      -4.106  13.410  20.710  0.00  0.00    +0.000 C 
ATOM     11  C   UNL     1      -3.505  12.668  21.840  0.00  0.00    +0.000 A 
ATOM     12  N   UNL     1      -4.072  12.298  22.967  0.00  0.00    +0.000 NA
ATOM     13  N   UNL     1      -3.138  11.613  23.702  0.00  0.00    +0.000 NA
ATOM     14  C   UNL     1      -2.016  11.570  23.010  0.00  0.00    +0.000 A 
ATOM     15  N   UNL     1      -2.177  12.312  21.854  0.00  0.00    +0.000 N 
ENDROOT
BRANCH   8  16
ATOM     16  C   UNL     1      -2.948  11.366  17.782  0.00  0.00    +0.000 A 
ATOM     17  C   UNL     1      -1.992  10.356  17.624  0.00  0.00    +0.000 A 
ATOM     18  C   UNL     1      -1.961   9.580  16.465  0.00  0.00    +0.000 A 
ATOM     19  C   UNL     1      -2.903   9.800  15.468  0.00  0.00    +0.000 A 
ATOM     20  C   UNL     1      -3.890  10.772  15.641  0.00  0.00    +0.000 A 
ATOM     21  C   UNL     1      -3.922  11.552  16.799  0.00  0.00    +0.000 A 
ENDBRANCH   8  16
BRANCH  14  22
ATOM     22  C   UNL     1      -0.826  10.738  23.355  0.00  0.00    +0.000 C 
BRANCH  22  23
ATOM     23  C   UNL     1      -0.870   9.344  22.726  0.00  0.00    +0.000 C 
BRANCH  23  24
ATOM     24  C   UNL     1      -0.376   9.255  21.267  0.00  0.00    +0.000 C 
BRANCH  24  25
ATOM     25  N   UNL     1       1.050   9.549  21.039  0.00  0.00    +0.000 NA
ATOM     26  C   UNL     1       1.970   8.520  21.581  0.00  0.00    +0.000 C 
ATOM     27  C   UNL     1       1.934   7.160  20.846  0.00  0.00    +0.000 C 
ATOM     28  N   UNL     1       2.266   7.358  19.425  0.00  0.00    +0.000 N 
ATOM     29  C   UNL     1       1.391   8.341  18.755  0.00  0.00    +0.000 C 
ATOM     30  C   UNL     1       1.329   9.658  19.577  0.00  0.00    +0.000 C 
BRANCH  28  31
ATOM     31  C   UNL     1       2.558   6.225  18.657  0.00  0.00    +0.000 A 
ATOM     32  C   UNL     1       1.765   5.070  18.647  0.00  0.00    +0.000 A 
ATOM     33  C   UNL     1       2.128   3.941  17.903  0.00  0.00    +0.000 A 
ATOM     34  C   UNL     1       3.301   3.945  17.156  0.00  0.00    +0.000 A 
ATOM     35  C   UNL     1       4.102   5.080  17.141  0.00  0.00    +0.000 A 
ATOM     36  C   UNL     1       3.730   6.209  17.880  0.00  0.00    +0.000 A 
ENDBRANCH  28  31
ENDBRANCH  24  25
ENDBRANCH  23  24
ENDBRANCH  22  23
ENDBRANCH  14  22
TORSDOF 6
ENDMDL
MODEL 3
REMARK VINA RESULT:      -8.4      7.599     10.777
REMARK  Name = 
REMARK  6 active torsions:
REMARK  status: ('A' for Active; 'I' for Inactive)
REMARK    1  A    between atoms: C_8  and  C_9
REMARK    2  A    between atoms: C_20  and  C_21
REMARK    3  A    between atoms: C_21  and  C_22
REMARK    4  A    between atoms: C_22  and  C_23
REMARK    5  A    between atoms: C_23  and  N_24
REMARK    6  A    between atoms: N_27  and  C_28
REMARK                            x       y       z     vdW  Elec       q    Type
REMARK                         _______ _______ _______ _____ _____    ______ ____
ROOT
ATOM      1 CL   UNL     1      -2.782   9.759  15.361  0.00  0.00    +0.000 Cl
ATOM      2  C   UNL     1      -2.162  10.309  16.866  0.00  0.00    +0.000 A 
ATOM      3  C   UNL     1      -0.990   9.761  17.373  0.00  0.00    +0.000 A 
ATOM      4  C   UNL     1      -0.542  10.146  18.634  0.00  0.00    +0.000 A 
ATOM      5  C   UNL     1      -1.300  11.030  19.419  0.00  0.00    +0.000 A 
ATOM      6  C   UNL     1      -2.458  11.624  18.893  0.00  0.00    +0.000 A 
ATOM      7  C   UNL     1      -2.861  11.270  17.592  0.00  0.00    +0.000 A 
ATOM      8  C   UNL     1      -3.379  12.504  19.700  0.00  0.00    +0.000 C 
ATOM      9  N   UNL     1      -3.005  13.438  20.508  0.00  0.00    +0.000 NA
ATOM     10  C   UNL     1      -1.593  13.684  20.759  0.00  0.00    +0.000 C 
ATOM     11  C   UNL     1      -0.974  12.499  21.392  0.00  0.00    +0.000 A 
ATOM     12  N   UNL     1      -0.387  12.412  22.565  0.00  0.00    +0.000 NA
ATOM     13  N   UNL     1       0.012  11.111  22.740  0.00  0.00    +0.000 NA
ATOM     14  C   UNL     1      -0.342  10.422  21.674  0.00  0.00    +0.000 A 
ATOM     15  N   UNL     1      -0.893  11.287  20.746  0.00  0.00    +0.000 N 
ENDROOT
BRANCH   8  16
ATOM     16  C   UNL     1      -4.856  12.268  19.561  0.00  0.00    +0.000 A 
ATOM     17  C   UNL     1      -5.458  12.290  18.298  0.00  0.00    +0.000 A 
ATOM     18  C   UNL     1      -6.841  12.160  18.167  0.00  0.00    +0.000 A 
ATOM     19  C   UNL     1      -7.624  11.989  19.301  0.00  0.00    +0.000 A 
ATOM     20  C   UNL     1      -7.024  11.918  20.560  0.00  0.00    +0.000 A 
ATOM     21  C   UNL     1      -5.640  12.049  20.695  0.00  0.00    +0.000 A 
ENDBRANCH   8  16
BRANCH  14  22
ATOM     22  C   UNL     1      -0.288   8.935  21.555  0.00  0.00    +0.000 C 
BRANCH  22  23
ATOM     23  C   UNL     1       1.119   8.371  21.770  0.00  0.00    +0.000 C 
BRANCH  23  24
ATOM     24  C   UNL     1       1.980   8.229  20.499  0.00  0.00    +0.000 C 
BRANCH  24  25
ATOM     25  N   UNL     1       1.512   7.257  19.494  0.00  0.00    +0.000 NA
ATOM     26  C   UNL     1       1.965   7.553  18.114  0.00  0.00    +0.000 C 
ATOM     27  C   UNL     1       3.481   7.366  17.869  0.00  0.00    +0.000 C 
ATOM     28  N   UNL     1       3.863   5.979  18.181  0.00  0.00    +0.000 N 
ATOM     29  C   UNL     1       3.496   5.568  19.552  0.00  0.00    +0.000 C 
ATOM     30  C   UNL     1       2.001   5.888  19.830  0.00  0.00    +0.000 C 
BRANCH  28  31
ATOM     31  C   UNL     1       5.124   5.537  17.763  0.00  0.00    +0.000 A 
ATOM     32  C   UNL     1       5.399   5.106  16.458  0.00  0.00    +0.000 A 
ATOM     33  C   UNL     1       6.663   4.621  16.102  0.00  0.00    +0.000 A 
ATOM     34  C   UNL     1       7.678   4.552  17.050  0.00  0.00    +0.000 A 
ATOM     35  C   UNL     1       7.434   4.980  18.350  0.00  0.00    +0.000 A 
ATOM     36  C   UNL     1       6.171   5.472  18.698  0.00  0.00    +0.000 A 
ENDBRANCH  28  31
ENDBRANCH  24  25
ENDBRANCH  23  24
ENDBRANCH  22  23
ENDBRANCH  14  22
TORSDOF 6
ENDMDL
MODEL 4
REMARK VINA RESULT:      -8.4      7.657     10.791
REMARK  Name = 
REMARK  6 active torsions:
REMARK  status: ('A' for Active; 'I' for Inactive)
REMARK    1  A    between atoms: C_8  and  C_9
REMARK    2  A    between atoms: C_20  and  C_21
REMARK    3  A    between atoms: C_21  and  C_22
REMARK    4  A    between atoms: C_22  and  C_23
REMARK    5  A    between atoms: C_23  and  N_24
REMARK    6  A    between atoms: N_27  and  C_28
REMARK                            x       y       z     vdW  Elec       q    Type
REMARK                         _______ _______ _______ _____ _____    ______ ____
ROOT
ATOM      1 CL   UNL     1      -3.291  10.171  15.522  0.00  0.00    +0.000 Cl
ATOM      2  C   UNL     1      -2.543  10.631  16.999  0.00  0.00    +0.000 A 
ATOM      3  C   UNL     1      -1.353  10.028  17.389  0.00  0.00    +0.000 A 
ATOM      4  C   UNL     1      -0.800  10.340  18.628  0.00  0.00    +0.000 A 
ATOM      5  C   UNL     1      -1.471  11.204  19.509  0.00  0.00    +0.000 A 
ATOM      6  C   UNL     1      -2.646  11.853  19.101  0.00  0.00    +0.000 A 
ATOM      7  C   UNL     1      -3.157  11.573  17.820  0.00  0.00    +0.000 A 
ATOM      8  C   UNL     1      -3.477  12.717  20.016  0.00  0.00    +0.000 C 
ATOM      9  N   UNL     1      -3.016  13.601  20.836  0.00  0.00    +0.000 NA
ATOM     10  C   UNL     1      -1.582  13.797  20.989  0.00  0.00    +0.000 C 
ATOM     11  C   UNL     1      -0.953  12.567  21.517  0.00  0.00    +0.000 A 
ATOM     12  N   UNL     1      -0.282  12.408  22.636  0.00  0.00    +0.000 NA
ATOM     13  N   UNL     1       0.090  11.091  22.720  0.00  0.00    +0.000 NA
ATOM     14  C   UNL     1      -0.364  10.463  21.653  0.00  0.00    +0.000 A 
ATOM     15  N   UNL     1      -0.957  11.386  20.811  0.00  0.00    +0.000 N 
ENDROOT
BRANCH   8  16
ATOM     16  C   UNL     1      -4.967  12.527  19.980  0.00  0.00    +0.000 A 
ATOM     17  C   UNL     1      -5.681  12.318  21.166  0.00  0.00    +0.000 A 
ATOM     18  C   UNL     1      -7.050  12.052  21.135  0.00  0.00    +0.000 A 
ATOM     19  C   UNL     1      -7.713  12.014  19.915  0.00  0.00    +0.000 A 
ATOM     20  C   UNL     1      -7.016  12.270  18.733  0.00  0.00    +0.000 A 
ATOM     21  C   UNL     1      -5.645  12.535  18.760  0.00  0.00    +0.000 A 
ENDBRANCH   8  16
BRANCH  14  22
ATOM     22  C   UNL     1      -0.363   8.983  21.462  0.00  0.00    +0.000 C 
BRANCH  22  23
ATOM     23  C   UNL     1       1.024   8.360  21.638  0.00  0.00    +0.000 C 
BRANCH  23  24
ATOM     24  C   UNL     1       1.882   8.272  20.359  0.00  0.00    +0.000 C 
BRANCH  24  25
ATOM     25  N   UNL     1       1.471   7.267  19.362  0.00  0.00    +0.000 NA
ATOM     26  C   UNL     1       2.022   7.505  18.006  0.00  0.00    +0.000 C 
ATOM     27  C   UNL     1       3.548   7.293  17.874  0.00  0.00    +0.000 C 
ATOM     28  N   UNL     1       3.890   5.915  18.264  0.00  0.00    +0.000 N 
ATOM     29  C   UNL     1       3.425   5.561  19.621  0.00  0.00    +0.000 C 
ATOM     30  C   UNL     1       1.919   5.907  19.782  0.00  0.00    +0.000 C 
BRANCH  28  31
ATOM     31  C   UNL     1       5.171   5.444  17.951  0.00  0.00    +0.000 A 
ATOM     32  C   UNL     1       6.281   5.603  18.790  0.00  0.00    +0.000 A 
ATOM     33  C   UNL     1       7.553   5.163  18.409  0.00  0.00    +0.000 A 
ATOM     34  C   UNL     1       7.741   4.558  17.170  0.00  0.00    +0.000 A 
ATOM     35  C   UNL     1       6.656   4.381  16.321  0.00  0.00    +0.000 A 
ATOM     36  C   UNL     1       5.384   4.815  16.712  0.00  0.00    +0.000 A 
ENDBRANCH  28  31
ENDBRANCH  24  25
ENDBRANCH  23  24
ENDBRANCH  22  23
ENDBRANCH  14  22
TORSDOF 6
ENDMDL
MODEL 5
REMARK VINA RESULT:      -8.2      0.636      1.035
REMARK  Name = 
REMARK  6 active torsions:
REMARK  status: ('A' for Active; 'I' for Inactive)
REMARK    1  A    between atoms: C_8  and  C_9
REMARK    2  A    between atoms: C_20  and  C_21
REMARK    3  A    between atoms: C_21  and  C_22
REMARK    4  A    between atoms: C_22  and  C_23
REMARK    5  A    between atoms: C_23  and  N_24
REMARK    6  A    between atoms: N_27  and  C_28
REMARK                            x       y       z     vdW  Elec       q    Type
REMARK                         _______ _______ _______ _____ _____    ______ ____
ROOT
ATOM      1 CL   UNL     1       5.064  16.450  19.092  0.00  0.00    +0.000 Cl
ATOM      2  C   UNL     1       6.477  15.520  18.788  0.00  0.00    +0.000 A 
ATOM      3  C   UNL     1       6.489  14.601  17.746  0.00  0.00    +0.000 A 
ATOM      4  C   UNL     1       7.604  13.787  17.562  0.00  0.00    +0.000 A 
ATOM      5  C   UNL     1       8.682  13.844  18.460  0.00  0.00    +0.000 A 
ATOM      6  C   UNL     1       8.697  14.803  19.484  0.00  0.00    +0.000 A 
ATOM      7  C   UNL     1       7.587  15.660  19.616  0.00  0.00    +0.000 A 
ATOM      8  C   UNL     1       9.765  14.867  20.546  0.00  0.00    +0.000 C 
ATOM      9  N   UNL     1      11.034  14.751  20.340  0.00  0.00    +0.000 NA
ATOM     10  C   UNL     1      11.550  14.477  19.007  0.00  0.00    +0.000 C 
ATOM     11  C   UNL     1      11.067  13.162  18.534  0.00  0.00    +0.000 A 
ATOM     12  N   UNL     1      11.772  12.105  18.198  0.00  0.00    +0.000 NA
ATOM     13  N   UNL     1      10.897  11.108  17.849  0.00  0.00    +0.000 NA
ATOM     14  C   UNL     1       9.669  11.570  17.982  0.00  0.00    +0.000 A 
ATOM     15  N   UNL     1       9.730  12.908  18.329  0.00  0.00    +0.000 N 
ENDROOT
BRANCH   8  16
ATOM     16  C   UNL     1       9.317  15.071  21.965  0.00  0.00    +0.000 A 
ATOM     17  C   UNL     1       9.685  16.227  22.663  0.00  0.00    +0.000 A 
ATOM     18  C   UNL     1       9.349  16.385  24.007  0.00  0.00    +0.000 A 
ATOM     19  C   UNL     1       8.624  15.392  24.653  0.00  0.00    +0.000 A 
ATOM     20  C   UNL     1       8.211  14.259  23.950  0.00  0.00    +0.000 A 
ATOM     21  C   UNL     1       8.547  14.097  22.604  0.00  0.00    +0.000 A 
ENDBRANCH   8  16
BRANCH  14  22
ATOM     22  C   UNL     1       8.428  10.744  17.910  0.00  0.00    +0.000 C 
BRANCH  22  23
ATOM     23  C   UNL     1       8.708   9.241  17.974  0.00  0.00    +0.000 C 
BRANCH  23  24
ATOM     24  C   UNL     1       7.500   8.325  17.690  0.00  0.00    +0.000 C 
BRANCH  24  25
ATOM     25  N   UNL     1       7.800   6.907  17.419  0.00  0.00    +0.000 NA
ATOM     26  C   UNL     1       7.656   6.026  18.602  0.00  0.00    +0.000 C 
ATOM     27  C   UNL     1       6.204   5.823  19.093  0.00  0.00    +0.000 C 
ATOM     28  N   UNL     1       5.391   5.255  18.006  0.00  0.00    +0.000 N 
ATOM     29  C   UNL     1       5.421   6.066  16.771  0.00  0.00    +0.000 C 
ATOM     30  C   UNL     1       6.888   6.376  16.365  0.00  0.00    +0.000 C 
BRANCH  28  31
ATOM     31  C   UNL     1       4.129   4.742  18.330  0.00  0.00    +0.000 A 
ATOM     32  C   UNL     1       3.411   3.870  17.501  0.00  0.00    +0.000 A 
ATOM     33  C   UNL     1       2.128   3.427  17.845  0.00  0.00    +0.000 A 
ATOM     34  C   UNL     1       1.534   3.856  19.027  0.00  0.00    +0.000 A 
ATOM     35  C   UNL     1       2.227   4.715  19.872  0.00  0.00    +0.000 A 
ATOM     36  C   UNL     1       3.513   5.148  19.527  0.00  0.00    +0.000 A 
ENDBRANCH  28  31
ENDBRANCH  24  25
ENDBRANCH  23  24
ENDBRANCH  22  23
ENDBRANCH  14  22
TORSDOF 6
ENDMDL
MODEL 6
REMARK VINA RESULT:      -8.1      1.277      1.722
REMARK  Name = 
REMARK  6 active torsions:
REMARK  status: ('A' for Active; 'I' for Inactive)
REMARK    1  A    between atoms: C_8  and  C_9
REMARK    2  A    between atoms: C_20  and  C_21
REMARK    3  A    between atoms: C_21  and  C_22
REMARK    4  A    between atoms: C_22  and  C_23
REMARK    5  A    between atoms: C_23  and  N_24
REMARK    6  A    between atoms: N_27  and  C_28
REMARK                            x       y       z     vdW  Elec       q    Type
REMARK                         _______ _______ _______ _____ _____    ______ ____
ROOT
ATOM      1 CL   UNL     1       4.585  15.562  18.761  0.00  0.00    +0.000 Cl
ATOM      2  C   UNL     1       6.156  14.868  18.834  0.00  0.00    +0.000 A 
ATOM      3  C   UNL     1       6.700  14.270  17.704  0.00  0.00    +0.000 A 
ATOM      4  C   UNL     1       7.934  13.630  17.793  0.00  0.00    +0.000 A 
ATOM      5  C   UNL     1       8.596  13.530  19.029  0.00  0.00    +0.000 A 
ATOM      6  C   UNL     1       8.075  14.175  20.161  0.00  0.00    +0.000 A 
ATOM      7  C   UNL     1       6.857  14.870  20.036  0.00  0.00    +0.000 A 
ATOM      8  C   UNL     1       8.668  14.037  21.541  0.00  0.00    +0.000 C 
ATOM      9  N   UNL     1       9.926  14.086  21.823  0.00  0.00    +0.000 NA
ATOM     10  C   UNL     1      10.921  14.226  20.770  0.00  0.00    +0.000 C 
ATOM     11  C   UNL     1      10.880  13.052  19.871  0.00  0.00    +0.000 A 
ATOM     12  N   UNL     1      11.835  12.187  19.613  0.00  0.00    +0.000 NA
ATOM     13  N   UNL     1      11.333  11.254  18.742  0.00  0.00    +0.000 NA
ATOM     14  C   UNL     1      10.077  11.560  18.486  0.00  0.00    +0.000 A 
ATOM     15  N   UNL     1       9.771  12.754  19.113  0.00  0.00    +0.000 N 
ENDROOT
BRANCH   8  16
ATOM     16  C   UNL     1       7.717  13.812  22.681  0.00  0.00    +0.000 A 
ATOM     17  C   UNL     1       7.044  12.592  22.809  0.00  0.00    +0.000 A 
ATOM     18  C   UNL     1       6.093  12.405  23.813  0.00  0.00    +0.000 A 
ATOM     19  C   UNL     1       5.828  13.436  24.705  0.00  0.00    +0.000 A 
ATOM     20  C   UNL     1       6.531  14.638  24.614  0.00  0.00    +0.000 A 
ATOM     21  C   UNL     1       7.483  14.829  23.609  0.00  0.00    +0.000 A 
ENDBRANCH   8  16
BRANCH  14  22
ATOM     22  C   UNL     1       9.111  10.684  17.759  0.00  0.00    +0.000 C 
BRANCH  22  23
ATOM     23  C   UNL     1       8.713   9.442  18.559  0.00  0.00    +0.000 C 
BRANCH  23  24
ATOM     24  C   UNL     1       7.613   8.566  17.926  0.00  0.00    +0.000 C 
BRANCH  24  25
ATOM     25  N   UNL     1       7.980   7.170  17.625  0.00  0.00    +0.000 NA
ATOM     26  C   UNL     1       7.709   6.224  18.735  0.00  0.00    +0.000 C 
ATOM     27  C   UNL     1       6.212   5.970  19.026  0.00  0.00    +0.000 C 
ATOM     28  N   UNL     1       5.557   5.446  17.817  0.00  0.00    +0.000 N 
ATOM     29  C   UNL     1       5.722   6.321  16.638  0.00  0.00    +0.000 C 
ATOM     30  C   UNL     1       7.221   6.679  16.438  0.00  0.00    +0.000 C 
BRANCH  28  31
ATOM     31  C   UNL     1       4.277   4.895  17.952  0.00  0.00    +0.000 A 
ATOM     32  C   UNL     1       3.371   5.276  18.951  0.00  0.00    +0.000 A 
ATOM     33  C   UNL     1       2.123   4.656  19.079  0.00  0.00    +0.000 A 
ATOM     34  C   UNL     1       1.757   3.634  18.209  0.00  0.00    +0.000 A 
ATOM     35  C   UNL     1       2.633   3.241  17.205  0.00  0.00    +0.000 A 
ATOM     36  C   UNL     1       3.877   3.870  17.076  0.00  0.00    +0.000 A 
ENDBRANCH  28  31
ENDBRANCH  24  25
ENDBRANCH  23  24
ENDBRANCH  22  23
ENDBRANCH  14  22
TORSDOF 6
ENDMDL
MODEL 7
REMARK VINA RESULT:      -8.1      7.857     10.746
REMARK  Name = 
REMARK  6 active torsions:
REMARK  status: ('A' for Active; 'I' for Inactive)
REMARK    1  A    between atoms: C_8  and  C_9
REMARK    2  A    between atoms: C_20  and  C_21
REMARK    3  A    between atoms: C_21  and  C_22
REMARK    4  A    between atoms: C_22  and  C_23
REMARK    5  A    between atoms: C_23  and  N_24
REMARK    6  A    between atoms: N_27  and  C_28
REMARK                            x       y       z     vdW  Elec       q    Type
REMARK                         _______ _______ _______ _____ _____    ______ ____
ROOT
ATOM      1 CL   UNL     1      -3.387   9.911  15.308  0.00  0.00    +0.000 Cl
ATOM      2  C   UNL     1      -2.574  10.431  16.731  0.00  0.00    +0.000 A 
ATOM      3  C   UNL     1      -1.318   9.921  17.035  0.00  0.00    +0.000 A 
ATOM      4  C   UNL     1      -0.705  10.277  18.234  0.00  0.00    +0.000 A 
ATOM      5  C   UNL     1      -1.376  11.091  19.161  0.00  0.00    +0.000 A 
ATOM      6  C   UNL     1      -2.622  11.649  18.837  0.00  0.00    +0.000 A 
ATOM      7  C   UNL     1      -3.198  11.327  17.594  0.00  0.00    +0.000 A 
ATOM      8  C   UNL     1      -3.450  12.450  19.810  0.00  0.00    +0.000 C 
ATOM      9  N   UNL     1      -3.000  13.369  20.597  0.00  0.00    +0.000 NA
ATOM     10  C   UNL     1      -1.578  13.673  20.650  0.00  0.00    +0.000 C 
ATOM     11  C   UNL     1      -0.823  12.496  21.131  0.00  0.00    +0.000 A 
ATOM     12  N   UNL     1      -0.066  12.391  22.200  0.00  0.00    +0.000 NA
ATOM     13  N   UNL     1       0.409  11.106  22.255  0.00  0.00    +0.000 NA
ATOM     14  C   UNL     1      -0.069  10.443  21.221  0.00  0.00    +0.000 A 
ATOM     15  N   UNL     1      -0.788  11.315  20.424  0.00  0.00    +0.000 N 
ENDROOT
BRANCH   8  16
ATOM     16  C   UNL     1      -4.920  12.149  19.878  0.00  0.00    +0.000 A 
ATOM     17  C   UNL     1      -5.644  12.425  21.043  0.00  0.00    +0.000 A 
ATOM     18  C   UNL     1      -6.989  12.066  21.147  0.00  0.00    +0.000 A 
ATOM     19  C   UNL     1      -7.617  11.447  20.075  0.00  0.00    +0.000 A 
ATOM     20  C   UNL     1      -6.914  11.213  18.892  0.00  0.00    +0.000 A 
ATOM     21  C   UNL     1      -5.568  11.569  18.785  0.00  0.00    +0.000 A 
ENDBRANCH   8  16
BRANCH  14  22
ATOM     22  C   UNL     1       0.030   8.966  21.027  0.00  0.00    +0.000 C 
BRANCH  22  23
ATOM     23  C   UNL     1       1.322   8.542  20.325  0.00  0.00    +0.000 C 
BRANCH  23  24
ATOM     24  C   UNL     1       1.960   7.234  20.836  0.00  0.00    +0.000 C 
BRANCH  24  25
ATOM     25  N   UNL     1       1.605   6.003  20.107  0.00  0.00    +0.000 NA
ATOM     26  C   UNL     1       1.593   6.158  18.633  0.00  0.00    +0.000 C 
ATOM     27  C   UNL     1       2.983   6.368  17.987  0.00  0.00    +0.000 C 
ATOM     28  N   UNL     1       3.856   5.228  18.314  0.00  0.00    +0.000 N 
ATOM     29  C   UNL     1       3.981   4.988  19.766  0.00  0.00    +0.000 C 
ATOM     30  C   UNL     1       2.575   4.915  20.424  0.00  0.00    +0.000 C 
BRANCH  28  31
ATOM     31  C   UNL     1       5.052   5.094  17.600  0.00  0.00    +0.000 A 
ATOM     32  C   UNL     1       5.132   5.158  16.202  0.00  0.00    +0.000 A 
ATOM     33  C   UNL     1       6.344   4.964  15.531  0.00  0.00    +0.000 A 
ATOM     34  C   UNL     1       7.505   4.694  16.248  0.00  0.00    +0.000 A 
ATOM     35  C   UNL     1       7.457   4.632  17.636  0.00  0.00    +0.000 A 
ATOM     36  C   UNL     1       6.243   4.836  18.302  0.00  0.00    +0.000 A 
ENDBRANCH  28  31
ENDBRANCH  24  25
ENDBRANCH  23  24
ENDBRANCH  22  23
ENDBRANCH  14  22
TORSDOF 6
ENDMDL
MODEL 8
REMARK VINA RESULT:      -8.0      4.322      6.314
REMARK  Name = 
REMARK  6 active torsions:
REMARK  status: ('A' for Active; 'I' for Inactive)
REMARK    1  A    between atoms: C_8  and  C_9
REMARK    2  A    between atoms: C_20  and  C_21
REMARK    3  A    between atoms: C_21  and  C_22
REMARK    4  A    between atoms: C_22  and  C_23
REMARK    5  A    between atoms: C_23  and  N_24
REMARK    6  A    between atoms: N_27  and  C_28
REMARK                            x       y       z     vdW  Elec       q    Type
REMARK                         _______ _______ _______ _____ _____    ______ ____
ROOT
ATOM      1 CL   UNL     1       7.178  11.513  24.118  0.00  0.00    +0.000 Cl
ATOM      2  C   UNL     1       6.906  12.849  23.072  0.00  0.00    +0.000 A 
ATOM      3  C   UNL     1       5.625  13.371  22.936  0.00  0.00    +0.000 A 
ATOM      4  C   UNL     1       5.395  14.394  22.020  0.00  0.00    +0.000 A 
ATOM      5  C   UNL     1       6.431  14.852  21.189  0.00  0.00    +0.000 A 
ATOM      6  C   UNL     1       7.736  14.363  21.356  0.00  0.00    +0.000 A 
ATOM      7  C   UNL     1       7.962  13.373  22.331  0.00  0.00    +0.000 A 
ATOM      8  C   UNL     1       8.881  14.728  20.445  0.00  0.00    +0.000 C 
ATOM      9  N   UNL     1       9.148  15.915  20.016  0.00  0.00    +0.000 NA
ATOM     10  C   UNL     1       8.285  17.039  20.348  0.00  0.00    +0.000 C 
ATOM     11  C   UNL     1       6.935  16.830  19.779  0.00  0.00    +0.000 A 
ATOM     12  N   UNL     1       6.292  17.574  18.907  0.00  0.00    +0.000 NA
ATOM     13  N   UNL     1       5.085  16.976  18.653  0.00  0.00    +0.000 NA
ATOM     14  C   UNL     1       5.010  15.873  19.370  0.00  0.00    +0.000 A 
ATOM     15  N   UNL     1       6.131  15.786  20.175  0.00  0.00    +0.000 N 
ENDROOT
BRANCH   8  16
ATOM     16  C   UNL     1       9.781  13.615  19.989  0.00  0.00    +0.000 A 
ATOM     17  C   UNL     1      11.171  13.740  20.102  0.00  0.00    +0.000 A 
ATOM     18  C   UNL     1      12.017  12.751  19.601  0.00  0.00    +0.000 A 
ATOM     19  C   UNL     1      11.473  11.623  19.001  0.00  0.00    +0.000 A 
ATOM     20  C   UNL     1      10.087  11.470  18.928  0.00  0.00    +0.000 A 
ATOM     21  C   UNL     1       9.237  12.458  19.428  0.00  0.00    +0.000 A 
ENDBRANCH   8  16
BRANCH  14  22
ATOM     22  C   UNL     1       3.958  14.823  19.225  0.00  0.00    +0.000 C 
BRANCH  22  23
ATOM     23  C   UNL     1       2.598  15.263  19.772  0.00  0.00    +0.000 C 
BRANCH  23  24
ATOM     24  C   UNL     1       1.872  14.232  20.660  0.00  0.00    +0.000 C 
BRANCH  24  25
ATOM     25  N   UNL     1       0.614  13.677  20.128  0.00  0.00    +0.000 NA
ATOM     26  C   UNL     1       0.733  13.123  18.758  0.00  0.00    +0.000 C 
ATOM     27  C   UNL     1       1.573  11.829  18.648  0.00  0.00    +0.000 C 
ATOM     28  N   UNL     1       0.989  10.787  19.508  0.00  0.00    +0.000 N 
ATOM     29  C   UNL     1       0.849  11.205  20.918  0.00  0.00    +0.000 C 
ATOM     30  C   UNL     1       0.122  12.575  21.005  0.00  0.00    +0.000 C 
BRANCH  28  31
ATOM     31  C   UNL     1       1.434   9.471  19.337  0.00  0.00    +0.000 A 
ATOM     32  C   UNL     1       1.457   8.521  20.367  0.00  0.00    +0.000 A 
ATOM     33  C   UNL     1       1.963   7.232  20.159  0.00  0.00    +0.000 A 
ATOM     34  C   UNL     1       2.464   6.870  18.914  0.00  0.00    +0.000 A 
ATOM     35  C   UNL     1       2.446   7.790  17.872  0.00  0.00    +0.000 A 
ATOM     36  C   UNL     1       1.931   9.074  18.083  0.00  0.00    +0.000 A 
ENDBRANCH  28  31
ENDBRANCH  24  25
ENDBRANCH  23  24
ENDBRANCH  22  23
ENDBRANCH  14  22
TORSDOF 6
ENDMDL
MODEL 9
REMARK VINA RESULT:      -8.0      7.893     10.707
REMARK  Name = 
REMARK  6 active torsions:
REMARK  status: ('A' for Active; 'I' for Inactive)
REMARK    1  A    between atoms: C_8  and  C_9
REMARK    2  A    between atoms: C_20  and  C_21
REMARK    3  A    between atoms: C_21  and  C_22
REMARK    4  A    between atoms: C_22  and  C_23
REMARK    5  A    between atoms: C_23  and  N_24
REMARK    6  A    between atoms: N_27  and  C_28
REMARK                            x       y       z     vdW  Elec       q    Type
REMARK                         _______ _______ _______ _____ _____    ______ ____
ROOT
ATOM      1 CL   UNL     1      -3.079  10.086  15.330  0.00  0.00    +0.000 Cl
ATOM      2  C   UNL     1      -2.348  10.536  16.819  0.00  0.00    +0.000 A 
ATOM      3  C   UNL     1      -1.128   9.981  17.186  0.00  0.00    +0.000 A 
ATOM      4  C   UNL     1      -0.585  10.281  18.432  0.00  0.00    +0.000 A 
ATOM      5  C   UNL     1      -1.293  11.083  19.342  0.00  0.00    +0.000 A 
ATOM      6  C   UNL     1      -2.501  11.686  18.959  0.00  0.00    +0.000 A 
ATOM      7  C   UNL     1      -3.003  11.421  17.670  0.00  0.00    +0.000 A 
ATOM      8  C   UNL     1      -3.369  12.479  19.903  0.00  0.00    +0.000 C 
ATOM      9  N   UNL     1      -2.948  13.358  20.749  0.00  0.00    +0.000 NA
ATOM     10  C   UNL     1      -1.525  13.620  20.903  0.00  0.00    +0.000 C 
ATOM     11  C   UNL     1      -0.833  12.406  21.391  0.00  0.00    +0.000 A 
ATOM     12  N   UNL     1      -0.150  12.245  22.502  0.00  0.00    +0.000 NA
ATOM     13  N   UNL     1       0.286  10.946  22.543  0.00  0.00    +0.000 NA
ATOM     14  C   UNL     1      -0.141  10.331  21.459  0.00  0.00    +0.000 A 
ATOM     15  N   UNL     1      -0.783  11.249  20.648  0.00  0.00    +0.000 N 
ENDROOT
BRANCH   8  16
ATOM     16  C   UNL     1      -4.848  12.216  19.866  0.00  0.00    +0.000 A 
ATOM     17  C   UNL     1      -5.486  11.947  18.650  0.00  0.00    +0.000 A 
ATOM     18  C   UNL     1      -6.872  11.791  18.593  0.00  0.00    +0.000 A 
ATOM     19  C   UNL     1      -7.620  11.884  19.759  0.00  0.00    +0.000 A 
ATOM     20  C   UNL     1      -6.984  12.103  20.982  0.00  0.00    +0.000 A 
ATOM     21  C   UNL     1      -5.598  12.262  21.043  0.00  0.00    +0.000 A 
ENDBRANCH   8  16
BRANCH  14  22
ATOM     22  C   UNL     1      -0.068   8.859  21.221  0.00  0.00    +0.000 C 
BRANCH  22  23
ATOM     23  C   UNL     1       1.189   8.440  20.455  0.00  0.00    +0.000 C 
BRANCH  23  24
ATOM     24  C   UNL     1       1.865   7.142  20.942  0.00  0.00    +0.000 C 
BRANCH  24  25
ATOM     25  N   UNL     1       1.487   5.902  20.239  0.00  0.00    +0.000 NA
ATOM     26  C   UNL     1       1.510   6.018  18.761  0.00  0.00    +0.000 C 
ATOM     27  C   UNL     1       2.918   6.169  18.140  0.00  0.00    +0.000 C 
ATOM     28  N   UNL     1       3.748   5.013  18.515  0.00  0.00    +0.000 N 
ATOM     29  C   UNL     1       3.837   4.808  19.975  0.00  0.00    +0.000 C 
ATOM     30  C   UNL     1       2.417   4.795  20.605  0.00  0.00    +0.000 C 
BRANCH  28  31
ATOM     31  C   UNL     1       4.955   4.824  17.830  0.00  0.00    +0.000 A 
ATOM     32  C   UNL     1       6.211   4.851  18.451  0.00  0.00    +0.000 A 
ATOM     33  C   UNL     1       7.392   4.711  17.715  0.00  0.00    +0.000 A 
ATOM     34  C   UNL     1       7.340   4.546  16.335  0.00  0.00    +0.000 A 
ATOM     35  C   UNL     1       6.108   4.507  15.693  0.00  0.00    +0.000 A 
ATOM     36  C   UNL     1       4.929   4.639  16.437  0.00  0.00    +0.000 A 
ENDBRANCH  28  31
ENDBRANCH  24  25
ENDBRANCH  23  24
ENDBRANCH  22  23
ENDBRANCH  14  22
TORSDOF 6
ENDMDL
