MODEL 1
REMARK VINA RESULT:      -9.0      0.000      0.000
REMARK  Name = 
REMARK  6 active torsions:
REMARK  status: ('A' for Active; 'I' for Inactive)
REMARK    1  A    between atoms: C_2  and  C_22
REMARK    2  A    between atoms: N_3  and  C_4
REMARK    3  A    between atoms: C_4  and  C_5
REMARK    4  A    between atoms: C_5  and  C_6
REMARK    5  A    between atoms: C_6  and  N_7
REMARK    6  A    between atoms: N_7  and  C_8
REMARK                            x       y       z     vdW  Elec       q    Type
REMARK                         _______ _______ _______ _____ _____    ______ ____
ROOT
ATOM      1  N   UNL     1       3.149   6.766  19.479  0.00  0.00    +0.000 N 
ATOM      2  H   UNL     1       3.620   6.722  20.378  0.00  0.00    +0.000 HD
ENDROOT
BRANCH   1   3
ATOM      3  C   UNL     1       3.292   5.618  18.690  0.00  0.00    +0.000 A 
ATOM      4  C   UNL     1       4.160   5.522  17.578  0.00  0.00    +0.000 A 
ATOM      5  C   UNL     1       4.318   4.269  16.971  0.00  0.00    +0.000 A 
ATOM      6  N   UNL     1       3.652   3.161  17.367  0.00  0.00    +0.000 NA
ATOM      7  C   UNL     1       2.782   3.254  18.375  0.00  0.00    +0.000 A 
ATOM      8  C   UNL     1       2.094   2.101  18.731  0.00  0.00    +0.000 A 
ATOM      9  C   UNL     1       1.155   2.087  19.761  0.00  0.00    +0.000 A 
ATOM     10  C   UNL     1       0.905   3.253  20.466  0.00  0.00    +0.000 A 
ATOM     11  C   UNL     1       1.600   4.418  20.136  0.00  0.00    +0.000 A 
ATOM     12  C   UNL     1       2.550   4.453  19.078  0.00  0.00    +0.000 A 
ATOM     13  C   UNL     1       5.186   4.058  15.755  0.00  0.00    +0.000 C 
ATOM     14  C   UNL     1       6.104   5.225  15.415  0.00  0.00    +0.000 C 
ATOM     15  C   UNL     1       5.351   6.534  15.557  0.00  0.00    +0.000 C 
ATOM     16  C   UNL     1       4.895   6.709  17.002  0.00  0.00    +0.000 C 
ENDBRANCH   1   3
BRANCH   1  17
ATOM     17  C   UNL     1       2.095   7.757  19.357  0.00  0.00    +0.000 C 
BRANCH  17  18
ATOM     18  C   UNL     1       2.124   8.417  17.982  0.00  0.00    +0.000 C 
BRANCH  18  19
ATOM     19  C   UNL     1       1.796   9.905  18.032  0.00  0.00    +0.000 C 
BRANCH  19  22
ATOM     20  O   UNL     1      -0.233  10.406  19.939  0.00  0.00    +0.000 OA
ATOM     21  C   UNL     1      -0.511  10.422  18.747  0.00  0.00    +0.000 C 
ATOM     22  N   UNL     1       0.405  10.189  17.748  0.00  0.00    +0.000 N 
ATOM     23  H   UNL     1       0.137  10.267  16.771  0.00  0.00    +0.000 HD
BRANCH  21  24
ATOM     24  C   UNL     1      -1.895  10.750  18.312  0.00  0.00    +0.000 A 
ATOM     25  C   UNL     1      -2.372  10.153  17.138  0.00  0.00    +0.000 A 
ATOM     26  C   UNL     1      -3.667  10.422  16.691  0.00  0.00    +0.000 A 
ATOM     27  C   UNL     1      -4.470  11.296  17.416  0.00  0.00    +0.000 A 
ATOM     28  F   UNL     1      -5.712  11.554  16.988  0.00  0.00    +0.000 F 
ATOM     29  C   UNL     1      -4.002  11.913  18.571  0.00  0.00    +0.000 A 
ATOM     30  C   UNL     1      -2.706  11.641  19.027  0.00  0.00    +0.000 A 
ENDBRANCH  21  24
ENDBRANCH  19  22
ENDBRANCH  18  19
ENDBRANCH  17  18
ENDBRANCH   1  17
TORSDOF 6
ENDMDL
MODEL 2
REMARK VINA RESULT:      -9.0      0.386      3.588
REMARK  Name = 
REMARK  6 active torsions:
REMARK  status: ('A' for Active; 'I' for Inactive)
REMARK    1  A    between atoms: C_2  and  C_22
REMARK    2  A    between atoms: N_3  and  C_4
REMARK    3  A    between atoms: C_4  and  C_5
REMARK    4  A    between atoms: C_5  and  C_6
REMARK    5  A    between atoms: C_6  and  N_7
REMARK    6  A    between atoms: N_7  and  C_8
REMARK                            x       y       z     vdW  Elec       q    Type
REMARK                         _______ _______ _______ _____ _____    ______ ____
ROOT
ATOM      1  N   UNL     1       3.152   6.904  19.488  0.00  0.00    +0.000 N 
ATOM      2  H   UNL     1       3.734   6.955  20.319  0.00  0.00    +0.000 HD
ENDROOT
BRANCH   1   3
ATOM      3  C   UNL     1       3.237   5.692  18.791  0.00  0.00    +0.000 A 
ATOM      4  C   UNL     1       2.410   4.573  19.041  0.00  0.00    +0.000 A 
ATOM      5  C   UNL     1       2.499   3.479  18.169  0.00  0.00    +0.000 A 
ATOM      6  N   UNL     1       3.363   3.424  17.131  0.00  0.00    +0.000 NA
ATOM      7  C   UNL     1       4.194   4.448  16.924  0.00  0.00    +0.000 A 
ATOM      8  C   UNL     1       5.089   4.338  15.868  0.00  0.00    +0.000 A 
ATOM      9  C   UNL     1       6.007   5.344  15.569  0.00  0.00    +0.000 A 
ATOM     10  C   UNL     1       6.024   6.497  16.337  0.00  0.00    +0.000 A 
ATOM     11  C   UNL     1       5.120   6.634  17.391  0.00  0.00    +0.000 A 
ATOM     12  C   UNL     1       4.187   5.611  17.719  0.00  0.00    +0.000 A 
ATOM     13  C   UNL     1       1.694   2.217  18.362  0.00  0.00    +0.000 C 
ATOM     14  C   UNL     1       0.571   2.326  19.385  0.00  0.00    +0.000 C 
ATOM     15  C   UNL     1       1.056   3.078  20.609  0.00  0.00    +0.000 C 
ATOM     16  C   UNL     1       1.463   4.494  20.215  0.00  0.00    +0.000 C 
ENDBRANCH   1   3
BRANCH   1  17
ATOM     17  C   UNL     1       2.056   7.853  19.417  0.00  0.00    +0.000 C 
BRANCH  17  18
ATOM     18  C   UNL     1       2.036   8.563  18.066  0.00  0.00    +0.000 C 
BRANCH  18  19
ATOM     19  C   UNL     1       1.694  10.044  18.182  0.00  0.00    +0.000 C 
BRANCH  19  22
ATOM     20  O   UNL     1      -0.610  10.064  19.823  0.00  0.00    +0.000 OA
ATOM     21  C   UNL     1      -0.717  10.333  18.634  0.00  0.00    +0.000 C 
ATOM     22  N   UNL     1       0.342  10.347  17.758  0.00  0.00    +0.000 N 
ATOM     23  H   UNL     1       0.210  10.631  16.791  0.00  0.00    +0.000 HD
BRANCH  21  24
ATOM     24  C   UNL     1      -2.043  10.712  18.076  0.00  0.00    +0.000 A 
ATOM     25  C   UNL     1      -2.861  11.553  18.844  0.00  0.00    +0.000 A 
ATOM     26  C   UNL     1      -4.111  11.945  18.361  0.00  0.00    +0.000 A 
ATOM     27  C   UNL     1      -4.539  11.482  17.122  0.00  0.00    +0.000 A 
ATOM     28  F   UNL     1      -5.738  11.858  16.659  0.00  0.00    +0.000 F 
ATOM     29  C   UNL     1      -3.747  10.629  16.359  0.00  0.00    +0.000 A 
ATOM     30  C   UNL     1      -2.489  10.239  16.836  0.00  0.00    +0.000 A 
ENDBRANCH  21  24
ENDBRANCH  19  22
ENDBRANCH  18  19
ENDBRANCH  17  18
ENDBRANCH   1  17
TORSDOF 6
ENDMDL
MODEL 3
REMARK VINA RESULT:      -8.9      0.964      1.153
REMARK  Name = 
REMARK  6 active torsions:
REMARK  status: ('A' for Active; 'I' for Inactive)
REMARK    1  A    between atoms: C_2  and  C_22
REMARK    2  A    between atoms: N_3  and  C_4
REMARK    3  A    between atoms: C_4  and  C_5
REMARK    4  A    between atoms: C_5  and  C_6
REMARK    5  A    between atoms: C_6  and  N_7
REMARK    6  A    between atoms: N_7  and  C_8
REMARK                            x       y       z     vdW  Elec       q    Type
REMARK                         _______ _______ _______ _____ _____    ______ ____
ROOT
ATOM      1  N   UNL     1       3.067   6.698  19.742  0.00  0.00    +0.000 N 
ATOM      2  H   UNL     1       3.463   6.549  20.666  0.00  0.00    +0.000 HD
ENDROOT
BRANCH   1   3
ATOM      3  C   UNL     1       3.189   5.608  18.872  0.00  0.00    +0.000 A 
ATOM      4  C   UNL     1       4.021   5.592  17.729  0.00  0.00    +0.000 A 
ATOM      5  C   UNL     1       4.163   4.384  17.033  0.00  0.00    +0.000 A 
ATOM      6  N   UNL     1       3.514   3.249  17.374  0.00  0.00    +0.000 NA
ATOM      7  C   UNL     1       2.676   3.269  18.413  0.00  0.00    +0.000 A 
ATOM      8  C   UNL     1       2.003   2.090  18.710  0.00  0.00    +0.000 A 
ATOM      9  C   UNL     1       1.097   2.001  19.766  0.00  0.00    +0.000 A 
ATOM     10  C   UNL     1       0.866   3.115  20.556  0.00  0.00    +0.000 A 
ATOM     11  C   UNL     1       1.547   4.304  20.285  0.00  0.00    +0.000 A 
ATOM     12  C   UNL     1       2.463   4.415  19.203  0.00  0.00    +0.000 A 
ATOM     13  C   UNL     1       4.993   4.261  15.779  0.00  0.00    +0.000 C 
ATOM     14  C   UNL     1       5.896   5.453  15.491  0.00  0.00    +0.000 C 
ATOM     15  C   UNL     1       5.145   6.746  15.746  0.00  0.00    +0.000 C 
ATOM     16  C   UNL     1       4.735   6.820  17.213  0.00  0.00    +0.000 C 
ENDBRANCH   1   3
BRANCH   1  17
ATOM     17  C   UNL     1       2.100   7.775  19.628  0.00  0.00    +0.000 C 
BRANCH  17  18
ATOM     18  C   UNL     1       1.393   8.015  20.959  0.00  0.00    +0.000 C 
BRANCH  18  19
ATOM     19  C   UNL     1       0.823   9.424  21.080  0.00  0.00    +0.000 C 
BRANCH  19  22
ATOM     20  O   UNL     1       0.634  11.417  19.082  0.00  0.00    +0.000 OA
ATOM     21  C   UNL     1      -0.305  10.652  19.258  0.00  0.00    +0.000 C 
ATOM     22  N   UNL     1      -0.308   9.655  20.205  0.00  0.00    +0.000 N 
ATOM     23  H   UNL     1      -1.090   9.010  20.275  0.00  0.00    +0.000 HD
BRANCH  21  24
ATOM     24  C   UNL     1      -1.511  10.747  18.393  0.00  0.00    +0.000 A 
ATOM     25  C   UNL     1      -1.566   9.932  17.254  0.00  0.00    +0.000 A 
ATOM     26  C   UNL     1      -2.680   9.976  16.414  0.00  0.00    +0.000 A 
ATOM     27  C   UNL     1      -3.723  10.846  16.711  0.00  0.00    +0.000 A 
ATOM     28  F   UNL     1      -4.792  10.890  15.905  0.00  0.00    +0.000 F 
ATOM     29  C   UNL     1      -3.672  11.677  17.826  0.00  0.00    +0.000 A 
ATOM     30  C   UNL     1      -2.560  11.630  18.676  0.00  0.00    +0.000 A 
ENDBRANCH  21  24
ENDBRANCH  19  22
ENDBRANCH  18  19
ENDBRANCH  17  18
ENDBRANCH   1  17
TORSDOF 6
ENDMDL
MODEL 4
REMARK VINA RESULT:      -8.9      0.976      3.737
REMARK  Name = 
REMARK  6 active torsions:
REMARK  status: ('A' for Active; 'I' for Inactive)
REMARK    1  A    between atoms: C_2  and  C_22
REMARK    2  A    between atoms: N_3  and  C_4
REMARK    3  A    between atoms: C_4  and  C_5
REMARK    4  A    between atoms: C_5  and  C_6
REMARK    5  A    between atoms: C_6  and  N_7
REMARK    6  A    between atoms: N_7  and  C_8
REMARK                            x       y       z     vdW  Elec       q    Type
REMARK                         _______ _______ _______ _____ _____    ______ ____
ROOT
ATOM      1  N   UNL     1       3.110   6.837  19.680  0.00  0.00    +0.000 N 
ATOM      2  H   UNL     1       3.603   6.818  20.569  0.00  0.00    +0.000 HD
ENDROOT
BRANCH   1   3
ATOM      3  C   UNL     1       3.209   5.656  18.934  0.00  0.00    +0.000 A 
ATOM      4  C   UNL     1       2.403   4.513  19.147  0.00  0.00    +0.000 A 
ATOM      5  C   UNL     1       2.502   3.456  18.232  0.00  0.00    +0.000 A 
ATOM      6  N   UNL     1       3.357   3.457  17.184  0.00  0.00    +0.000 NA
ATOM      7  C   UNL     1       4.168   4.503  17.011  0.00  0.00    +0.000 A 
ATOM      8  C   UNL     1       5.054   4.451  15.942  0.00  0.00    +0.000 A 
ATOM      9  C   UNL     1       5.952   5.483  15.675  0.00  0.00    +0.000 A 
ATOM     10  C   UNL     1       5.957   6.605  16.488  0.00  0.00    +0.000 A 
ATOM     11  C   UNL     1       5.062   6.684  17.556  0.00  0.00    +0.000 A 
ATOM     12  C   UNL     1       4.150   5.634  17.851  0.00  0.00    +0.000 A 
ATOM     13  C   UNL     1       1.721   2.174  18.382  0.00  0.00    +0.000 C 
ATOM     14  C   UNL     1       0.606   2.223  19.419  0.00  0.00    +0.000 C 
ATOM     15  C   UNL     1       1.091   2.933  20.667  0.00  0.00    +0.000 C 
ATOM     16  C   UNL     1       1.469   4.371  20.326  0.00  0.00    +0.000 C 
ENDBRANCH   1   3
BRANCH   1  17
ATOM     17  C   UNL     1       2.076   7.847  19.544  0.00  0.00    +0.000 C 
BRANCH  17  18
ATOM     18  C   UNL     1       1.362   8.078  20.873  0.00  0.00    +0.000 C 
BRANCH  18  19
ATOM     19  C   UNL     1       0.837   9.502  21.022  0.00  0.00    +0.000 C 
BRANCH  19  22
ATOM     20  O   UNL     1       0.725  11.052  18.658  0.00  0.00    +0.000 OA
ATOM     21  C   UNL     1      -0.296  10.525  19.081  0.00  0.00    +0.000 C 
ATOM     22  N   UNL     1      -0.342   9.757  20.220  0.00  0.00    +0.000 N 
ATOM     23  H   UNL     1      -1.203   9.296  20.499  0.00  0.00    +0.000 HD
BRANCH  21  24
ATOM     24  C   UNL     1      -1.570  10.666  18.325  0.00  0.00    +0.000 A 
ATOM     25  C   UNL     1      -2.533  11.552  18.825  0.00  0.00    +0.000 A 
ATOM     26  C   UNL     1      -3.743  11.725  18.149  0.00  0.00    +0.000 A 
ATOM     27  C   UNL     1      -3.984  11.001  16.987  0.00  0.00    +0.000 A 
ATOM     28  F   UNL     1      -5.144  11.168  16.338  0.00  0.00    +0.000 F 
ATOM     29  C   UNL     1      -3.045  10.102  16.492  0.00  0.00    +0.000 A 
ATOM     30  C   UNL     1      -1.828   9.930  17.162  0.00  0.00    +0.000 A 
ENDBRANCH  21  24
ENDBRANCH  19  22
ENDBRANCH  18  19
ENDBRANCH  17  18
ENDBRANCH   1  17
TORSDOF 6
ENDMDL
MODEL 5
REMARK VINA RESULT:      -8.8      1.257      3.675
REMARK  Name = 
REMARK  6 active torsions:
REMARK  status: ('A' for Active; 'I' for Inactive)
REMARK    1  A    between atoms: C_2  and  C_22
REMARK    2  A    between atoms: N_3  and  C_4
REMARK    3  A    between atoms: C_4  and  C_5
REMARK    4  A    between atoms: C_5  and  C_6
REMARK    5  A    between atoms: C_6  and  N_7
REMARK    6  A    between atoms: N_7  and  C_8
REMARK                            x       y       z     vdW  Elec       q    Type
REMARK                         _______ _______ _______ _____ _____    ______ ____
ROOT
ATOM      1  N   UNL     1       2.440   6.707  18.075  0.00  0.00    +0.000 N 
ATOM      2  H   UNL     1       2.294   6.677  17.070  0.00  0.00    +0.000 HD
ENDROOT
BRANCH   1   3
ATOM      3  C   UNL     1       3.305   5.722  18.568  0.00  0.00    +0.000 A 
ATOM      4  C   UNL     1       2.895   4.637  19.376  0.00  0.00    +0.000 A 
ATOM      5  C   UNL     1       3.837   3.642  19.673  0.00  0.00    +0.000 A 
ATOM      6  N   UNL     1       5.124   3.691  19.262  0.00  0.00    +0.000 NA
ATOM      7  C   UNL     1       5.538   4.743  18.552  0.00  0.00    +0.000 A 
ATOM      8  C   UNL     1       6.876   4.771  18.178  0.00  0.00    +0.000 A 
ATOM      9  C   UNL     1       7.417   5.826  17.445  0.00  0.00    +0.000 A 
ATOM     10  C   UNL     1       6.598   6.877  17.064  0.00  0.00    +0.000 A 
ATOM     11  C   UNL     1       5.247   6.858  17.415  0.00  0.00    +0.000 A 
ATOM     12  C   UNL     1       4.683   5.797  18.174  0.00  0.00    +0.000 A 
ATOM     13  C   UNL     1       3.522   2.461  20.557  0.00  0.00    +0.000 C 
ATOM     14  C   UNL     1       2.042   2.267  20.859  0.00  0.00    +0.000 C 
ATOM     15  C   UNL     1       1.396   3.604  21.168  0.00  0.00    +0.000 C 
ATOM     16  C   UNL     1       1.504   4.519  19.953  0.00  0.00    +0.000 C 
ENDBRANCH   1   3
BRANCH   1  17
ATOM     17  C   UNL     1       2.115   7.961  18.731  0.00  0.00    +0.000 C 
BRANCH  17  18
ATOM     18  C   UNL     1       2.226   9.130  17.757  0.00  0.00    +0.000 C 
BRANCH  18  19
ATOM     19  C   UNL     1       1.700  10.437  18.339  0.00  0.00    +0.000 C 
BRANCH  19  22
ATOM     20  O   UNL     1      -0.592   9.921  19.915  0.00  0.00    +0.000 OA
ATOM     21  C   UNL     1      -0.725  10.425  18.808  0.00  0.00    +0.000 C 
ATOM     22  N   UNL     1       0.327  10.710  17.969  0.00  0.00    +0.000 N 
ATOM     23  H   UNL     1       0.168  11.179  17.082  0.00  0.00    +0.000 HD
BRANCH  21  24
ATOM     24  C   UNL     1      -2.080  10.803  18.323  0.00  0.00    +0.000 A 
ATOM     25  C   UNL     1      -2.522  10.247  17.115  0.00  0.00    +0.000 A 
ATOM     26  C   UNL     1      -3.788  10.563  16.621  0.00  0.00    +0.000 A 
ATOM     27  C   UNL     1      -4.597  11.444  17.331  0.00  0.00    +0.000 A 
ATOM     28  F   UNL     1      -5.812  11.747  16.857  0.00  0.00    +0.000 F 
ATOM     29  C   UNL     1      -4.162  12.020  18.520  0.00  0.00    +0.000 A 
ATOM     30  C   UNL     1      -2.895  11.700  19.024  0.00  0.00    +0.000 A 
ENDBRANCH  21  24
ENDBRANCH  19  22
ENDBRANCH  18  19
ENDBRANCH  17  18
ENDBRANCH   1  17
TORSDOF 6
ENDMDL
MODEL 6
REMARK VINA RESULT:      -8.8      1.074      1.537
REMARK  Name = 
REMARK  6 active torsions:
REMARK  status: ('A' for Active; 'I' for Inactive)
REMARK    1  A    between atoms: C_2  and  C_22
REMARK    2  A    between atoms: N_3  and  C_4
REMARK    3  A    between atoms: C_4  and  C_5
REMARK    4  A    between atoms: C_5  and  C_6
REMARK    5  A    between atoms: C_6  and  N_7
REMARK    6  A    between atoms: N_7  and  C_8
REMARK                            x       y       z     vdW  Elec       q    Type
REMARK                         _______ _______ _______ _____ _____    ______ ____
ROOT
ATOM      1  N   UNL     1       3.023   6.983  19.752  0.00  0.00    +0.000 N 
ATOM      2  H   UNL     1       3.572   7.021  20.607  0.00  0.00    +0.000 HD
ENDROOT
BRANCH   1   3
ATOM      3  C   UNL     1       3.200   5.817  18.997  0.00  0.00    +0.000 A 
ATOM      4  C   UNL     1       4.005   5.737  17.838  0.00  0.00    +0.000 A 
ATOM      5  C   UNL     1       4.215   4.475  17.266  0.00  0.00    +0.000 A 
ATOM      6  N   UNL     1       3.653   3.341  17.741  0.00  0.00    +0.000 NA
ATOM      7  C   UNL     1       2.839   3.414  18.797  0.00  0.00    +0.000 A 
ATOM      8  C   UNL     1       2.256   2.231  19.234  0.00  0.00    +0.000 A 
ATOM      9  C   UNL     1       1.382   2.194  20.320  0.00  0.00    +0.000 A 
ATOM     10  C   UNL     1       1.093   3.368  20.997  0.00  0.00    +0.000 A 
ATOM     11  C   UNL     1       1.684   4.563  20.585  0.00  0.00    +0.000 A 
ATOM     12  C   UNL     1       2.565   4.621  19.470  0.00  0.00    +0.000 A 
ATOM     13  C   UNL     1       5.023   4.276  16.008  0.00  0.00    +0.000 C 
ATOM     14  C   UNL     1       5.836   5.488  15.571  0.00  0.00    +0.000 C 
ATOM     15  C   UNL     1       5.003   6.747  15.714  0.00  0.00    +0.000 C 
ATOM     16  C   UNL     1       4.621   6.948  17.176  0.00  0.00    +0.000 C 
ENDBRANCH   1   3
BRANCH   1  17
ATOM     17  C   UNL     1       1.878   7.874  19.689  0.00  0.00    +0.000 C 
BRANCH  17  18
ATOM     18  C   UNL     1       1.529   8.413  21.073  0.00  0.00    +0.000 C 
BRANCH  18  19
ATOM     19  C   UNL     1       0.699   9.690  21.018  0.00  0.00    +0.000 C 
BRANCH  19  22
ATOM     20  O   UNL     1      -0.984  11.846  20.293  0.00  0.00    +0.000 OA
ATOM     21  C   UNL     1      -0.999  10.821  19.626  0.00  0.00    +0.000 C 
ATOM     22  N   UNL     1      -0.221   9.720  19.900  0.00  0.00    +0.000 N 
ATOM     23  H   UNL     1      -0.230   8.913  19.283  0.00  0.00    +0.000 HD
BRANCH  21  24
ATOM     24  C   UNL     1      -1.863  10.735  18.417  0.00  0.00    +0.000 A 
ATOM     25  C   UNL     1      -3.043  11.491  18.401  0.00  0.00    +0.000 A 
ATOM     26  C   UNL     1      -3.884  11.452  17.287  0.00  0.00    +0.000 A 
ATOM     27  C   UNL     1      -3.545  10.647  16.205  0.00  0.00    +0.000 A 
ATOM     28  F   UNL     1      -4.352  10.609  15.137  0.00  0.00    +0.000 F 
ATOM     29  C   UNL     1      -2.388   9.875  16.218  0.00  0.00    +0.000 A 
ATOM     30  C   UNL     1      -1.538   9.916  17.329  0.00  0.00    +0.000 A 
ENDBRANCH  21  24
ENDBRANCH  19  22
ENDBRANCH  18  19
ENDBRANCH  17  18
ENDBRANCH   1  17
TORSDOF 6
ENDMDL
MODEL 7
REMARK VINA RESULT:      -8.7      0.470      1.013
REMARK  Name = 
REMARK  6 active torsions:
REMARK  status: ('A' for Active; 'I' for Inactive)
REMARK    1  A    between atoms: C_2  and  C_22
REMARK    2  A    between atoms: N_3  and  C_4
REMARK    3  A    between atoms: C_4  and  C_5
REMARK    4  A    between atoms: C_5  and  C_6
REMARK    5  A    between atoms: C_6  and  N_7
REMARK    6  A    between atoms: N_7  and  C_8
REMARK                            x       y       z     vdW  Elec       q    Type
REMARK                         _______ _______ _______ _____ _____    ______ ____
ROOT
ATOM      1  N   UNL     1       3.127   6.755  19.585  0.00  0.00    +0.000 N 
ATOM      2  H   UNL     1       3.623   6.668  20.468  0.00  0.00    +0.000 HD
ENDROOT
BRANCH   1   3
ATOM      3  C   UNL     1       3.236   5.642  18.743  0.00  0.00    +0.000 A 
ATOM      4  C   UNL     1       4.121   5.562  17.643  0.00  0.00    +0.000 A 
ATOM      5  C   UNL     1       4.237   4.334  16.978  0.00  0.00    +0.000 A 
ATOM      6  N   UNL     1       3.516   3.239  17.306  0.00  0.00    +0.000 NA
ATOM      7  C   UNL     1       2.631   3.321  18.302  0.00  0.00    +0.000 A 
ATOM      8  C   UNL     1       1.886   2.184  18.586  0.00  0.00    +0.000 A 
ATOM      9  C   UNL     1       0.926   2.161  19.598  0.00  0.00    +0.000 A 
ATOM     10  C   UNL     1       0.713   3.302  20.355  0.00  0.00    +0.000 A 
ATOM     11  C   UNL     1       1.464   4.449  20.096  0.00  0.00    +0.000 A 
ATOM     12  C   UNL     1       2.436   4.493  19.059  0.00  0.00    +0.000 A 
ATOM     13  C   UNL     1       5.120   4.145  15.769  0.00  0.00    +0.000 C 
ATOM     14  C   UNL     1       6.095   5.285  15.504  0.00  0.00    +0.000 C 
ATOM     15  C   UNL     1       5.397   6.618  15.698  0.00  0.00    +0.000 C 
ATOM     16  C   UNL     1       4.920   6.742  17.141  0.00  0.00    +0.000 C 
ENDBRANCH   1   3
BRANCH   1  17
ATOM     17  C   UNL     1       2.079   7.760  19.538  0.00  0.00    +0.000 C 
BRANCH  17  18
ATOM     18  C   UNL     1       1.981   8.379  18.147  0.00  0.00    +0.000 C 
BRANCH  18  19
ATOM     19  C   UNL     1       1.571   9.847  18.181  0.00  0.00    +0.000 C 
BRANCH  19  22
ATOM     20  O   UNL     1      -0.019  11.998  19.103  0.00  0.00    +0.000 OA
ATOM     21  C   UNL     1      -0.527  11.131  18.404  0.00  0.00    +0.000 C 
ATOM     22  N   UNL     1       0.162  10.048  17.911  0.00  0.00    +0.000 N 
ATOM     23  H   UNL     1      -0.292   9.385  17.290  0.00  0.00    +0.000 HD
BRANCH  21  24
ATOM     24  C   UNL     1      -1.957  11.241  18.009  0.00  0.00    +0.000 A 
ATOM     25  C   UNL     1      -2.864  11.728  18.960  0.00  0.00    +0.000 A 
ATOM     26  C   UNL     1      -4.216  11.858  18.637  0.00  0.00    +0.000 A 
ATOM     27  C   UNL     1      -4.652  11.487  17.369  0.00  0.00    +0.000 A 
ATOM     28  F   UNL     1      -5.949  11.611  17.059  0.00  0.00    +0.000 F 
ATOM     29  C   UNL     1      -3.766  10.981  16.423  0.00  0.00    +0.000 A 
ATOM     30  C   UNL     1      -2.408  10.856  16.741  0.00  0.00    +0.000 A 
ENDBRANCH  21  24
ENDBRANCH  19  22
ENDBRANCH  18  19
ENDBRANCH  17  18
ENDBRANCH   1  17
TORSDOF 6
ENDMDL
MODEL 8
REMARK VINA RESULT:      -8.6      1.385      1.470
REMARK  Name = 
REMARK  6 active torsions:
REMARK  status: ('A' for Active; 'I' for Inactive)
REMARK    1  A    between atoms: C_2  and  C_22
REMARK    2  A    between atoms: N_3  and  C_4
REMARK    3  A    between atoms: C_4  and  C_5
REMARK    4  A    between atoms: C_5  and  C_6
REMARK    5  A    between atoms: C_6  and  N_7
REMARK    6  A    between atoms: N_7  and  C_8
REMARK                            x       y       z     vdW  Elec       q    Type
REMARK                         _______ _______ _______ _____ _____    ______ ____
ROOT
ATOM      1  N   UNL     1       2.584   6.748  17.862  0.00  0.00    +0.000 N 
ATOM      2  H   UNL     1       2.441   6.794  16.857  0.00  0.00    +0.000 HD
ENDROOT
BRANCH   1   3
ATOM      3  C   UNL     1       3.490   5.766  18.278  0.00  0.00    +0.000 A 
ATOM      4  C   UNL     1       4.895   5.897  18.199  0.00  0.00    +0.000 A 
ATOM      5  C   UNL     1       5.685   4.901  18.790  0.00  0.00    +0.000 A 
ATOM      6  N   UNL     1       5.172   3.805  19.392  0.00  0.00    +0.000 NA
ATOM      7  C   UNL     1       3.848   3.639  19.417  0.00  0.00    +0.000 A 
ATOM      8  C   UNL     1       3.363   2.483  20.015  0.00  0.00    +0.000 A 
ATOM      9  C   UNL     1       1.999   2.204  20.087  0.00  0.00    +0.000 A 
ATOM     10  C   UNL     1       1.093   3.108  19.558  0.00  0.00    +0.000 A 
ATOM     11  C   UNL     1       1.560   4.284  18.968  0.00  0.00    +0.000 A 
ATOM     12  C   UNL     1       2.949   4.578  18.874  0.00  0.00    +0.000 A 
ATOM     13  C   UNL     1       7.193   4.919  18.733  0.00  0.00    +0.000 C 
ATOM     14  C   UNL     1       7.799   6.231  18.253  0.00  0.00    +0.000 C 
ATOM     15  C   UNL     1       7.017   6.759  17.066  0.00  0.00    +0.000 C 
ATOM     16  C   UNL     1       5.578   7.040  17.485  0.00  0.00    +0.000 C 
ENDBRANCH   1   3
BRANCH   1  17
ATOM     17  C   UNL     1       2.202   7.930  18.615  0.00  0.00    +0.000 C 
BRANCH  17  18
ATOM     18  C   UNL     1       2.194   9.167  17.722  0.00  0.00    +0.000 C 
BRANCH  18  19
ATOM     19  C   UNL     1       1.610  10.393  18.414  0.00  0.00    +0.000 C 
BRANCH  19  22
ATOM     20  O   UNL     1      -0.721  10.053  19.981  0.00  0.00    +0.000 OA
ATOM     21  C   UNL     1      -0.821  10.485  18.841  0.00  0.00    +0.000 C 
ATOM     22  N   UNL     1       0.251  10.682  18.003  0.00  0.00    +0.000 N 
ATOM     23  H   UNL     1       0.121  11.094  17.084  0.00  0.00    +0.000 HD
BRANCH  21  24
ATOM     24  C   UNL     1      -2.156  10.870  18.308  0.00  0.00    +0.000 A 
ATOM     25  C   UNL     1      -2.500  10.431  17.023  0.00  0.00    +0.000 A 
ATOM     26  C   UNL     1      -3.744  10.758  16.481  0.00  0.00    +0.000 A 
ATOM     27  C   UNL     1      -4.628  11.534  17.223  0.00  0.00    +0.000 A 
ATOM     28  F   UNL     1      -5.822  11.849  16.703  0.00  0.00    +0.000 F 
ATOM     29  C   UNL     1      -4.290  11.996  18.491  0.00  0.00    +0.000 A 
ATOM     30  C   UNL     1      -3.047  11.663  19.042  0.00  0.00    +0.000 A 
ENDBRANCH  21  24
ENDBRANCH  19  22
ENDBRANCH  18  19
ENDBRANCH  17  18
ENDBRANCH   1  17
TORSDOF 6
ENDMDL
MODEL 9
REMARK VINA RESULT:      -8.6      1.428      1.613
REMARK  Name = 
REMARK  6 active torsions:
REMARK  status: ('A' for Active; 'I' for Inactive)
REMARK    1  A    between atoms: C_2  and  C_22
REMARK    2  A    between atoms: N_3  and  C_4
REMARK    3  A    between atoms: C_4  and  C_5
REMARK    4  A    between atoms: C_5  and  C_6
REMARK    5  A    between atoms: C_6  and  N_7
REMARK    6  A    between atoms: N_7  and  C_8
REMARK                            x       y       z     vdW  Elec       q    Type
REMARK                         _______ _______ _______ _____ _____    ______ ____
ROOT
ATOM      1  N   UNL     1       1.973   6.770  18.772  0.00  0.00    +0.000 N 
ATOM      2  H   UNL     1       1.323   6.706  17.994  0.00  0.00    +0.000 HD
ENDROOT
BRANCH   1   3
ATOM      3  C   UNL     1       2.922   5.741  18.826  0.00  0.00    +0.000 A 
ATOM      4  C   UNL     1       4.150   5.756  18.126  0.00  0.00    +0.000 A 
ATOM      5  C   UNL     1       5.072   4.733  18.388  0.00  0.00    +0.000 A 
ATOM      6  N   UNL     1       4.828   3.714  19.241  0.00  0.00    +0.000 NA
ATOM      7  C   UNL     1       3.646   3.655  19.859  0.00  0.00    +0.000 A 
ATOM      8  C   UNL     1       3.422   2.574  20.703  0.00  0.00    +0.000 A 
ATOM      9  C   UNL     1       2.221   2.407  21.389  0.00  0.00    +0.000 A 
ATOM     10  C   UNL     1       1.219   3.352  21.241  0.00  0.00    +0.000 A 
ATOM     11  C   UNL     1       1.431   4.455  20.412  0.00  0.00    +0.000 A 
ATOM     12  C   UNL     1       2.645   4.632  19.693  0.00  0.00    +0.000 A 
ATOM     13  C   UNL     1       6.395   4.628  17.671  0.00  0.00    +0.000 C 
ATOM     14  C   UNL     1       6.787   5.861  16.868  0.00  0.00    +0.000 C 
ATOM     15  C   UNL     1       5.585   6.388  16.109  0.00  0.00    +0.000 C 
ATOM     16  C   UNL     1       4.497   6.803  17.093  0.00  0.00    +0.000 C 
ENDBRANCH   1   3
BRANCH   1  17
ATOM     17  C   UNL     1       2.096   8.076  19.396  0.00  0.00    +0.000 C 
BRANCH  17  18
ATOM     18  C   UNL     1       1.582   8.044  20.832  0.00  0.00    +0.000 C 
BRANCH  18  19
ATOM     19  C   UNL     1       0.667   9.219  21.158  0.00  0.00    +0.000 C 
BRANCH  19  22
ATOM     20  O   UNL     1       0.002  11.676  19.924  0.00  0.00    +0.000 OA
ATOM     21  C   UNL     1      -0.613  10.664  19.617  0.00  0.00    +0.000 C 
ATOM     22  N   UNL     1      -0.365   9.426  20.163  0.00  0.00    +0.000 N 
ATOM     23  H   UNL     1      -0.866   8.606  19.835  0.00  0.00    +0.000 HD
BRANCH  21  24
ATOM     24  C   UNL     1      -1.667  10.725  18.569  0.00  0.00    +0.000 A 
ATOM     25  C   UNL     1      -1.512   9.916  17.436  0.00  0.00    +0.000 A 
ATOM     26  C   UNL     1      -2.477   9.931  16.427  0.00  0.00    +0.000 A 
ATOM     27  C   UNL     1      -3.582  10.765  16.554  0.00  0.00    +0.000 A 
ATOM     28  F   UNL     1      -4.508  10.780  15.586  0.00  0.00    +0.000 F 
ATOM     29  C   UNL     1      -3.738  11.589  17.663  0.00  0.00    +0.000 A 
ATOM     30  C   UNL     1      -2.776  11.572  18.681  0.00  0.00    +0.000 A 
ENDBRANCH  21  24
ENDBRANCH  19  22
ENDBRANCH  18  19
ENDBRANCH  17  18
ENDBRANCH   1  17
TORSDOF 6
ENDMDL
