MODEL 1
REMARK VINA RESULT:      -8.8      0.000      0.000
REMARK  Name = 
REMARK  4 active torsions:
REMARK  status: ('A' for Active; 'I' for Inactive)
REMARK    1  A    between atoms: C_1  and  C_2
REMARK    2  A    between atoms: N_4  and  C_5
REMARK    3  A    between atoms: C_13  and  C_14
REMARK    4  A    between atoms: N_17  and  C_18
REMARK                            x       y       z     vdW  Elec       q    Type
REMARK                         _______ _______ _______ _____ _____    ______ ____
ROOT
ATOM      1  C   UNL     1       1.493   2.541  21.068  0.00  0.00    +0.000 C 
ATOM      2  C   UNL     1       2.120   3.802  20.593  0.00  0.00    +0.000 A 
ATOM      3  N   UNL     1       1.440   4.955  20.610  0.00  0.00    +0.000 NA
ATOM      4  N   UNL     1       2.280   5.885  20.045  0.00  0.00    +0.000 N 
ATOM      5  C   UNL     1       3.483   5.293  19.660  0.00  0.00    +0.000 A 
ATOM      6  N   UNL     1       4.523   5.866  18.986  0.00  0.00    +0.000 NA
ATOM      7  C   UNL     1       5.506   5.058  18.726  0.00  0.00    +0.000 A 
ATOM      8  N   UNL     1       5.549   3.737  19.156  0.00  0.00    +0.000 N 
ATOM      9  C   UNL     1       4.512   3.108  19.818  0.00  0.00    +0.000 A 
ATOM     10  O   UNL     1       4.554   1.927  20.138  0.00  0.00    +0.000 OA
ATOM     11  C   UNL     1       3.400   3.978  20.057  0.00  0.00    +0.000 A 
ATOM     12  H   UNL     1       6.339   3.149  18.952  0.00  0.00    +0.000 HD
ENDROOT
BRANCH   4  13
ATOM     13  C   UNL     1       1.862   7.244  19.925  0.00  0.00    +0.000 A 
ATOM     14  C   UNL     1       1.996   7.903  18.693  0.00  0.00    +0.000 A 
ATOM     15  C   UNL     1       1.570   9.225  18.549  0.00  0.00    +0.000 A 
ATOM     16  C   UNL     1       1.014   9.905  19.632  0.00  0.00    +0.000 A 
ATOM     17  C   UNL     1       0.886   9.264  20.859  0.00  0.00    +0.000 A 
ATOM     18  C   UNL     1       1.305   7.940  21.006  0.00  0.00    +0.000 A 
ENDBRANCH   4  13
BRANCH   7  19
ATOM     19  C   UNL     1       6.692   5.472  17.852  0.00  0.00    +0.000 C 
ATOM     20  C   UNL     1       6.383   6.694  16.985  0.00  0.00    +0.000 C 
ATOM     21  C   UNL     1       5.804   6.338  15.618  0.00  0.00    +0.000 C 
ATOM     22  N   UNL     1       6.701   5.414  14.922  0.00  0.00    +0.000 NA
ATOM     23  C   UNL     1       6.741   4.135  15.644  0.00  0.00    +0.000 C 
ATOM     24  C   UNL     1       7.331   4.331  17.044  0.00  0.00    +0.000 C 
BRANCH  22  25
ATOM     25  C   UNL     1       6.408   5.236  13.483  0.00  0.00    +0.000 C 
ATOM     26  C   UNL     1       5.397   4.118  13.203  0.00  0.00    +0.000 C 
ATOM     27  C   UNL     1       6.223   2.986  12.625  0.00  0.00    +0.000 C 
ATOM     28  N   UNL     1       7.267   3.646  11.837  0.00  0.00    +0.000 NA
ATOM     29  C   UNL     1       7.588   4.898  12.545  0.00  0.00    +0.000 C 
ATOM     30  H   UNL     1       6.886   3.876  10.920  0.00  0.00    +0.000 HD
ENDBRANCH  22  25
ENDBRANCH   7  19
TORSDOF 3
ENDMDL
MODEL 2
REMARK VINA RESULT:      -7.8      2.742      7.378
REMARK  Name = 
REMARK  4 active torsions:
REMARK  status: ('A' for Active; 'I' for Inactive)
REMARK    1  A    between atoms: C_1  and  C_2
REMARK    2  A    between atoms: N_4  and  C_5
REMARK    3  A    between atoms: C_13  and  C_14
REMARK    4  A    between atoms: N_17  and  C_18
REMARK                            x       y       z     vdW  Elec       q    Type
REMARK                         _______ _______ _______ _____ _____    ______ ____
ROOT
ATOM      1  C   UNL     1       2.388   1.667  19.466  0.00  0.00    +0.000 C 
ATOM      2  C   UNL     1       2.877   2.903  18.801  0.00  0.00    +0.000 A 
ATOM      3  N   UNL     1       3.854   2.850  17.889  0.00  0.00    +0.000 NA
ATOM      4  N   UNL     1       4.103   4.156  17.541  0.00  0.00    +0.000 N 
ATOM      5  C   UNL     1       3.280   5.023  18.260  0.00  0.00    +0.000 A 
ATOM      6  N   UNL     1       3.294   6.389  18.259  0.00  0.00    +0.000 NA
ATOM      7  C   UNL     1       2.434   6.936  19.063  0.00  0.00    +0.000 A 
ATOM      8  N   UNL     1       1.514   6.212  19.813  0.00  0.00    +0.000 N 
ATOM      9  C   UNL     1       1.478   4.832  19.864  0.00  0.00    +0.000 A 
ATOM     10  O   UNL     1       0.692   4.218  20.576  0.00  0.00    +0.000 OA
ATOM     11  C   UNL     1       2.464   4.221  19.024  0.00  0.00    +0.000 A 
ATOM     12  H   UNL     1       0.849   6.675  20.409  0.00  0.00    +0.000 HD
ENDROOT
BRANCH   4  13
ATOM     13  C   UNL     1       5.095   4.457  16.559  0.00  0.00    +0.000 A 
ATOM     14  C   UNL     1       6.264   5.131  16.942  0.00  0.00    +0.000 A 
ATOM     15  C   UNL     1       7.257   5.413  16.002  0.00  0.00    +0.000 A 
ATOM     16  C   UNL     1       7.091   5.032  14.671  0.00  0.00    +0.000 A 
ATOM     17  C   UNL     1       5.932   4.371  14.280  0.00  0.00    +0.000 A 
ATOM     18  C   UNL     1       4.938   4.083  15.218  0.00  0.00    +0.000 A 
ENDBRANCH   4  13
BRANCH   7  19
ATOM     19  C   UNL     1       2.398   8.445  19.315  0.00  0.00    +0.000 C 
ATOM     20  C   UNL     1       1.496   8.823  20.491  0.00  0.00    +0.000 C 
ATOM     21  C   UNL     1       0.050   9.096  20.083  0.00  0.00    +0.000 C 
ATOM     22  N   UNL     1       0.013  10.124  19.042  0.00  0.00    +0.000 NA
ATOM     23  C   UNL     1       0.643   9.606  17.819  0.00  0.00    +0.000 C 
ATOM     24  C   UNL     1       2.124   9.304  18.070  0.00  0.00    +0.000 C 
BRANCH  22  25
ATOM     25  C   UNL     1      -1.329  10.691  18.782  0.00  0.00    +0.000 C 
ATOM     26  C   UNL     1      -2.215   9.785  17.919  0.00  0.00    +0.000 C 
ATOM     27  C   UNL     1      -2.257  10.462  16.564  0.00  0.00    +0.000 C 
ATOM     28  N   UNL     1      -2.236  11.897  16.859  0.00  0.00    +0.000 NA
ATOM     29  C   UNL     1      -1.406  12.058  18.067  0.00  0.00    +0.000 C 
ATOM     30  H   UNL     1      -3.187  12.198  17.073  0.00  0.00    +0.000 HD
ENDBRANCH  22  25
ENDBRANCH   7  19
TORSDOF 3
ENDMDL
MODEL 3
REMARK VINA RESULT:      -7.7      0.997      1.405
REMARK  Name = 
REMARK  4 active torsions:
REMARK  status: ('A' for Active; 'I' for Inactive)
REMARK    1  A    between atoms: C_1  and  C_2
REMARK    2  A    between atoms: N_4  and  C_5
REMARK    3  A    between atoms: C_13  and  C_14
REMARK    4  A    between atoms: N_17  and  C_18
REMARK                            x       y       z     vdW  Elec       q    Type
REMARK                         _______ _______ _______ _____ _____    ______ ____
ROOT
ATOM      1  C   UNL     1       1.244   3.085  20.866  0.00  0.00    +0.000 C 
ATOM      2  C   UNL     1       1.764   4.434  20.522  0.00  0.00    +0.000 A 
ATOM      3  N   UNL     1       1.094   5.538  20.873  0.00  0.00    +0.000 NA
ATOM      4  N   UNL     1       1.808   6.585  20.343  0.00  0.00    +0.000 N 
ATOM      5  C   UNL     1       2.921   6.119  19.642  0.00  0.00    +0.000 A 
ATOM      6  N   UNL     1       3.813   6.843  18.904  0.00  0.00    +0.000 NA
ATOM      7  C   UNL     1       4.733   6.133  18.325  0.00  0.00    +0.000 A 
ATOM      8  N   UNL     1       4.862   4.759  18.492  0.00  0.00    +0.000 N 
ATOM      9  C   UNL     1       3.972   3.983  19.208  0.00  0.00    +0.000 A 
ATOM     10  O   UNL     1       4.079   2.766  19.294  0.00  0.00    +0.000 OA
ATOM     11  C   UNL     1       2.920   4.752  19.801  0.00  0.00    +0.000 A 
ATOM     12  H   UNL     1       5.603   4.247  18.042  0.00  0.00    +0.000 HD
ENDROOT
BRANCH   4  13
ATOM     13  C   UNL     1       1.369   7.927  20.551  0.00  0.00    +0.000 A 
ATOM     14  C   UNL     1       1.238   8.791  19.453  0.00  0.00    +0.000 A 
ATOM     15  C   UNL     1       0.786  10.100  19.632  0.00  0.00    +0.000 A 
ATOM     16  C   UNL     1       0.467  10.562  20.909  0.00  0.00    +0.000 A 
ATOM     17  C   UNL     1       0.602   9.717  22.005  0.00  0.00    +0.000 A 
ATOM     18  C   UNL     1       1.049   8.406  21.829  0.00  0.00    +0.000 A 
ENDBRANCH   4  13
BRANCH   7  19
ATOM     19  C   UNL     1       5.732   6.741  17.338  0.00  0.00    +0.000 C 
ATOM     20  C   UNL     1       5.171   6.832  15.917  0.00  0.00    +0.000 C 
ATOM     21  C   UNL     1       5.453   5.592  15.073  0.00  0.00    +0.000 C 
ATOM     22  N   UNL     1       6.892   5.320  15.053  0.00  0.00    +0.000 NA
ATOM     23  C   UNL     1       7.338   4.949  16.403  0.00  0.00    +0.000 C 
ATOM     24  C   UNL     1       7.137   6.120  17.370  0.00  0.00    +0.000 C 
BRANCH  22  25
ATOM     25  C   UNL     1       7.319   4.338  14.032  0.00  0.00    +0.000 C 
ATOM     26  C   UNL     1       8.092   4.969  12.868  0.00  0.00    +0.000 C 
ATOM     27  C   UNL     1       7.122   4.950  11.704  0.00  0.00    +0.000 C 
ATOM     28  N   UNL     1       6.352   3.716  11.875  0.00  0.00    +0.000 NA
ATOM     29  C   UNL     1       6.222   3.509  13.329  0.00  0.00    +0.000 C 
ATOM     30  H   UNL     1       6.886   2.942  11.481  0.00  0.00    +0.000 HD
ENDBRANCH  22  25
ENDBRANCH   7  19
TORSDOF 3
ENDMDL
MODEL 4
REMARK VINA RESULT:      -7.5      2.656      7.567
REMARK  Name = 
REMARK  4 active torsions:
REMARK  status: ('A' for Active; 'I' for Inactive)
REMARK    1  A    between atoms: C_1  and  C_2
REMARK    2  A    between atoms: N_4  and  C_5
REMARK    3  A    between atoms: C_13  and  C_14
REMARK    4  A    between atoms: N_17  and  C_18
REMARK                            x       y       z     vdW  Elec       q    Type
REMARK                         _______ _______ _______ _____ _____    ______ ____
ROOT
ATOM      1  C   UNL     1       2.314   1.404  19.276  0.00  0.00    +0.000 C 
ATOM      2  C   UNL     1       2.842   2.645  18.652  0.00  0.00    +0.000 A 
ATOM      3  N   UNL     1       3.828   2.593  17.749  0.00  0.00    +0.000 NA
ATOM      4  N   UNL     1       4.114   3.901  17.441  0.00  0.00    +0.000 N 
ATOM      5  C   UNL     1       3.306   4.769  18.177  0.00  0.00    +0.000 A 
ATOM      6  N   UNL     1       3.355   6.133  18.216  0.00  0.00    +0.000 NA
ATOM      7  C   UNL     1       2.500   6.679  19.027  0.00  0.00    +0.000 A 
ATOM      8  N   UNL     1       1.554   5.957  19.746  0.00  0.00    +0.000 N 
ATOM      9  C   UNL     1       1.482   4.578  19.756  0.00  0.00    +0.000 A 
ATOM     10  O   UNL     1       0.673   3.965  20.441  0.00  0.00    +0.000 OA
ATOM     11  C   UNL     1       2.461   3.966  18.909  0.00  0.00    +0.000 A 
ATOM     12  H   UNL     1       0.895   6.420  20.348  0.00  0.00    +0.000 HD
ENDROOT
BRANCH   4  13
ATOM     13  C   UNL     1       5.124   4.204  16.480  0.00  0.00    +0.000 A 
ATOM     14  C   UNL     1       4.879   3.963  15.119  0.00  0.00    +0.000 A 
ATOM     15  C   UNL     1       5.845   4.275  14.160  0.00  0.00    +0.000 A 
ATOM     16  C   UNL     1       7.067   4.824  14.549  0.00  0.00    +0.000 A 
ATOM     17  C   UNL     1       7.323   5.058  15.895  0.00  0.00    +0.000 A 
ATOM     18  C   UNL     1       6.358   4.752  16.857  0.00  0.00    +0.000 A 
ENDBRANCH   4  13
BRANCH   7  19
ATOM     19  C   UNL     1       2.501   8.181  19.322  0.00  0.00    +0.000 C 
ATOM     20  C   UNL     1       1.761   8.524  20.616  0.00  0.00    +0.000 C 
ATOM     21  C   UNL     1       0.275   8.806  20.410  0.00  0.00    +0.000 C 
ATOM     22  N   UNL     1       0.103   9.862  19.410  0.00  0.00    +0.000 NA
ATOM     23  C   UNL     1       0.566   9.378  18.102  0.00  0.00    +0.000 C 
ATOM     24  C   UNL     1       2.066   9.072  18.148  0.00  0.00    +0.000 C 
BRANCH  22  25
ATOM     25  C   UNL     1      -1.261  10.433  19.345  0.00  0.00    +0.000 C 
ATOM     26  C   UNL     1      -1.847  10.445  17.929  0.00  0.00    +0.000 C 
ATOM     27  C   UNL     1      -1.799  11.898  17.503  0.00  0.00    +0.000 C 
ATOM     28  N   UNL     1      -2.058  12.659  18.726  0.00  0.00    +0.000 NA
ATOM     29  C   UNL     1      -1.454  11.888  19.828  0.00  0.00    +0.000 C 
ATOM     30  H   UNL     1      -3.067  12.705  18.873  0.00  0.00    +0.000 HD
ENDBRANCH  22  25
ENDBRANCH   7  19
TORSDOF 3
ENDMDL
MODEL 5
REMARK VINA RESULT:      -7.4      5.101      8.140
REMARK  Name = 
REMARK  4 active torsions:
REMARK  status: ('A' for Active; 'I' for Inactive)
REMARK    1  A    between atoms: C_1  and  C_2
REMARK    2  A    between atoms: N_4  and  C_5
REMARK    3  A    between atoms: C_13  and  C_14
REMARK    4  A    between atoms: N_17  and  C_18
REMARK                            x       y       z     vdW  Elec       q    Type
REMARK                         _______ _______ _______ _____ _____    ______ ____
ROOT
ATOM      1  C   UNL     1      -4.964  11.657  16.799  0.00  0.00    +0.000 C 
ATOM      2  C   UNL     1      -4.017  11.688  17.944  0.00  0.00    +0.000 A 
ATOM      3  N   UNL     1      -4.295  12.396  19.045  0.00  0.00    +0.000 NA
ATOM      4  N   UNL     1      -3.193  12.263  19.855  0.00  0.00    +0.000 N 
ATOM      5  C   UNL     1      -2.218  11.478  19.237  0.00  0.00    +0.000 A 
ATOM      6  N   UNL     1      -0.959  11.199  19.683  0.00  0.00    +0.000 NA
ATOM      7  C   UNL     1      -0.252  10.468  18.874  0.00  0.00    +0.000 A 
ATOM      8  N   UNL     1      -0.744   9.942  17.685  0.00  0.00    +0.000 N 
ATOM      9  C   UNL     1      -2.002  10.217  17.183  0.00  0.00    +0.000 A 
ATOM     10  O   UNL     1      -2.391   9.784  16.106  0.00  0.00    +0.000 OA
ATOM     11  C   UNL     1      -2.766  11.070  18.042  0.00  0.00    +0.000 A 
ATOM     12  H   UNL     1      -0.171   9.363  17.096  0.00  0.00    +0.000 HD
ENDROOT
BRANCH   4  13
ATOM     13  C   UNL     1      -3.169  12.891  21.136  0.00  0.00    +0.000 A 
ATOM     14  C   UNL     1      -4.183  12.610  22.064  0.00  0.00    +0.000 A 
ATOM     15  C   UNL     1      -4.164  13.195  23.332  0.00  0.00    +0.000 A 
ATOM     16  C   UNL     1      -3.138  14.072  23.684  0.00  0.00    +0.000 A 
ATOM     17  C   UNL     1      -2.134  14.364  22.768  0.00  0.00    +0.000 A 
ATOM     18  C   UNL     1      -2.146  13.777  21.501  0.00  0.00    +0.000 A 
ENDBRANCH   4  13
BRANCH   7  19
ATOM     19  C   UNL     1       1.229  10.173  19.125  0.00  0.00    +0.000 C 
ATOM     20  C   UNL     1       1.906   9.510  17.924  0.00  0.00    +0.000 C 
ATOM     21  C   UNL     1       1.841   7.985  17.957  0.00  0.00    +0.000 C 
ATOM     22  N   UNL     1       2.401   7.490  19.216  0.00  0.00    +0.000 NA
ATOM     23  C   UNL     1       1.545   7.914  20.333  0.00  0.00    +0.000 C 
ATOM     24  C   UNL     1       1.531   9.442  20.442  0.00  0.00    +0.000 C 
BRANCH  22  25
ATOM     25  C   UNL     1       2.673   6.035  19.240  0.00  0.00    +0.000 C 
ATOM     26  C   UNL     1       4.165   5.698  19.342  0.00  0.00    +0.000 C 
ATOM     27  C   UNL     1       4.544   5.201  17.962  0.00  0.00    +0.000 C 
ATOM     28  N   UNL     1       3.361   4.485  17.480  0.00  0.00    +0.000 NA
ATOM     29  C   UNL     1       2.194   5.195  18.036  0.00  0.00    +0.000 C 
ATOM     30  H   UNL     1       3.378   3.538  17.858  0.00  0.00    +0.000 HD
ENDBRANCH  22  25
ENDBRANCH   7  19
TORSDOF 3
ENDMDL
MODEL 6
REMARK VINA RESULT:      -7.4      5.099      8.264
REMARK  Name = 
REMARK  4 active torsions:
REMARK  status: ('A' for Active; 'I' for Inactive)
REMARK    1  A    between atoms: C_1  and  C_2
REMARK    2  A    between atoms: N_4  and  C_5
REMARK    3  A    between atoms: C_13  and  C_14
REMARK    4  A    between atoms: N_17  and  C_18
REMARK                            x       y       z     vdW  Elec       q    Type
REMARK                         _______ _______ _______ _____ _____    ______ ____
ROOT
ATOM      1  C   UNL     1      -4.940  11.529  16.706  0.00  0.00    +0.000 C 
ATOM      2  C   UNL     1      -4.003  11.593  17.857  0.00  0.00    +0.000 A 
ATOM      3  N   UNL     1      -4.300  12.313  18.945  0.00  0.00    +0.000 NA
ATOM      4  N   UNL     1      -3.202  12.212  19.764  0.00  0.00    +0.000 N 
ATOM      5  C   UNL     1      -2.210  11.435  19.165  0.00  0.00    +0.000 A 
ATOM      6  N   UNL     1      -0.949  11.183  19.624  0.00  0.00    +0.000 NA
ATOM      7  C   UNL     1      -0.224  10.453  18.832  0.00  0.00    +0.000 A 
ATOM      8  N   UNL     1      -0.698   9.901  17.648  0.00  0.00    +0.000 N 
ATOM      9  C   UNL     1      -1.956  10.146  17.133  0.00  0.00    +0.000 A 
ATOM     10  O   UNL     1      -2.330   9.690  16.059  0.00  0.00    +0.000 OA
ATOM     11  C   UNL     1      -2.742  10.999  17.973  0.00  0.00    +0.000 A 
ATOM     12  H   UNL     1      -0.111   9.322  17.071  0.00  0.00    +0.000 HD
ENDROOT
BRANCH   4  13
ATOM     13  C   UNL     1      -3.198  12.860  21.036  0.00  0.00    +0.000 A 
ATOM     14  C   UNL     1      -2.177  13.771  21.345  0.00  0.00    +0.000 A 
ATOM     15  C   UNL     1      -2.169  14.434  22.574  0.00  0.00    +0.000 A 
ATOM     16  C   UNL     1      -3.174  14.189  23.509  0.00  0.00    +0.000 A 
ATOM     17  C   UNL     1      -4.184  13.280  23.216  0.00  0.00    +0.000 A 
ATOM     18  C   UNL     1      -4.199  12.619  21.986  0.00  0.00    +0.000 A 
ENDBRANCH   4  13
BRANCH   7  19
ATOM     19  C   UNL     1       1.260  10.188  19.097  0.00  0.00    +0.000 C 
ATOM     20  C   UNL     1       1.951   9.494  17.922  0.00  0.00    +0.000 C 
ATOM     21  C   UNL     1       1.907   7.971  18.005  0.00  0.00    +0.000 C 
ATOM     22  N   UNL     1       2.469   7.525  19.282  0.00  0.00    +0.000 NA
ATOM     23  C   UNL     1       1.602   7.974  20.381  0.00  0.00    +0.000 C 
ATOM     24  C   UNL     1       1.566   9.504  20.439  0.00  0.00    +0.000 C 
BRANCH  22  25
ATOM     25  C   UNL     1       2.761   6.076  19.356  0.00  0.00    +0.000 C 
ATOM     26  C   UNL     1       2.842   5.403  17.981  0.00  0.00    +0.000 C 
ATOM     27  C   UNL     1       1.565   4.594  17.871  0.00  0.00    +0.000 C 
ATOM     28  N   UNL     1       1.301   4.120  19.232  0.00  0.00    +0.000 NA
ATOM     29  C   UNL     1       1.772   5.183  20.137  0.00  0.00    +0.000 C 
ATOM     30  H   UNL     1       1.854   3.279  19.397  0.00  0.00    +0.000 HD
ENDBRANCH  22  25
ENDBRANCH   7  19
TORSDOF 3
ENDMDL
MODEL 7
REMARK VINA RESULT:      -7.3      8.509     12.589
REMARK  Name = 
REMARK  4 active torsions:
REMARK  status: ('A' for Active; 'I' for Inactive)
REMARK    1  A    between atoms: C_1  and  C_2
REMARK    2  A    between atoms: N_4  and  C_5
REMARK    3  A    between atoms: C_13  and  C_14
REMARK    4  A    between atoms: N_17  and  C_18
REMARK                            x       y       z     vdW  Elec       q    Type
REMARK                         _______ _______ _______ _____ _____    ______ ____
ROOT
ATOM      1  C   UNL     1      -2.840   9.818  15.215  0.00  0.00    +0.000 C 
ATOM      2  C   UNL     1      -3.252  10.529  16.453  0.00  0.00    +0.000 A 
ATOM      3  N   UNL     1      -4.458  11.102  16.546  0.00  0.00    +0.000 NA
ATOM      4  N   UNL     1      -4.477  11.721  17.772  0.00  0.00    +0.000 N 
ATOM      5  C   UNL     1      -3.262  11.542  18.434  0.00  0.00    +0.000 A 
ATOM      6  N   UNL     1      -2.867  12.079  19.626  0.00  0.00    +0.000 NA
ATOM      7  C   UNL     1      -1.658  11.768  19.981  0.00  0.00    +0.000 A 
ATOM      8  N   UNL     1      -0.844  10.901  19.262  0.00  0.00    +0.000 N 
ATOM      9  C   UNL     1      -1.191  10.353  18.042  0.00  0.00    +0.000 A 
ATOM     10  O   UNL     1      -0.433   9.635  17.402  0.00  0.00    +0.000 OA
ATOM     11  C   UNL     1      -2.502  10.739  17.615  0.00  0.00    +0.000 A 
ATOM     12  H   UNL     1       0.081  10.669  19.582  0.00  0.00    +0.000 HD
ENDROOT
BRANCH   4  13
ATOM     13  C   UNL     1      -5.644  12.422  18.200  0.00  0.00    +0.000 A 
ATOM     14  C   UNL     1      -6.185  12.157  19.468  0.00  0.00    +0.000 A 
ATOM     15  C   UNL     1      -7.312  12.849  19.914  0.00  0.00    +0.000 A 
ATOM     16  C   UNL     1      -7.915  13.807  19.099  0.00  0.00    +0.000 A 
ATOM     17  C   UNL     1      -7.393  14.070  17.838  0.00  0.00    +0.000 A 
ATOM     18  C   UNL     1      -6.263  13.383  17.389  0.00  0.00    +0.000 A 
ENDBRANCH   4  13
BRANCH   7  19
ATOM     19  C   UNL     1      -0.982  12.391  21.206  0.00  0.00    +0.000 C 
ATOM     20  C   UNL     1      -1.217  11.579  22.481  0.00  0.00    +0.000 C 
ATOM     21  C   UNL     1      -2.466  12.004  23.249  0.00  0.00    +0.000 C 
ATOM     22  N   UNL     1      -2.407  13.437  23.542  0.00  0.00    +0.000 NA
ATOM     23  C   UNL     1      -2.479  14.197  22.286  0.00  0.00    +0.000 C 
ATOM     24  C   UNL     1      -1.261  13.889  21.408  0.00  0.00    +0.000 C 
BRANCH  22  25
ATOM     25  C   UNL     1      -3.400  13.905  24.536  0.00  0.00    +0.000 C 
ATOM     26  C   UNL     1      -4.817  13.386  24.268  0.00  0.00    +0.000 C 
ATOM     27  C   UNL     1      -5.576  14.588  23.742  0.00  0.00    +0.000 C 
ATOM     28  N   UNL     1      -5.023  15.732  24.470  0.00  0.00    +0.000 NA
ATOM     29  C   UNL     1      -3.597  15.429  24.692  0.00  0.00    +0.000 C 
ATOM     30  H   UNL     1      -5.488  15.797  25.375  0.00  0.00    +0.000 HD
ENDBRANCH  22  25
ENDBRANCH   7  19
TORSDOF 3
ENDMDL
MODEL 8
REMARK VINA RESULT:      -7.2      5.112      8.118
REMARK  Name = 
REMARK  4 active torsions:
REMARK  status: ('A' for Active; 'I' for Inactive)
REMARK    1  A    between atoms: C_1  and  C_2
REMARK    2  A    between atoms: N_4  and  C_5
REMARK    3  A    between atoms: C_13  and  C_14
REMARK    4  A    between atoms: N_17  and  C_18
REMARK                            x       y       z     vdW  Elec       q    Type
REMARK                         _______ _______ _______ _____ _____    ______ ____
ROOT
ATOM      1  C   UNL     1      -4.987  11.794  17.040  0.00  0.00    +0.000 C 
ATOM      2  C   UNL     1      -4.011  11.806  18.160  0.00  0.00    +0.000 A 
ATOM      3  N   UNL     1      -4.253  12.506  19.274  0.00  0.00    +0.000 NA
ATOM      4  N   UNL     1      -3.131  12.356  20.054  0.00  0.00    +0.000 N 
ATOM      5  C   UNL     1      -2.181  11.567  19.404  0.00  0.00    +0.000 A 
ATOM      6  N   UNL     1      -0.913  11.272  19.814  0.00  0.00    +0.000 NA
ATOM      7  C   UNL     1      -0.235  10.542  18.981  0.00  0.00    +0.000 A 
ATOM      8  N   UNL     1      -0.763  10.031  17.801  0.00  0.00    +0.000 N 
ATOM      9  C   UNL     1      -2.030  10.323  17.334  0.00  0.00    +0.000 A 
ATOM     10  O   UNL     1      -2.451   9.902  16.263  0.00  0.00    +0.000 OA
ATOM     11  C   UNL     1      -2.763  11.175  18.220  0.00  0.00    +0.000 A 
ATOM     12  H   UNL     1      -0.210   9.452  17.191  0.00  0.00    +0.000 HD
ENDROOT
BRANCH   4  13
ATOM     13  C   UNL     1      -3.068  12.972  21.339  0.00  0.00    +0.000 A 
ATOM     14  C   UNL     1      -2.177  14.035  21.554  0.00  0.00    +0.000 A 
ATOM     15  C   UNL     1      -2.117  14.667  22.798  0.00  0.00    +0.000 A 
ATOM     16  C   UNL     1      -2.940  14.241  23.841  0.00  0.00    +0.000 A 
ATOM     17  C   UNL     1      -3.819  13.183  23.640  0.00  0.00    +0.000 A 
ATOM     18  C   UNL     1      -3.886  12.551  22.397  0.00  0.00    +0.000 A 
ENDBRANCH   4  13
BRANCH   7  19
ATOM     19  C   UNL     1       1.249  10.231  19.191  0.00  0.00    +0.000 C 
ATOM     20  C   UNL     1       1.943   9.788  17.901  0.00  0.00    +0.000 C 
ATOM     21  C   UNL     1       1.902   8.279  17.677  0.00  0.00    +0.000 C 
ATOM     22  N   UNL     1       2.463   7.587  18.840  0.00  0.00    +0.000 NA
ATOM     23  C   UNL     1       1.594   7.805  20.005  0.00  0.00    +0.000 C 
ATOM     24  C   UNL     1       1.555   9.293  20.369  0.00  0.00    +0.000 C 
BRANCH  22  25
ATOM     25  C   UNL     1       2.757   6.153  18.622  0.00  0.00    +0.000 C 
ATOM     26  C   UNL     1       3.403   5.475  19.835  0.00  0.00    +0.000 C 
ATOM     27  C   UNL     1       4.854   5.280  19.443  0.00  0.00    +0.000 C 
ATOM     28  N   UNL     1       4.821   4.997  18.006  0.00  0.00    +0.000 NA
ATOM     29  C   UNL     1       3.702   5.783  17.456  0.00  0.00    +0.000 C 
ATOM     30  H   UNL     1       4.622   4.006  17.874  0.00  0.00    +0.000 HD
ENDBRANCH  22  25
ENDBRANCH   7  19
TORSDOF 3
ENDMDL
MODEL 9
REMARK VINA RESULT:      -7.2      7.509     12.641
REMARK  Name = 
REMARK  4 active torsions:
REMARK  status: ('A' for Active; 'I' for Inactive)
REMARK    1  A    between atoms: C_1  and  C_2
REMARK    2  A    between atoms: N_4  and  C_5
REMARK    3  A    between atoms: C_13  and  C_14
REMARK    4  A    between atoms: N_17  and  C_18
REMARK                            x       y       z     vdW  Elec       q    Type
REMARK                         _______ _______ _______ _____ _____    ______ ____
ROOT
ATOM      1  C   UNL     1       0.882   9.762  18.426  0.00  0.00    +0.000 C 
ATOM      2  C   UNL     1      -0.132  10.722  18.934  0.00  0.00    +0.000 A 
ATOM      3  N   UNL     1       0.132  11.508  19.984  0.00  0.00    +0.000 NA
ATOM      4  N   UNL     1      -1.028  12.203  20.224  0.00  0.00    +0.000 N 
ATOM      5  C   UNL     1      -2.023  11.829  19.320  0.00  0.00    +0.000 A 
ATOM      6  N   UNL     1      -3.329  12.227  19.297  0.00  0.00    +0.000 NA
ATOM      7  C   UNL     1      -4.041  11.680  18.358  0.00  0.00    +0.000 A 
ATOM      8  N   UNL     1      -3.518  10.819  17.400  0.00  0.00    +0.000 N 
ATOM      9  C   UNL     1      -2.212  10.370  17.399  0.00  0.00    +0.000 A 
ATOM     10  O   UNL     1      -1.791   9.568  16.574  0.00  0.00    +0.000 OA
ATOM     11  C   UNL     1      -1.435  10.924  18.467  0.00  0.00    +0.000 A 
ATOM     12  H   UNL     1      -4.099  10.432  16.676  0.00  0.00    +0.000 HD
ENDROOT
BRANCH   4  13
ATOM     13  C   UNL     1      -1.083  13.157  21.284  0.00  0.00    +0.000 A 
ATOM     14  C   UNL     1      -0.830  14.510  21.012  0.00  0.00    +0.000 A 
ATOM     15  C   UNL     1      -0.902  15.462  22.031  0.00  0.00    +0.000 A 
ATOM     16  C   UNL     1      -1.220  15.073  23.332  0.00  0.00    +0.000 A 
ATOM     17  C   UNL     1      -1.464  13.734  23.614  0.00  0.00    +0.000 A 
ATOM     18  C   UNL     1      -1.397  12.779  22.597  0.00  0.00    +0.000 A 
ENDBRANCH   4  13
BRANCH   7  19
ATOM     19  C   UNL     1      -5.555  11.883  18.260  0.00  0.00    +0.000 C 
ATOM     20  C   UNL     1      -5.984  13.298  18.651  0.00  0.00    +0.000 C 
ATOM     21  C   UNL     1      -6.298  13.447  20.138  0.00  0.00    +0.000 C 
ATOM     22  N   UNL     1      -7.308  12.464  20.534  0.00  0.00    +0.000 NA
ATOM     23  C   UNL     1      -6.747  11.111  20.416  0.00  0.00    +0.000 C 
ATOM     24  C   UNL     1      -6.400  10.804  18.956  0.00  0.00    +0.000 C 
BRANCH  22  25
ATOM     25  C   UNL     1      -7.915  12.704  21.862  0.00  0.00    +0.000 C 
ATOM     26  C   UNL     1      -7.251  13.849  22.635  0.00  0.00    +0.000 C 
ATOM     27  C   UNL     1      -6.446  13.165  23.722  0.00  0.00    +0.000 C 
ATOM     28  N   UNL     1      -7.243  11.997  24.103  0.00  0.00    +0.000 NA
ATOM     29  C   UNL     1      -7.914  11.537  22.874  0.00  0.00    +0.000 C 
ATOM     30  H   UNL     1      -7.953  12.292  24.773  0.00  0.00    +0.000 HD
ENDBRANCH  22  25
ENDBRANCH   7  19
TORSDOF 3
ENDMDL
