MODEL 1
REMARK VINA RESULT:      -7.2      0.000      0.000
REMARK  Name = 
REMARK  15 active torsions:
REMARK  status: ('A' for Active; 'I' for Inactive)
REMARK    1  A    between atoms: C_1  and  O_2
REMARK    2  A    between atoms: O_2  and  C_3
REMARK    3  A    between atoms: C_9  and  O_10
REMARK    4  A    between atoms: O_10  and  C_11
REMARK    5  A    between atoms: C_11  and  C_12
REMARK    6  A    between atoms: C_12  and  N_13
REMARK    7  A    between atoms: N_13  and  C_14
REMARK    8  A    between atoms: C_14  and  C_15
REMARK    9  A    between atoms: C_14  and  C_16
REMARK   10  A    between atoms: C_16  and  C_17
REMARK   11  A    between atoms: C_21  and  C_22
REMARK   12  A    between atoms: N_26  and  C_27
REMARK   13  A    between atoms: C_27  and  C_28
REMARK   14  A    between atoms: C_28  and  C_29
REMARK   15  A    between atoms: C_29  and  O_30
REMARK                            x       y       z     vdW  Elec       q    Type
REMARK                         _______ _______ _______ _____ _____    ______ ____
ROOT
ATOM      1  C   UNL     1       2.055   6.233  20.441  0.00  0.00    +0.000 A 
ATOM      2  C   UNL     1       2.336   6.768  19.191  0.00  0.00    +0.000 A 
ATOM      3  C   UNL     1       1.976   8.083  18.934  0.00  0.00    +0.000 A 
ATOM      4  C   UNL     1       1.332   8.939  19.860  0.00  0.00    +0.000 A 
ATOM      5  C   UNL     1       1.096   8.409  21.131  0.00  0.00    +0.000 A 
ATOM      6  C   UNL     1       1.446   7.058  21.400  0.00  0.00    +0.000 A 
ATOM      7  N   UNL     1       1.059  10.151  19.246  0.00  0.00    +0.000 N 
ATOM      8  C   UNL     1       1.827  10.198  17.994  0.00  0.00    +0.000 C 
ATOM      9  C   UNL     1       2.119   8.754  17.606  0.00  0.00    +0.000 C 
ENDROOT
BRANCH   5  10
ATOM     10  C   UNL     1       0.443   9.112  22.262  0.00  0.00    +0.000 C 
ATOM     11  N   UNL     1      -0.888   8.831  22.464  0.00  0.00    +0.000 N 
ATOM     12  O   UNL     1       1.016   9.961  22.932  0.00  0.00    +0.000 OA
ATOM     13  H   UNL     1      -1.397   8.133  21.937  0.00  0.00    +0.000 HD
ATOM     14  H   UNL     1      -1.375   9.339  23.189  0.00  0.00    +0.000 HD
ENDBRANCH   5  10
BRANCH   1  15
ATOM     15  C   UNL     1       2.350   4.778  20.725  0.00  0.00    +0.000 C 
BRANCH  15  16
ATOM     16  C   UNL     1       1.852   3.798  19.638  0.00  0.00    +0.000 C 
ATOM     17  C   UNL     1       0.548   3.109  20.057  0.00  0.00    +0.000 C 
BRANCH  16  18
ATOM     18  N   UNL     1       2.922   2.815  19.373  0.00  0.00    +0.000 NA
ATOM     19  H   UNL     1       3.824   3.226  19.620  0.00  0.00    +0.000 HD
BRANCH  18  20
ATOM     20  C   UNL     1       2.994   2.345  17.980  0.00  0.00    +0.000 C 
BRANCH  20  21
ATOM     21  C   UNL     1       4.138   2.969  17.170  0.00  0.00    +0.000 C 
BRANCH  21  22
ATOM     22  O   UNL     1       4.079   4.388  17.251  0.00  0.00    +0.000 OA
BRANCH  22  29
ATOM     23  C   UNL     1       6.086   5.744  16.586  0.00  0.00    +0.000 A 
ATOM     24  C   UNL     1       7.239   6.381  17.066  0.00  0.00    +0.000 A 
ATOM     25  C   UNL     1       7.561   6.322  18.420  0.00  0.00    +0.000 A 
ATOM     26  F   UNL     1       8.662   6.944  18.856  0.00  0.00    +0.000 F 
ATOM     27  C   UNL     1       6.764   5.633  19.315  0.00  0.00    +0.000 A 
ATOM     28  C   UNL     1       5.614   5.003  18.859  0.00  0.00    +0.000 A 
ATOM     29  C   UNL     1       5.256   5.054  17.497  0.00  0.00    +0.000 A 
BRANCH  23  31
ATOM     30  C   UNL     1       6.415   5.008  14.334  0.00  0.00    +0.000 C 
ATOM     31  O   UNL     1       5.714   5.819  15.269  0.00  0.00    +0.000 OA
ENDBRANCH  23  31
ENDBRANCH  22  29
ENDBRANCH  21  22
ENDBRANCH  20  21
ENDBRANCH  18  20
ENDBRANCH  16  18
ENDBRANCH  15  16
ENDBRANCH   1  15
BRANCH   7  32
ATOM     32  C   UNL     1       0.394  11.360  19.700  0.00  0.00    +0.000 C 
BRANCH  32  33
ATOM     33  C   UNL     1      -0.580  11.887  18.635  0.00  0.00    +0.000 C 
BRANCH  33  34
ATOM     34  C   UNL     1      -1.957  11.237  18.675  0.00  0.00    +0.000 C 
BRANCH  34  35
ATOM     35  O   UNL     1      -2.015  10.109  17.816  0.00  0.00    +0.000 OA
ATOM     36  H   UNL     1      -1.410   9.424  18.178  0.00  0.00    +0.000 HD
ENDBRANCH  34  35
ENDBRANCH  33  34
ENDBRANCH  32  33
ENDBRANCH   7  32
TORSDOF 13
ENDMDL
MODEL 2
REMARK VINA RESULT:      -7.2      2.326      3.575
REMARK  Name = 
REMARK  15 active torsions:
REMARK  status: ('A' for Active; 'I' for Inactive)
REMARK    1  A    between atoms: C_1  and  O_2
REMARK    2  A    between atoms: O_2  and  C_3
REMARK    3  A    between atoms: C_9  and  O_10
REMARK    4  A    between atoms: O_10  and  C_11
REMARK    5  A    between atoms: C_11  and  C_12
REMARK    6  A    between atoms: C_12  and  N_13
REMARK    7  A    between atoms: N_13  and  C_14
REMARK    8  A    between atoms: C_14  and  C_15
REMARK    9  A    between atoms: C_14  and  C_16
REMARK   10  A    between atoms: C_16  and  C_17
REMARK   11  A    between atoms: C_21  and  C_22
REMARK   12  A    between atoms: N_26  and  C_27
REMARK   13  A    between atoms: C_27  and  C_28
REMARK   14  A    between atoms: C_28  and  C_29
REMARK   15  A    between atoms: C_29  and  O_30
REMARK                            x       y       z     vdW  Elec       q    Type
REMARK                         _______ _______ _______ _____ _____    ______ ____
ROOT
ATOM      1  C   UNL     1       1.659   7.990  20.279  0.00  0.00    +0.000 A 
ATOM      2  C   UNL     1       1.194   8.069  21.584  0.00  0.00    +0.000 A 
ATOM      3  C   UNL     1       0.463   9.186  21.965  0.00  0.00    +0.000 A 
ATOM      4  C   UNL     1       0.151  10.273  21.114  0.00  0.00    +0.000 A 
ATOM      5  C   UNL     1       0.581  10.165  19.788  0.00  0.00    +0.000 A 
ATOM      6  C   UNL     1       1.343   9.032  19.392  0.00  0.00    +0.000 A 
ATOM      7  N   UNL     1      -0.524  11.240  21.840  0.00  0.00    +0.000 N 
ATOM      8  C   UNL     1      -0.940  10.632  23.112  0.00  0.00    +0.000 C 
ATOM      9  C   UNL     1      -0.007   9.454  23.358  0.00  0.00    +0.000 C 
ENDROOT
BRANCH   5  10
ATOM     10  C   UNL     1       0.369  11.168  18.717  0.00  0.00    +0.000 C 
ATOM     11  N   UNL     1      -0.621  10.882  17.806  0.00  0.00    +0.000 N 
ATOM     12  O   UNL     1       1.081  12.154  18.584  0.00  0.00    +0.000 OA
ATOM     13  H   UNL     1      -1.235  10.082  17.883  0.00  0.00    +0.000 HD
ATOM     14  H   UNL     1      -0.749  11.517  17.031  0.00  0.00    +0.000 HD
ENDBRANCH   5  10
BRANCH   1  15
ATOM     15  C   UNL     1       2.534   6.833  19.855  0.00  0.00    +0.000 C 
BRANCH  15  16
ATOM     16  C   UNL     1       1.815   5.465  19.822  0.00  0.00    +0.000 C 
ATOM     17  C   UNL     1       2.196   4.599  21.028  0.00  0.00    +0.000 C 
BRANCH  16  18
ATOM     18  N   UNL     1       2.150   4.795  18.548  0.00  0.00    +0.000 NA
ATOM     19  H   UNL     1       1.365   4.893  17.902  0.00  0.00    +0.000 HD
BRANCH  18  20
ATOM     20  C   UNL     1       2.469   3.363  18.673  0.00  0.00    +0.000 C 
BRANCH  20  21
ATOM     21  C   UNL     1       3.925   3.017  18.333  0.00  0.00    +0.000 C 
BRANCH  21  22
ATOM     22  O   UNL     1       4.724   4.193  18.348  0.00  0.00    +0.000 OA
BRANCH  22  29
ATOM     23  C   UNL     1       6.933   4.615  17.228  0.00  0.00    +0.000 A 
ATOM     24  C   UNL     1       7.564   4.801  15.991  0.00  0.00    +0.000 A 
ATOM     25  C   UNL     1       6.817   4.800  14.815  0.00  0.00    +0.000 A 
ATOM     26  F   UNL     1       7.443   4.972  13.645  0.00  0.00    +0.000 F 
ATOM     27  C   UNL     1       5.446   4.626  14.839  0.00  0.00    +0.000 A 
ATOM     28  C   UNL     1       4.806   4.432  16.055  0.00  0.00    +0.000 A 
ATOM     29  C   UNL     1       5.535   4.417  17.261  0.00  0.00    +0.000 A 
BRANCH  23  31
ATOM     30  C   UNL     1       7.787   5.770  19.140  0.00  0.00    +0.000 C 
ATOM     31  O   UNL     1       7.642   4.564  18.400  0.00  0.00    +0.000 OA
ENDBRANCH  23  31
ENDBRANCH  22  29
ENDBRANCH  21  22
ENDBRANCH  20  21
ENDBRANCH  18  20
ENDBRANCH  16  18
ENDBRANCH  15  16
ENDBRANCH   1  15
BRANCH   7  32
ATOM     32  C   UNL     1      -1.044  12.552  21.494  0.00  0.00    +0.000 C 
BRANCH  32  33
ATOM     33  C   UNL     1      -2.512  12.464  21.049  0.00  0.00    +0.000 C 
BRANCH  33  34
ATOM     34  C   UNL     1      -3.484  13.207  21.956  0.00  0.00    +0.000 C 
BRANCH  34  35
ATOM     35  O   UNL     1      -4.466  12.329  22.482  0.00  0.00    +0.000 OA
ATOM     36  H   UNL     1      -4.152  12.019  23.361  0.00  0.00    +0.000 HD
ENDBRANCH  34  35
ENDBRANCH  33  34
ENDBRANCH  32  33
ENDBRANCH   7  32
TORSDOF 13
ENDMDL
MODEL 3
REMARK VINA RESULT:      -7.1      1.796      2.433
REMARK  Name = 
REMARK  15 active torsions:
REMARK  status: ('A' for Active; 'I' for Inactive)
REMARK    1  A    between atoms: C_1  and  O_2
REMARK    2  A    between atoms: O_2  and  C_3
REMARK    3  A    between atoms: C_9  and  O_10
REMARK    4  A    between atoms: O_10  and  C_11
REMARK    5  A    between atoms: C_11  and  C_12
REMARK    6  A    between atoms: C_12  and  N_13
REMARK    7  A    between atoms: N_13  and  C_14
REMARK    8  A    between atoms: C_14  and  C_15
REMARK    9  A    between atoms: C_14  and  C_16
REMARK   10  A    between atoms: C_16  and  C_17
REMARK   11  A    between atoms: C_21  and  C_22
REMARK   12  A    between atoms: N_26  and  C_27
REMARK   13  A    between atoms: C_27  and  C_28
REMARK   14  A    between atoms: C_28  and  C_29
REMARK   15  A    between atoms: C_29  and  O_30
REMARK                            x       y       z     vdW  Elec       q    Type
REMARK                         _______ _______ _______ _____ _____    ______ ____
ROOT
ATOM      1  C   UNL     1       2.159   6.116  20.271  0.00  0.00    +0.000 A 
ATOM      2  C   UNL     1       2.549   6.730  19.089  0.00  0.00    +0.000 A 
ATOM      3  C   UNL     1       2.139   8.034  18.849  0.00  0.00    +0.000 A 
ATOM      4  C   UNL     1       1.338   8.802  19.729  0.00  0.00    +0.000 A 
ATOM      5  C   UNL     1       0.989   8.194  20.938  0.00  0.00    +0.000 A 
ATOM      6  C   UNL     1       1.391   6.853  21.186  0.00  0.00    +0.000 A 
ATOM      7  N   UNL     1       1.063  10.026  19.141  0.00  0.00    +0.000 N 
ATOM      8  C   UNL     1       1.967  10.182  17.993  0.00  0.00    +0.000 C 
ATOM      9  C   UNL     1       2.392   8.780  17.579  0.00  0.00    +0.000 C 
ENDROOT
BRANCH   5  10
ATOM     10  C   UNL     1       0.167   8.799  22.013  0.00  0.00    +0.000 C 
ATOM     11  N   UNL     1       0.832   9.609  22.903  0.00  0.00    +0.000 N 
ATOM     12  O   UNL     1      -1.018   8.534  22.168  0.00  0.00    +0.000 OA
ATOM     13  H   UNL     1       1.808   9.857  22.809  0.00  0.00    +0.000 HD
ATOM     14  H   UNL     1       0.311   9.987  23.682  0.00  0.00    +0.000 HD
ENDBRANCH   5  10
BRANCH   1  15
ATOM     15  C   UNL     1       2.511   4.668  20.524  0.00  0.00    +0.000 C 
BRANCH  15  16
ATOM     16  C   UNL     1       1.308   3.698  20.478  0.00  0.00    +0.000 C 
ATOM     17  C   UNL     1       1.512   2.504  21.418  0.00  0.00    +0.000 C 
BRANCH  16  18
ATOM     18  N   UNL     1       1.117   3.259  19.081  0.00  0.00    +0.000 NA
ATOM     19  H   UNL     1       0.303   2.644  19.031  0.00  0.00    +0.000 HD
BRANCH  18  20
ATOM     20  C   UNL     1       2.267   2.551  18.496  0.00  0.00    +0.000 C 
BRANCH  20  21
ATOM     21  C   UNL     1       3.064   3.385  17.484  0.00  0.00    +0.000 C 
BRANCH  21  22
ATOM     22  O   UNL     1       4.399   3.565  17.942  0.00  0.00    +0.000 OA
BRANCH  22  29
ATOM     23  C   UNL     1       6.621   4.524  17.269  0.00  0.00    +0.000 A 
ATOM     24  C   UNL     1       7.404   4.925  16.178  0.00  0.00    +0.000 A 
ATOM     25  C   UNL     1       6.896   4.844  14.883  0.00  0.00    +0.000 A 
ATOM     26  F   UNL     1       7.666   5.225  13.857  0.00  0.00    +0.000 F 
ATOM     27  C   UNL     1       5.616   4.381  14.645  0.00  0.00    +0.000 A 
ATOM     28  C   UNL     1       4.830   3.972  15.713  0.00  0.00    +0.000 A 
ATOM     29  C   UNL     1       5.319   4.030  17.033  0.00  0.00    +0.000 A 
BRANCH  23  31
ATOM     30  C   UNL     1       7.597   5.782  19.054  0.00  0.00    +0.000 C 
ATOM     31  O   UNL     1       7.104   4.546  18.552  0.00  0.00    +0.000 OA
ENDBRANCH  23  31
ENDBRANCH  22  29
ENDBRANCH  21  22
ENDBRANCH  20  21
ENDBRANCH  18  20
ENDBRANCH  16  18
ENDBRANCH  15  16
ENDBRANCH   1  15
BRANCH   7  32
ATOM     32  C   UNL     1       0.274  11.170  19.566  0.00  0.00    +0.000 C 
BRANCH  32  33
ATOM     33  C   UNL     1       1.124  12.154  20.383  0.00  0.00    +0.000 C 
BRANCH  33  34
ATOM     34  C   UNL     1       0.334  12.962  21.404  0.00  0.00    +0.000 C 
BRANCH  34  35
ATOM     35  O   UNL     1      -1.062  12.808  21.207  0.00  0.00    +0.000 OA
ATOM     36  H   UNL     1      -1.445  13.701  21.053  0.00  0.00    +0.000 HD
ENDBRANCH  34  35
ENDBRANCH  33  34
ENDBRANCH  32  33
ENDBRANCH   7  32
TORSDOF 13
ENDMDL
MODEL 4
REMARK VINA RESULT:      -7.0      1.105      1.134
REMARK  Name = 
REMARK  15 active torsions:
REMARK  status: ('A' for Active; 'I' for Inactive)
REMARK    1  A    between atoms: C_1  and  O_2
REMARK    2  A    between atoms: O_2  and  C_3
REMARK    3  A    between atoms: C_9  and  O_10
REMARK    4  A    between atoms: O_10  and  C_11
REMARK    5  A    between atoms: C_11  and  C_12
REMARK    6  A    between atoms: C_12  and  N_13
REMARK    7  A    between atoms: N_13  and  C_14
REMARK    8  A    between atoms: C_14  and  C_15
REMARK    9  A    between atoms: C_14  and  C_16
REMARK   10  A    between atoms: C_16  and  C_17
REMARK   11  A    between atoms: C_21  and  C_22
REMARK   12  A    between atoms: N_26  and  C_27
REMARK   13  A    between atoms: C_27  and  C_28
REMARK   14  A    between atoms: C_28  and  C_29
REMARK   15  A    between atoms: C_29  and  O_30
REMARK                            x       y       z     vdW  Elec       q    Type
REMARK                         _______ _______ _______ _____ _____    ______ ____
ROOT
ATOM      1  C   UNL     1       2.277   6.623  20.150  0.00  0.00    +0.000 A 
ATOM      2  C   UNL     1       2.386   7.325  18.958  0.00  0.00    +0.000 A 
ATOM      3  C   UNL     1       1.869   8.611  18.893  0.00  0.00    +0.000 A 
ATOM      4  C   UNL     1       1.225   9.276  19.964  0.00  0.00    +0.000 A 
ATOM      5  C   UNL     1       1.161   8.582  21.176  0.00  0.00    +0.000 A 
ATOM      6  C   UNL     1       1.674   7.258  21.248  0.00  0.00    +0.000 A 
ATOM      7  N   UNL     1       0.772  10.511  19.527  0.00  0.00    +0.000 N 
ATOM      8  C   UNL     1       1.415  10.788  18.235  0.00  0.00    +0.000 C 
ATOM      9  C   UNL     1       1.820   9.441  17.651  0.00  0.00    +0.000 C 
ENDROOT
BRANCH   5  10
ATOM     10  C   UNL     1       0.544   9.072  22.431  0.00  0.00    +0.000 C 
ATOM     11  N   UNL     1      -0.814   8.891  22.550  0.00  0.00    +0.000 N 
ATOM     12  O   UNL     1       1.174   9.683  23.284  0.00  0.00    +0.000 OA
ATOM     13  H   UNL     1      -1.371   8.387  21.873  0.00  0.00    +0.000 HD
ATOM     14  H   UNL     1      -1.273   9.268  23.368  0.00  0.00    +0.000 HD
ENDBRANCH   5  10
BRANCH   1  15
ATOM     15  C   UNL     1       2.747   5.189  20.230  0.00  0.00    +0.000 C 
BRANCH  15  16
ATOM     16  C   UNL     1       1.762   4.156  19.636  0.00  0.00    +0.000 C 
ATOM     17  C   UNL     1       0.974   3.435  20.735  0.00  0.00    +0.000 C 
BRANCH  16  18
ATOM     18  N   UNL     1       2.530   3.204  18.808  0.00  0.00    +0.000 NA
ATOM     19  H   UNL     1       3.518   3.259  19.063  0.00  0.00    +0.000 HD
BRANCH  18  20
ATOM     20  C   UNL     1       2.416   3.421  17.356  0.00  0.00    +0.000 C 
BRANCH  20  21
ATOM     21  C   UNL     1       3.660   4.054  16.720  0.00  0.00    +0.000 C 
BRANCH  21  22
ATOM     22  O   UNL     1       4.822   3.698  17.458  0.00  0.00    +0.000 OA
BRANCH  22  29
ATOM     23  C   UNL     1       6.369   5.510  16.659  0.00  0.00    +0.000 A 
ATOM     24  C   UNL     1       7.318   6.457  17.067  0.00  0.00    +0.000 A 
ATOM     25  C   UNL     1       7.679   6.556  18.409  0.00  0.00    +0.000 A 
ATOM     26  F   UNL     1       8.581   7.474  18.775  0.00  0.00    +0.000 F 
ATOM     27  C   UNL     1       7.122   5.724  19.362  0.00  0.00    +0.000 A 
ATOM     28  C   UNL     1       6.174   4.786  18.977  0.00  0.00    +0.000 A 
ATOM     29  C   UNL     1       5.780   4.669  17.630  0.00  0.00    +0.000 A 
BRANCH  23  31
ATOM     30  C   UNL     1       6.772   4.677  14.453  0.00  0.00    +0.000 C 
ATOM     31  O   UNL     1       5.956   5.415  15.355  0.00  0.00    +0.000 OA
ENDBRANCH  23  31
ENDBRANCH  22  29
ENDBRANCH  21  22
ENDBRANCH  20  21
ENDBRANCH  18  20
ENDBRANCH  16  18
ENDBRANCH  15  16
ENDBRANCH   1  15
BRANCH   7  32
ATOM     32  C   UNL     1       0.028  11.576  20.177  0.00  0.00    +0.000 C 
BRANCH  32  33
ATOM     33  C   UNL     1      -1.464  11.506  19.816  0.00  0.00    +0.000 C 
BRANCH  33  34
ATOM     34  C   UNL     1      -2.279  12.697  20.301  0.00  0.00    +0.000 C 
BRANCH  34  35
ATOM     35  O   UNL     1      -2.404  12.690  21.714  0.00  0.00    +0.000 OA
ATOM     36  H   UNL     1      -2.430  13.625  22.019  0.00  0.00    +0.000 HD
ENDBRANCH  34  35
ENDBRANCH  33  34
ENDBRANCH  32  33
ENDBRANCH   7  32
TORSDOF 13
ENDMDL
MODEL 5
REMARK VINA RESULT:      -7.0      4.591      7.408
REMARK  Name = 
REMARK  15 active torsions:
REMARK  status: ('A' for Active; 'I' for Inactive)
REMARK    1  A    between atoms: C_1  and  O_2
REMARK    2  A    between atoms: O_2  and  C_3
REMARK    3  A    between atoms: C_9  and  O_10
REMARK    4  A    between atoms: O_10  and  C_11
REMARK    5  A    between atoms: C_11  and  C_12
REMARK    6  A    between atoms: C_12  and  N_13
REMARK    7  A    between atoms: N_13  and  C_14
REMARK    8  A    between atoms: C_14  and  C_15
REMARK    9  A    between atoms: C_14  and  C_16
REMARK   10  A    between atoms: C_16  and  C_17
REMARK   11  A    between atoms: C_21  and  C_22
REMARK   12  A    between atoms: N_26  and  C_27
REMARK   13  A    between atoms: C_27  and  C_28
REMARK   14  A    between atoms: C_28  and  C_29
REMARK   15  A    between atoms: C_29  and  O_30
REMARK                            x       y       z     vdW  Elec       q    Type
REMARK                         _______ _______ _______ _____ _____    ______ ____
ROOT
ATOM      1  C   UNL     1       5.113   5.625  17.755  0.00  0.00    +0.000 A 
ATOM      2  C   UNL     1       4.155   6.488  18.268  0.00  0.00    +0.000 A 
ATOM      3  C   UNL     1       3.270   6.009  19.223  0.00  0.00    +0.000 A 
ATOM      4  C   UNL     1       3.264   4.685  19.724  0.00  0.00    +0.000 A 
ATOM      5  C   UNL     1       4.262   3.834  19.239  0.00  0.00    +0.000 A 
ATOM      6  C   UNL     1       5.163   4.312  18.249  0.00  0.00    +0.000 A 
ATOM      7  N   UNL     1       2.205   4.537  20.606  0.00  0.00    +0.000 N 
ATOM      8  C   UNL     1       1.703   5.880  20.929  0.00  0.00    +0.000 C 
ATOM      9  C   UNL     1       2.125   6.790  19.782  0.00  0.00    +0.000 C 
ENDROOT
BRANCH   5  10
ATOM     10  C   UNL     1       4.459   2.415  19.618  0.00  0.00    +0.000 C 
ATOM     11  N   UNL     1       4.073   1.480  18.687  0.00  0.00    +0.000 N 
ATOM     12  O   UNL     1       4.857   2.075  20.724  0.00  0.00    +0.000 OA
ATOM     13  H   UNL     1       3.745   1.717  17.760  0.00  0.00    +0.000 HD
ATOM     14  H   UNL     1       4.139   0.504  18.940  0.00  0.00    +0.000 HD
ENDBRANCH   5  10
BRANCH   1  15
ATOM     15  C   UNL     1       6.034   6.087  16.650  0.00  0.00    +0.000 C 
BRANCH  15  16
ATOM     16  C   UNL     1       7.494   6.336  17.092  0.00  0.00    +0.000 C 
ATOM     17  C   UNL     1       7.717   5.926  18.552  0.00  0.00    +0.000 C 
BRANCH  16  18
ATOM     18  N   UNL     1       7.808   7.763  16.877  0.00  0.00    +0.000 NA
ATOM     19  H   UNL     1       8.753   7.845  16.498  0.00  0.00    +0.000 HD
BRANCH  18  20
ATOM     20  C   UNL     1       7.721   8.600  18.085  0.00  0.00    +0.000 C 
BRANCH  20  21
ATOM     21  C   UNL     1       8.530   9.901  18.003  0.00  0.00    +0.000 C 
BRANCH  21  22
ATOM     22  O   UNL     1       9.578   9.887  18.965  0.00  0.00    +0.000 OA
BRANCH  22  29
ATOM     23  C   UNL     1      10.741  12.112  19.050  0.00  0.00    +0.000 A 
ATOM     24  C   UNL     1      10.922  13.273  19.815  0.00  0.00    +0.000 A 
ATOM     25  C   UNL     1      10.297  13.402  21.053  0.00  0.00    +0.000 A 
ATOM     26  F   UNL     1      10.479  14.523  21.761  0.00  0.00    +0.000 F 
ATOM     27  C   UNL     1       9.498  12.394  21.559  0.00  0.00    +0.000 A 
ATOM     28  C   UNL     1       9.301  11.241  20.812  0.00  0.00    +0.000 A 
ATOM     29  C   UNL     1       9.910  11.086  19.551  0.00  0.00    +0.000 A 
BRANCH  23  31
ATOM     30  C   UNL     1      11.414  13.130  16.993  0.00  0.00    +0.000 C 
ATOM     31  O   UNL     1      11.303  11.970  17.808  0.00  0.00    +0.000 OA
ENDBRANCH  23  31
ENDBRANCH  22  29
ENDBRANCH  21  22
ENDBRANCH  20  21
ENDBRANCH  18  20
ENDBRANCH  16  18
ENDBRANCH  15  16
ENDBRANCH   1  15
BRANCH   7  32
ATOM     32  C   UNL     1       1.708   3.406  21.372  0.00  0.00    +0.000 C 
BRANCH  32  33
ATOM     33  C   UNL     1       1.243   2.274  20.444  0.00  0.00    +0.000 C 
BRANCH  33  34
ATOM     34  C   UNL     1       0.626   2.753  19.137  0.00  0.00    +0.000 C 
BRANCH  34  35
ATOM     35  O   UNL     1       1.116   2.005  18.036  0.00  0.00    +0.000 OA
ATOM     36  H   UNL     1       1.190   1.066  18.319  0.00  0.00    +0.000 HD
ENDBRANCH  34  35
ENDBRANCH  33  34
ENDBRANCH  32  33
ENDBRANCH   7  32
TORSDOF 13
ENDMDL
MODEL 6
REMARK VINA RESULT:      -7.0      4.560      7.286
REMARK  Name = 
REMARK  15 active torsions:
REMARK  status: ('A' for Active; 'I' for Inactive)
REMARK    1  A    between atoms: C_1  and  O_2
REMARK    2  A    between atoms: O_2  and  C_3
REMARK    3  A    between atoms: C_9  and  O_10
REMARK    4  A    between atoms: O_10  and  C_11
REMARK    5  A    between atoms: C_11  and  C_12
REMARK    6  A    between atoms: C_12  and  N_13
REMARK    7  A    between atoms: N_13  and  C_14
REMARK    8  A    between atoms: C_14  and  C_15
REMARK    9  A    between atoms: C_14  and  C_16
REMARK   10  A    between atoms: C_16  and  C_17
REMARK   11  A    between atoms: C_21  and  C_22
REMARK   12  A    between atoms: N_26  and  C_27
REMARK   13  A    between atoms: C_27  and  C_28
REMARK   14  A    between atoms: C_28  and  C_29
REMARK   15  A    between atoms: C_29  and  O_30
REMARK                            x       y       z     vdW  Elec       q    Type
REMARK                         _______ _______ _______ _____ _____    ______ ____
ROOT
ATOM      1  C   UNL     1       5.266   5.275  16.668  0.00  0.00    +0.000 A 
ATOM      2  C   UNL     1       4.958   3.922  16.662  0.00  0.00    +0.000 A 
ATOM      3  C   UNL     1       3.842   3.490  17.366  0.00  0.00    +0.000 A 
ATOM      4  C   UNL     1       2.980   4.334  18.106  0.00  0.00    +0.000 A 
ATOM      5  C   UNL     1       3.268   5.701  18.068  0.00  0.00    +0.000 A 
ATOM      6  C   UNL     1       4.417   6.151  17.362  0.00  0.00    +0.000 A 
ATOM      7  N   UNL     1       2.018   3.561  18.738  0.00  0.00    +0.000 N 
ATOM      8  C   UNL     1       2.064   2.219  18.140  0.00  0.00    +0.000 C 
ATOM      9  C   UNL     1       3.452   2.057  17.536  0.00  0.00    +0.000 C 
ENDROOT
BRANCH   5  10
ATOM     10  C   UNL     1       2.509   6.773  18.756  0.00  0.00    +0.000 C 
ATOM     11  N   UNL     1       1.991   7.760  17.951  0.00  0.00    +0.000 N 
ATOM     12  O   UNL     1       2.415   6.839  19.974  0.00  0.00    +0.000 OA
ATOM     13  H   UNL     1       2.042   7.741  16.941  0.00  0.00    +0.000 HD
ATOM     14  H   UNL     1       1.520   8.536  18.396  0.00  0.00    +0.000 HD
ENDBRANCH   5  10
BRANCH   1  15
ATOM     15  C   UNL     1       6.522   5.768  15.988  0.00  0.00    +0.000 C 
BRANCH  15  16
ATOM     16  C   UNL     1       7.611   6.291  16.952  0.00  0.00    +0.000 C 
ATOM     17  C   UNL     1       7.517   5.618  18.326  0.00  0.00    +0.000 C 
BRANCH  16  18
ATOM     18  N   UNL     1       7.473   7.758  17.058  0.00  0.00    +0.000 NA
ATOM     19  H   UNL     1       7.738   8.185  16.168  0.00  0.00    +0.000 HD
BRANCH  18  20
ATOM     20  C   UNL     1       8.277   8.376  18.124  0.00  0.00    +0.000 C 
BRANCH  20  21
ATOM     21  C   UNL     1       8.171   9.906  18.179  0.00  0.00    +0.000 C 
BRANCH  21  22
ATOM     22  O   UNL     1       9.420  10.496  17.839  0.00  0.00    +0.000 OA
BRANCH  22  29
ATOM     23  C   UNL     1       9.237  12.950  18.344  0.00  0.00    +0.000 A 
ATOM     24  C   UNL     1       9.733  13.987  19.146  0.00  0.00    +0.000 A 
ATOM     25  C   UNL     1      10.743  13.736  20.072  0.00  0.00    +0.000 A 
ATOM     26  F   UNL     1      11.194  14.740  20.832  0.00  0.00    +0.000 F 
ATOM     27  C   UNL     1      11.284  12.472  20.214  0.00  0.00    +0.000 A 
ATOM     28  C   UNL     1      10.800  11.431  19.434  0.00  0.00    +0.000 A 
ATOM     29  C   UNL     1       9.771  11.651  18.497  0.00  0.00    +0.000 A 
BRANCH  23  31
ATOM     30  C   UNL     1       7.274  14.178  17.745  0.00  0.00    +0.000 C 
ATOM     31  O   UNL     1       8.213  13.150  17.455  0.00  0.00    +0.000 OA
ENDBRANCH  23  31
ENDBRANCH  22  29
ENDBRANCH  21  22
ENDBRANCH  20  21
ENDBRANCH  18  20
ENDBRANCH  16  18
ENDBRANCH  15  16
ENDBRANCH   1  15
BRANCH   7  32
ATOM     32  C   UNL     1       0.923   3.886  19.636  0.00  0.00    +0.000 C 
BRANCH  32  33
ATOM     33  C   UNL     1       1.031   3.092  20.946  0.00  0.00    +0.000 C 
BRANCH  33  34
ATOM     34  C   UNL     1       2.302   3.366  21.739  0.00  0.00    +0.000 C 
BRANCH  34  35
ATOM     35  O   UNL     1       2.599   4.753  21.764  0.00  0.00    +0.000 OA
ATOM     36  H   UNL     1       2.111   5.179  21.025  0.00  0.00    +0.000 HD
ENDBRANCH  34  35
ENDBRANCH  33  34
ENDBRANCH  32  33
ENDBRANCH   7  32
TORSDOF 13
ENDMDL
MODEL 7
REMARK VINA RESULT:      -7.0      2.037      2.761
REMARK  Name = 
REMARK  15 active torsions:
REMARK  status: ('A' for Active; 'I' for Inactive)
REMARK    1  A    between atoms: C_1  and  O_2
REMARK    2  A    between atoms: O_2  and  C_3
REMARK    3  A    between atoms: C_9  and  O_10
REMARK    4  A    between atoms: O_10  and  C_11
REMARK    5  A    between atoms: C_11  and  C_12
REMARK    6  A    between atoms: C_12  and  N_13
REMARK    7  A    between atoms: N_13  and  C_14
REMARK    8  A    between atoms: C_14  and  C_15
REMARK    9  A    between atoms: C_14  and  C_16
REMARK   10  A    between atoms: C_16  and  C_17
REMARK   11  A    between atoms: C_21  and  C_22
REMARK   12  A    between atoms: N_26  and  C_27
REMARK   13  A    between atoms: C_27  and  C_28
REMARK   14  A    between atoms: C_28  and  C_29
REMARK   15  A    between atoms: C_29  and  O_30
REMARK                            x       y       z     vdW  Elec       q    Type
REMARK                         _______ _______ _______ _____ _____    ______ ____
ROOT
ATOM      1  C   UNL     1       2.055   7.369  19.996  0.00  0.00    +0.000 A 
ATOM      2  C   UNL     1       1.909   8.206  18.898  0.00  0.00    +0.000 A 
ATOM      3  C   UNL     1       1.213   9.396  19.056  0.00  0.00    +0.000 A 
ATOM      4  C   UNL     1       0.625   9.831  20.268  0.00  0.00    +0.000 A 
ATOM      5  C   UNL     1       0.817   9.007  21.380  0.00  0.00    +0.000 A 
ATOM      6  C   UNL     1       1.516   7.779  21.226  0.00  0.00    +0.000 A 
ATOM      7  N   UNL     1      -0.049  11.021  20.045  0.00  0.00    +0.000 N 
ATOM      8  C   UNL     1       0.376  11.534  18.734  0.00  0.00    +0.000 C 
ATOM      9  C   UNL     1       0.887  10.338  17.943  0.00  0.00    +0.000 C 
ENDROOT
BRANCH   5  10
ATOM     10  C   UNL     1       0.304   9.255  22.749  0.00  0.00    +0.000 C 
ATOM     11  N   UNL     1      -1.035   9.013  22.948  0.00  0.00    +0.000 N 
ATOM     12  O   UNL     1       0.996   9.732  23.638  0.00  0.00    +0.000 OA
ATOM     13  H   UNL     1      -1.641   8.615  22.243  0.00  0.00    +0.000 HD
ATOM     14  H   UNL     1      -1.426   9.230  23.854  0.00  0.00    +0.000 HD
ENDBRANCH   5  10
BRANCH   1  15
ATOM     15  C   UNL     1       2.728   6.025  19.840  0.00  0.00    +0.000 C 
BRANCH  15  16
ATOM     16  C   UNL     1       1.772   4.814  19.926  0.00  0.00    +0.000 C 
ATOM     17  C   UNL     1       2.039   3.974  21.180  0.00  0.00    +0.000 C 
BRANCH  16  18
ATOM     18  N   UNL     1       1.926   4.011  18.695  0.00  0.00    +0.000 NA
ATOM     19  H   UNL     1       1.005   3.840  18.289  0.00  0.00    +0.000 HD
BRANCH  18  20
ATOM     20  C   UNL     1       2.594   2.714  18.887  0.00  0.00    +0.000 C 
BRANCH  20  21
ATOM     21  C   UNL     1       3.905   2.565  18.103  0.00  0.00    +0.000 C 
BRANCH  21  22
ATOM     22  O   UNL     1       4.734   3.701  18.314  0.00  0.00    +0.000 OA
BRANCH  22  29
ATOM     23  C   UNL     1       6.866   4.532  17.278  0.00  0.00    +0.000 A 
ATOM     24  C   UNL     1       7.480   4.888  16.070  0.00  0.00    +0.000 A 
ATOM     25  C   UNL     1       6.764   4.837  14.876  0.00  0.00    +0.000 A 
ATOM     26  F   UNL     1       7.374   5.174  13.734  0.00  0.00    +0.000 F 
ATOM     27  C   UNL     1       5.438   4.446  14.855  0.00  0.00    +0.000 A 
ATOM     28  C   UNL     1       4.815   4.082  16.041  0.00  0.00    +0.000 A 
ATOM     29  C   UNL     1       5.517   4.113  17.262  0.00  0.00    +0.000 A 
BRANCH  23  31
ATOM     30  C   UNL     1       7.802   5.779  19.092  0.00  0.00    +0.000 C 
ATOM     31  O   UNL     1       7.553   4.527  18.464  0.00  0.00    +0.000 OA
ENDBRANCH  23  31
ENDBRANCH  22  29
ENDBRANCH  21  22
ENDBRANCH  20  21
ENDBRANCH  18  20
ENDBRANCH  16  18
ENDBRANCH  15  16
ENDBRANCH   1  15
BRANCH   7  32
ATOM     32  C   UNL     1      -0.846  11.881  20.903  0.00  0.00    +0.000 C 
BRANCH  32  33
ATOM     33  C   UNL     1       0.047  12.678  21.866  0.00  0.00    +0.000 C 
BRANCH  33  34
ATOM     34  C   UNL     1       0.798  13.830  21.210  0.00  0.00    +0.000 C 
BRANCH  34  35
ATOM     35  O   UNL     1       2.138  13.895  21.670  0.00  0.00    +0.000 OA
ATOM     36  H   UNL     1       2.189  13.398  22.518  0.00  0.00    +0.000 HD
ENDBRANCH  34  35
ENDBRANCH  33  34
ENDBRANCH  32  33
ENDBRANCH   7  32
TORSDOF 13
ENDMDL
MODEL 8
REMARK VINA RESULT:      -7.0      5.045      7.890
REMARK  Name = 
REMARK  15 active torsions:
REMARK  status: ('A' for Active; 'I' for Inactive)
REMARK    1  A    between atoms: C_1  and  O_2
REMARK    2  A    between atoms: O_2  and  C_3
REMARK    3  A    between atoms: C_9  and  O_10
REMARK    4  A    between atoms: O_10  and  C_11
REMARK    5  A    between atoms: C_11  and  C_12
REMARK    6  A    between atoms: C_12  and  N_13
REMARK    7  A    between atoms: N_13  and  C_14
REMARK    8  A    between atoms: C_14  and  C_15
REMARK    9  A    between atoms: C_14  and  C_16
REMARK   10  A    between atoms: C_16  and  C_17
REMARK   11  A    between atoms: C_21  and  C_22
REMARK   12  A    between atoms: N_26  and  C_27
REMARK   13  A    between atoms: C_27  and  C_28
REMARK   14  A    between atoms: C_28  and  C_29
REMARK   15  A    between atoms: C_29  and  O_30
REMARK                            x       y       z     vdW  Elec       q    Type
REMARK                         _______ _______ _______ _____ _____    ______ ____
ROOT
ATOM      1  C   UNL     1       5.489   5.745  17.680  0.00  0.00    +0.000 A 
ATOM      2  C   UNL     1       4.536   6.643  18.138  0.00  0.00    +0.000 A 
ATOM      3  C   UNL     1       3.539   6.181  18.986  0.00  0.00    +0.000 A 
ATOM      4  C   UNL     1       3.412   4.842  19.427  0.00  0.00    +0.000 A 
ATOM      5  C   UNL     1       4.404   3.953  19.001  0.00  0.00    +0.000 A 
ATOM      6  C   UNL     1       5.420   4.413  18.120  0.00  0.00    +0.000 A 
ATOM      7  N   UNL     1       2.268   4.723  20.200  0.00  0.00    +0.000 N 
ATOM      8  C   UNL     1       1.813   6.081  20.532  0.00  0.00    +0.000 C 
ATOM      9  C   UNL     1       2.390   7.007  19.469  0.00  0.00    +0.000 C 
ENDROOT
BRANCH   5  10
ATOM     10  C   UNL     1       4.486   2.512  19.335  0.00  0.00    +0.000 C 
ATOM     11  N   UNL     1       4.169   1.635  18.324  0.00  0.00    +0.000 N 
ATOM     12  O   UNL     1       4.732   2.107  20.463  0.00  0.00    +0.000 OA
ATOM     13  H   UNL     1       3.964   1.927  17.377  0.00  0.00    +0.000 HD
ATOM     14  H   UNL     1       4.157   0.648  18.538  0.00  0.00    +0.000 HD
ENDBRANCH   5  10
BRANCH   1  15
ATOM     15  C   UNL     1       6.535   6.193  16.685  0.00  0.00    +0.000 C 
BRANCH  15  16
ATOM     16  C   UNL     1       7.744   6.924  17.311  0.00  0.00    +0.000 C 
ATOM     17  C   UNL     1       8.014   6.444  18.740  0.00  0.00    +0.000 C 
BRANCH  16  18
ATOM     18  N   UNL     1       7.481   8.378  17.269  0.00  0.00    +0.000 NA
ATOM     19  H   UNL     1       7.587   8.710  16.309  0.00  0.00    +0.000 HD
BRANCH  18  20
ATOM     20  C   UNL     1       8.354   9.185  18.137  0.00  0.00    +0.000 C 
BRANCH  20  21
ATOM     21  C   UNL     1       8.392  10.675  17.772  0.00  0.00    +0.000 C 
BRANCH  21  22
ATOM     22  O   UNL     1       9.251  11.375  18.662  0.00  0.00    +0.000 OA
BRANCH  22  29
ATOM     23  C   UNL     1       9.263  13.881  18.484  0.00  0.00    +0.000 A 
ATOM     24  C   UNL     1       9.958  14.982  17.964  0.00  0.00    +0.000 A 
ATOM     25  C   UNL     1      11.110  14.789  17.204  0.00  0.00    +0.000 A 
ATOM     26  F   UNL     1      11.761  15.856  16.725  0.00  0.00    +0.000 F 
ATOM     27  C   UNL     1      11.587  13.519  16.939  0.00  0.00    +0.000 A 
ATOM     28  C   UNL     1      10.916  12.418  17.452  0.00  0.00    +0.000 A 
ATOM     29  C   UNL     1       9.755  12.581  18.234  0.00  0.00    +0.000 A 
BRANCH  23  31
ATOM     30  C   UNL     1       7.175  14.983  18.865  0.00  0.00    +0.000 C 
ATOM     31  O   UNL     1       8.153  14.035  19.273  0.00  0.00    +0.000 OA
ENDBRANCH  23  31
ENDBRANCH  22  29
ENDBRANCH  21  22
ENDBRANCH  20  21
ENDBRANCH  18  20
ENDBRANCH  16  18
ENDBRANCH  15  16
ENDBRANCH   1  15
BRANCH   7  32
ATOM     32  C   UNL     1       1.640   3.596  20.867  0.00  0.00    +0.000 C 
BRANCH  32  33
ATOM     33  C   UNL     1       0.364   3.161  20.131  0.00  0.00    +0.000 C 
BRANCH  33  34
ATOM     34  C   UNL     1       0.620   2.434  18.817  0.00  0.00    +0.000 C 
BRANCH  34  35
ATOM     35  O   UNL     1       1.457   1.306  19.012  0.00  0.00    +0.000 OA
ATOM     36  H   UNL     1       0.983   0.679  19.603  0.00  0.00    +0.000 HD
ENDBRANCH  34  35
ENDBRANCH  33  34
ENDBRANCH  32  33
ENDBRANCH   7  32
TORSDOF 13
ENDMDL
MODEL 9
REMARK VINA RESULT:      -7.0      2.862      4.946
REMARK  Name = 
REMARK  15 active torsions:
REMARK  status: ('A' for Active; 'I' for Inactive)
REMARK    1  A    between atoms: C_1  and  O_2
REMARK    2  A    between atoms: O_2  and  C_3
REMARK    3  A    between atoms: C_9  and  O_10
REMARK    4  A    between atoms: O_10  and  C_11
REMARK    5  A    between atoms: C_11  and  C_12
REMARK    6  A    between atoms: C_12  and  N_13
REMARK    7  A    between atoms: N_13  and  C_14
REMARK    8  A    between atoms: C_14  and  C_15
REMARK    9  A    between atoms: C_14  and  C_16
REMARK   10  A    between atoms: C_16  and  C_17
REMARK   11  A    between atoms: C_21  and  C_22
REMARK   12  A    between atoms: N_26  and  C_27
REMARK   13  A    between atoms: C_27  and  C_28
REMARK   14  A    between atoms: C_28  and  C_29
REMARK   15  A    between atoms: C_29  and  O_30
REMARK                            x       y       z     vdW  Elec       q    Type
REMARK                         _______ _______ _______ _____ _____    ______ ____
ROOT
ATOM      1  C   UNL     1      -0.352  10.507  19.124  0.00  0.00    +0.000 A 
ATOM      2  C   UNL     1      -0.850  10.001  17.931  0.00  0.00    +0.000 A 
ATOM      3  C   UNL     1      -2.100  10.421  17.500  0.00  0.00    +0.000 A 
ATOM      4  C   UNL     1      -2.926  11.338  18.193  0.00  0.00    +0.000 A 
ATOM      5  C   UNL     1      -2.399  11.880  19.369  0.00  0.00    +0.000 A 
ATOM      6  C   UNL     1      -1.125  11.445  19.827  0.00  0.00    +0.000 A 
ATOM      7  N   UNL     1      -4.127  11.471  17.515  0.00  0.00    +0.000 N 
ATOM      8  C   UNL     1      -3.956  10.872  16.184  0.00  0.00    +0.000 C 
ATOM      9  C   UNL     1      -2.804   9.882  16.297  0.00  0.00    +0.000 C 
ENDROOT
BRANCH   5  10
ATOM     10  C   UNL     1      -3.071  12.858  20.257  0.00  0.00    +0.000 C 
ATOM     11  N   UNL     1      -2.533  14.124  20.281  0.00  0.00    +0.000 N 
ATOM     12  O   UNL     1      -3.995  12.553  20.998  0.00  0.00    +0.000 OA
ATOM     13  H   UNL     1      -1.774  14.420  19.682  0.00  0.00    +0.000 HD
ATOM     14  H   UNL     1      -2.932  14.796  20.922  0.00  0.00    +0.000 HD
ENDBRANCH   5  10
BRANCH   1  15
ATOM     15  C   UNL     1       0.965  10.005  19.669  0.00  0.00    +0.000 C 
BRANCH  15  16
ATOM     16  C   UNL     1       0.845   8.798  20.627  0.00  0.00    +0.000 C 
ATOM     17  C   UNL     1       0.960   9.231  22.093  0.00  0.00    +0.000 C 
BRANCH  16  18
ATOM     18  N   UNL     1       1.888   7.815  20.270  0.00  0.00    +0.000 NA
ATOM     19  H   UNL     1       1.983   7.782  19.254  0.00  0.00    +0.000 HD
BRANCH  18  20
ATOM     20  C   UNL     1       1.635   6.448  20.754  0.00  0.00    +0.000 C 
BRANCH  20  21
ATOM     21  C   UNL     1       2.510   5.378  20.089  0.00  0.00    +0.000 C 
BRANCH  21  22
ATOM     22  O   UNL     1       2.206   5.288  18.703  0.00  0.00    +0.000 OA
BRANCH  22  29
ATOM     23  C   UNL     1       3.707   4.026  17.134  0.00  0.00    +0.000 A 
ATOM     24  C   UNL     1       4.803   4.142  16.267  0.00  0.00    +0.000 A 
ATOM     25  C   UNL     1       5.445   5.368  16.109  0.00  0.00    +0.000 A 
ATOM     26  F   UNL     1       6.484   5.455  15.270  0.00  0.00    +0.000 F 
ATOM     27  C   UNL     1       5.029   6.488  16.803  0.00  0.00    +0.000 A 
ATOM     28  C   UNL     1       3.940   6.393  17.659  0.00  0.00    +0.000 A 
ATOM     29  C   UNL     1       3.263   5.170  17.832  0.00  0.00    +0.000 A 
BRANCH  23  31
ATOM     30  C   UNL     1       3.346   2.026  18.395  0.00  0.00    +0.000 C 
ATOM     31  O   UNL     1       3.023   2.847  17.280  0.00  0.00    +0.000 OA
ENDBRANCH  23  31
ENDBRANCH  22  29
ENDBRANCH  21  22
ENDBRANCH  20  21
ENDBRANCH  18  20
ENDBRANCH  16  18
ENDBRANCH  15  16
ENDBRANCH   1  15
BRANCH   7  32
ATOM     32  C   UNL     1      -5.333  12.235  17.784  0.00  0.00    +0.000 C 
BRANCH  32  33
ATOM     33  C   UNL     1      -6.545  11.308  17.966  0.00  0.00    +0.000 C 
BRANCH  33  34
ATOM     34  C   UNL     1      -6.382  10.281  19.079  0.00  0.00    +0.000 C 
BRANCH  34  35
ATOM     35  O   UNL     1      -7.640   9.780  19.500  0.00  0.00    +0.000 OA
ATOM     36  H   UNL     1      -8.338  10.256  18.996  0.00  0.00    +0.000 HD
ENDBRANCH  34  35
ENDBRANCH  33  34
ENDBRANCH  32  33
ENDBRANCH   7  32
TORSDOF 13
ENDMDL
