MODEL 1
REMARK VINA RESULT:      -7.7      0.000      0.000
REMARK  Name = 
REMARK  8 active torsions:
REMARK  status: ('A' for Active; 'I' for Inactive)
REMARK    1  A    between atoms: C_1  and  N_2
REMARK    2  A    between atoms: N_8  and  C_9
REMARK    3  A    between atoms: C_9  and  C_10
REMARK    4  A    between atoms: N_12  and  C_13
REMARK    5  A    between atoms: C_13  and  C_14
REMARK    6  A    between atoms: C_14  and  C_15
REMARK    7  A    between atoms: C_15  and  O_16
REMARK    8  A    between atoms: O_16  and  C_17
REMARK                            x       y       z     vdW  Elec       q    Type
REMARK                         _______ _______ _______ _____ _____    ______ ____
ROOT
ATOM      1  C   UNL     1       2.363   6.394  19.030  0.00  0.00    +0.000 A 
ATOM      2  N   UNL     1       2.448   5.654  20.095  0.00  0.00    +0.000 NA
ATOM      3  N   UNL     1       1.919   4.463  19.670  0.00  0.00    +0.000 N 
ATOM      4  C   UNL     1       1.600   4.521  18.331  0.00  0.00    +0.000 A 
ATOM      5  O   UNL     1       1.145   3.641  17.620  0.00  0.00    +0.000 OA
ATOM      6  O   UNL     1       1.879   5.790  17.924  0.00  0.00    +0.000 OA
ENDROOT
BRANCH   1   7
ATOM      7  C   UNL     1       2.695   7.854  18.916  0.00  0.00    +0.000 C 
BRANCH   7  15
ATOM      8  C   UNL     1      -0.436  10.176  22.959  0.00  0.00    +0.000 C 
ATOM      9  N   UNL     1      -0.605  10.470  21.558  0.00  0.00    +0.000 N 
ATOM     10  C   UNL     1      -1.515  11.351  21.034  0.00  0.00    +0.000 A 
ATOM     11  N   UNL     1      -1.429  11.412  19.722  0.00  0.00    +0.000 NA
ATOM     12  C   UNL     1      -0.439  10.538  19.398  0.00  0.00    +0.000 A 
ATOM     13  N   UNL     1       0.015  10.258  18.110  0.00  0.00    +0.000 NA
ATOM     14  C   UNL     1       0.966   9.381  18.071  0.00  0.00    +0.000 A 
ATOM     15  N   UNL     1       1.547   8.721  19.144  0.00  0.00    +0.000 N 
ATOM     16  C   UNL     1       1.145   8.982  20.450  0.00  0.00    +0.000 A 
ATOM     17  O   UNL     1       1.657   8.464  21.436  0.00  0.00    +0.000 OA
ATOM     18  C   UNL     1       0.090   9.937  20.508  0.00  0.00    +0.000 A 
ENDBRANCH   7  15
ENDBRANCH   1   7
BRANCH   3  19
ATOM     19  C   UNL     1       1.859   3.261  20.474  0.00  0.00    +0.000 C 
BRANCH  19  20
ATOM     20  C   UNL     1       3.186   2.543  20.705  0.00  0.00    +0.000 C 
BRANCH  20  21
ATOM     21  C   UNL     1       4.056   2.477  19.451  0.00  0.00    +0.000 C 
BRANCH  21  22
ATOM     22  O   UNL     1       5.166   3.363  19.630  0.00  0.00    +0.000 OA
BRANCH  22  23
ATOM     23  C   UNL     1       5.447   4.218  18.598  0.00  0.00    +0.000 A 
ATOM     24  C   UNL     1       4.786   3.938  17.396  0.00  0.00    +0.000 A 
ATOM     25  C   UNL     1       4.983   4.742  16.269  0.00  0.00    +0.000 A 
ATOM     26  C   UNL     1       5.846   5.833  16.338  0.00  0.00    +0.000 A 
ATOM     27  C   UNL     1       6.508   6.109  17.532  0.00  0.00    +0.000 A 
ATOM     28 CL   UNL     1       7.584   7.452  17.618  0.00  0.00    +0.000 Cl
ATOM     29  C   UNL     1       6.311   5.311  18.662  0.00  0.00    +0.000 A 
ENDBRANCH  22  23
ENDBRANCH  21  22
ENDBRANCH  20  21
ENDBRANCH  19  20
ENDBRANCH   3  19
TORSDOF 7
ENDMDL
MODEL 2
REMARK VINA RESULT:      -7.6      0.945      1.282
REMARK  Name = 
REMARK  8 active torsions:
REMARK  status: ('A' for Active; 'I' for Inactive)
REMARK    1  A    between atoms: C_1  and  N_2
REMARK    2  A    between atoms: N_8  and  C_9
REMARK    3  A    between atoms: C_9  and  C_10
REMARK    4  A    between atoms: N_12  and  C_13
REMARK    5  A    between atoms: C_13  and  C_14
REMARK    6  A    between atoms: C_14  and  C_15
REMARK    7  A    between atoms: C_15  and  O_16
REMARK    8  A    between atoms: O_16  and  C_17
REMARK                            x       y       z     vdW  Elec       q    Type
REMARK                         _______ _______ _______ _____ _____    ______ ____
ROOT
ATOM      1  C   UNL     1       2.394   6.406  18.917  0.00  0.00    +0.000 A 
ATOM      2  N   UNL     1       2.394   5.602  19.938  0.00  0.00    +0.000 NA
ATOM      3  N   UNL     1       1.889   4.446  19.402  0.00  0.00    +0.000 N 
ATOM      4  C   UNL     1       1.671   4.589  18.049  0.00  0.00    +0.000 A 
ATOM      5  O   UNL     1       1.265   3.759  17.254  0.00  0.00    +0.000 OA
ATOM      6  O   UNL     1       1.989   5.877  17.744  0.00  0.00    +0.000 OA
ENDROOT
BRANCH   1   7
ATOM      7  C   UNL     1       2.744   7.867  18.918  0.00  0.00    +0.000 C 
BRANCH   7  15
ATOM      8  C   UNL     1      -0.460  10.253  22.866  0.00  0.00    +0.000 C 
ATOM      9  N   UNL     1      -0.609  10.517  21.458  0.00  0.00    +0.000 N 
ATOM     10  C   UNL     1      -1.515  11.383  20.903  0.00  0.00    +0.000 A 
ATOM     11  N   UNL     1      -1.410  11.418  19.591  0.00  0.00    +0.000 NA
ATOM     12  C   UNL     1      -0.410  10.542  19.299  0.00  0.00    +0.000 A 
ATOM     13  N   UNL     1       0.064  10.239  18.025  0.00  0.00    +0.000 NA
ATOM     14  C   UNL     1       1.020   9.367  18.017  0.00  0.00    +0.000 A 
ATOM     15  N   UNL     1       1.588   8.732  19.112  0.00  0.00    +0.000 N 
ATOM     16  C   UNL     1       1.165   9.017  20.406  0.00  0.00    +0.000 A 
ATOM     17  O   UNL     1       1.665   8.521  21.410  0.00  0.00    +0.000 OA
ATOM     18  C   UNL     1       0.104   9.967  20.429  0.00  0.00    +0.000 A 
ENDBRANCH   7  15
ENDBRANCH   1   7
BRANCH   3  19
ATOM     19  C   UNL     1       1.760   3.198  20.124  0.00  0.00    +0.000 C 
BRANCH  19  20
ATOM     20  C   UNL     1       3.067   2.538  20.559  0.00  0.00    +0.000 C 
BRANCH  20  21
ATOM     21  C   UNL     1       4.075   2.402  19.421  0.00  0.00    +0.000 C 
BRANCH  21  22
ATOM     22  O   UNL     1       5.103   3.379  19.615  0.00  0.00    +0.000 OA
BRANCH  22  23
ATOM     23  C   UNL     1       5.403   4.183  18.548  0.00  0.00    +0.000 A 
ATOM     24  C   UNL     1       5.975   5.418  18.876  0.00  0.00    +0.000 A 
ATOM     25  C   UNL     1       6.334   6.326  17.875  0.00  0.00    +0.000 A 
ATOM     26  C   UNL     1       6.120   6.004  16.536  0.00  0.00    +0.000 A 
ATOM     27  C   UNL     1       5.545   4.778  16.210  0.00  0.00    +0.000 A 
ATOM     28 CL   UNL     1       5.270   4.379  14.557  0.00  0.00    +0.000 Cl
ATOM     29  C   UNL     1       5.189   3.865  17.206  0.00  0.00    +0.000 A 
ENDBRANCH  22  23
ENDBRANCH  21  22
ENDBRANCH  20  21
ENDBRANCH  19  20
ENDBRANCH   3  19
TORSDOF 7
ENDMDL
MODEL 3
REMARK VINA RESULT:      -7.5      1.735      2.531
REMARK  Name = 
REMARK  8 active torsions:
REMARK  status: ('A' for Active; 'I' for Inactive)
REMARK    1  A    between atoms: C_1  and  N_2
REMARK    2  A    between atoms: N_8  and  C_9
REMARK    3  A    between atoms: C_9  and  C_10
REMARK    4  A    between atoms: N_12  and  C_13
REMARK    5  A    between atoms: C_13  and  C_14
REMARK    6  A    between atoms: C_14  and  C_15
REMARK    7  A    between atoms: C_15  and  O_16
REMARK    8  A    between atoms: O_16  and  C_17
REMARK                            x       y       z     vdW  Elec       q    Type
REMARK                         _______ _______ _______ _____ _____    ______ ____
ROOT
ATOM      1  C   UNL     1       2.095   5.953  19.870  0.00  0.00    +0.000 A 
ATOM      2  N   UNL     1       1.442   5.114  19.123  0.00  0.00    +0.000 NA
ATOM      3  N   UNL     1       1.451   3.974  19.884  0.00  0.00    +0.000 N 
ATOM      4  C   UNL     1       2.057   4.202  21.099  0.00  0.00    +0.000 A 
ATOM      5  O   UNL     1       2.208   3.429  22.029  0.00  0.00    +0.000 OA
ATOM      6  O   UNL     1       2.489   5.494  21.076  0.00  0.00    +0.000 OA
ENDROOT
BRANCH   1   7
ATOM      7  C   UNL     1       2.502   7.354  19.512  0.00  0.00    +0.000 C 
BRANCH   7  15
ATOM      8  C   UNL     1      -0.760  11.796  18.435  0.00  0.00    +0.000 C 
ATOM      9  N   UNL     1      -0.598  11.232  19.751  0.00  0.00    +0.000 N 
ATOM     10  C   UNL     1      -1.220  11.677  20.889  0.00  0.00    +0.000 A 
ATOM     11  N   UNL     1      -0.879  10.958  21.938  0.00  0.00    +0.000 NA
ATOM     12  C   UNL     1      -0.008  10.031  21.457  0.00  0.00    +0.000 A 
ATOM     13  N   UNL     1       0.627   9.040  22.203  0.00  0.00    +0.000 NA
ATOM     14  C   UNL     1       1.415   8.286  21.507  0.00  0.00    +0.000 A 
ATOM     15  N   UNL     1       1.677   8.371  20.147  0.00  0.00    +0.000 N 
ATOM     16  C   UNL     1       1.051   9.328  19.355  0.00  0.00    +0.000 A 
ATOM     17  O   UNL     1       1.210   9.416  18.142  0.00  0.00    +0.000 OA
ATOM     18  C   UNL     1       0.190  10.174  20.110  0.00  0.00    +0.000 A 
ENDBRANCH   7  15
ENDBRANCH   1   7
BRANCH   3  19
ATOM     19  C   UNL     1       0.771   2.747  19.526  0.00  0.00    +0.000 C 
BRANCH  19  20
ATOM     20  C   UNL     1       1.618   1.696  18.811  0.00  0.00    +0.000 C 
BRANCH  20  21
ATOM     21  C   UNL     1       2.480   2.282  17.695  0.00  0.00    +0.000 C 
BRANCH  21  22
ATOM     22  O   UNL     1       3.826   2.376  18.171  0.00  0.00    +0.000 OA
BRANCH  22  23
ATOM     23  C   UNL     1       4.447   3.589  18.041  0.00  0.00    +0.000 A 
ATOM     24  C   UNL     1       5.171   4.011  19.162  0.00  0.00    +0.000 A 
ATOM     25  C   UNL     1       5.856   5.230  19.153  0.00  0.00    +0.000 A 
ATOM     26  C   UNL     1       5.819   6.037  18.018  0.00  0.00    +0.000 A 
ATOM     27  C   UNL     1       5.094   5.620  16.903  0.00  0.00    +0.000 A 
ATOM     28 CL   UNL     1       5.037   6.620  15.502  0.00  0.00    +0.000 Cl
ATOM     29  C   UNL     1       4.412   4.402  16.907  0.00  0.00    +0.000 A 
ENDBRANCH  22  23
ENDBRANCH  21  22
ENDBRANCH  20  21
ENDBRANCH  19  20
ENDBRANCH   3  19
TORSDOF 7
ENDMDL
MODEL 4
REMARK VINA RESULT:      -7.5      1.439      1.678
REMARK  Name = 
REMARK  8 active torsions:
REMARK  status: ('A' for Active; 'I' for Inactive)
REMARK    1  A    between atoms: C_1  and  N_2
REMARK    2  A    between atoms: N_8  and  C_9
REMARK    3  A    between atoms: C_9  and  C_10
REMARK    4  A    between atoms: N_12  and  C_13
REMARK    5  A    between atoms: C_13  and  C_14
REMARK    6  A    between atoms: C_14  and  C_15
REMARK    7  A    between atoms: C_15  and  O_16
REMARK    8  A    between atoms: O_16  and  C_17
REMARK                            x       y       z     vdW  Elec       q    Type
REMARK                         _______ _______ _______ _____ _____    ______ ____
ROOT
ATOM      1  C   UNL     1       2.264   5.936  19.741  0.00  0.00    +0.000 A 
ATOM      2  N   UNL     1       2.020   5.212  18.690  0.00  0.00    +0.000 NA
ATOM      3  N   UNL     1       1.677   4.003  19.239  0.00  0.00    +0.000 N 
ATOM      4  C   UNL     1       1.664   4.078  20.614  0.00  0.00    +0.000 A 
ATOM      5  O   UNL     1       1.372   3.209  21.419  0.00  0.00    +0.000 OA
ATOM      6  O   UNL     1       2.063   5.339  20.934  0.00  0.00    +0.000 OA
ENDROOT
BRANCH   1   7
ATOM      7  C   UNL     1       2.795   7.341  19.765  0.00  0.00    +0.000 C 
BRANCH   7  15
ATOM      8  C   UNL     1      -0.785  10.470  22.753  0.00  0.00    +0.000 C 
ATOM      9  N   UNL     1      -0.611  10.606  21.329  0.00  0.00    +0.000 N 
ATOM     10  C   UNL     1      -1.262  11.511  20.531  0.00  0.00    +0.000 A 
ATOM     11  N   UNL     1      -0.891  11.401  19.273  0.00  0.00    +0.000 NA
ATOM     12  C   UNL     1       0.020  10.390  19.266  0.00  0.00    +0.000 A 
ATOM     13  N   UNL     1       0.696   9.907  18.148  0.00  0.00    +0.000 NA
ATOM     14  C   UNL     1       1.507   8.933  18.409  0.00  0.00    +0.000 A 
ATOM     15  N   UNL     1       1.752   8.350  19.643  0.00  0.00    +0.000 N 
ATOM     16  C   UNL     1       1.120   8.811  20.793  0.00  0.00    +0.000 A 
ATOM     17  O   UNL     1       1.336   8.365  21.914  0.00  0.00    +0.000 OA
ATOM     18  C   UNL     1       0.214   9.876  20.519  0.00  0.00    +0.000 A 
ENDBRANCH   7  15
ENDBRANCH   1   7
BRANCH   3  19
ATOM     19  C   UNL     1       1.230   2.856  18.478  0.00  0.00    +0.000 C 
BRANCH  19  20
ATOM     20  C   UNL     1       2.322   2.051  17.777  0.00  0.00    +0.000 C 
BRANCH  20  21
ATOM     21  C   UNL     1       3.731   2.513  18.141  0.00  0.00    +0.000 C 
BRANCH  21  22
ATOM     22  O   UNL     1       4.287   3.187  17.006  0.00  0.00    +0.000 OA
BRANCH  22  23
ATOM     23  C   UNL     1       5.038   4.303  17.256  0.00  0.00    +0.000 A 
ATOM     24  C   UNL     1       4.764   5.401  16.431  0.00  0.00    +0.000 A 
ATOM     25  C   UNL     1       5.458   6.604  16.590  0.00  0.00    +0.000 A 
ATOM     26  C   UNL     1       6.436   6.716  17.577  0.00  0.00    +0.000 A 
ATOM     27  C   UNL     1       6.713   5.623  18.394  0.00  0.00    +0.000 A 
ATOM     28 CL   UNL     1       7.927   5.753  19.609  0.00  0.00    +0.000 Cl
ATOM     29  C   UNL     1       6.019   4.420  18.242  0.00  0.00    +0.000 A 
ENDBRANCH  22  23
ENDBRANCH  21  22
ENDBRANCH  20  21
ENDBRANCH  19  20
ENDBRANCH   3  19
TORSDOF 7
ENDMDL
MODEL 5
REMARK VINA RESULT:      -7.4      3.680      8.472
REMARK  Name = 
REMARK  8 active torsions:
REMARK  status: ('A' for Active; 'I' for Inactive)
REMARK    1  A    between atoms: C_1  and  N_2
REMARK    2  A    between atoms: N_8  and  C_9
REMARK    3  A    between atoms: C_9  and  C_10
REMARK    4  A    between atoms: N_12  and  C_13
REMARK    5  A    between atoms: C_13  and  C_14
REMARK    6  A    between atoms: C_14  and  C_15
REMARK    7  A    between atoms: C_15  and  O_16
REMARK    8  A    between atoms: O_16  and  C_17
REMARK                            x       y       z     vdW  Elec       q    Type
REMARK                         _______ _______ _______ _____ _____    ______ ____
ROOT
ATOM      1  C   UNL     1       2.294   6.102  19.595  0.00  0.00    +0.000 A 
ATOM      2  N   UNL     1       1.823   6.600  20.699  0.00  0.00    +0.000 NA
ATOM      3  N   UNL     1       1.682   7.928  20.386  0.00  0.00    +0.000 N 
ATOM      4  C   UNL     1       2.015   8.157  19.069  0.00  0.00    +0.000 A 
ATOM      5  O   UNL     1       1.975   9.205  18.447  0.00  0.00    +0.000 OA
ATOM      6  O   UNL     1       2.429   6.962  18.564  0.00  0.00    +0.000 OA
ENDROOT
BRANCH   1   7
ATOM      7  C   UNL     1       2.753   4.690  19.367  0.00  0.00    +0.000 C 
BRANCH   7  15
ATOM      8  C   UNL     1       5.397   4.022  14.458  0.00  0.00    +0.000 C 
ATOM      9  N   UNL     1       6.081   4.310  15.693  0.00  0.00    +0.000 N 
ATOM     10  C   UNL     1       7.434   4.479  15.833  0.00  0.00    +0.000 A 
ATOM     11  N   UNL     1       7.762   4.738  17.081  0.00  0.00    +0.000 NA
ATOM     12  C   UNL     1       6.583   4.727  17.760  0.00  0.00    +0.000 A 
ATOM     13  N   UNL     1       6.425   4.952  19.126  0.00  0.00    +0.000 NA
ATOM     14  C   UNL     1       5.197   4.880  19.528  0.00  0.00    +0.000 A 
ATOM     15  N   UNL     1       4.075   4.609  18.760  0.00  0.00    +0.000 N 
ATOM     16  C   UNL     1       4.178   4.400  17.388  0.00  0.00    +0.000 A 
ATOM     17  O   UNL     1       3.214   4.204  16.656  0.00  0.00    +0.000 OA
ATOM     18  C   UNL     1       5.526   4.464  16.933  0.00  0.00    +0.000 A 
ENDBRANCH   7  15
ENDBRANCH   1   7
BRANCH   3  19
ATOM     19  C   UNL     1       1.106   8.920  21.268  0.00  0.00    +0.000 C 
BRANCH  19  20
ATOM     20  C   UNL     1      -0.333   9.331  20.965  0.00  0.00    +0.000 C 
BRANCH  20  21
ATOM     21  C   UNL     1      -0.494  10.837  20.766  0.00  0.00    +0.000 C 
BRANCH  21  22
ATOM     22  O   UNL     1      -0.357  11.120  19.369  0.00  0.00    +0.000 OA
BRANCH  22  23
ATOM     23  C   UNL     1      -1.479  10.987  18.597  0.00  0.00    +0.000 A 
ATOM     24  C   UNL     1      -1.353  10.114  17.510  0.00  0.00    +0.000 A 
ATOM     25  C   UNL     1      -2.431   9.886  16.649  0.00  0.00    +0.000 A 
ATOM     26  C   UNL     1      -3.645  10.534  16.870  0.00  0.00    +0.000 A 
ATOM     27  C   UNL     1      -3.769  11.406  17.949  0.00  0.00    +0.000 A 
ATOM     28 CL   UNL     1      -5.265  12.216  18.221  0.00  0.00    +0.000 Cl
ATOM     29  C   UNL     1      -2.697  11.633  18.814  0.00  0.00    +0.000 A 
ENDBRANCH  22  23
ENDBRANCH  21  22
ENDBRANCH  20  21
ENDBRANCH  19  20
ENDBRANCH   3  19
TORSDOF 7
ENDMDL
MODEL 6
REMARK VINA RESULT:      -7.4      3.466      7.149
REMARK  Name = 
REMARK  8 active torsions:
REMARK  status: ('A' for Active; 'I' for Inactive)
REMARK    1  A    between atoms: C_1  and  N_2
REMARK    2  A    between atoms: N_8  and  C_9
REMARK    3  A    between atoms: C_9  and  C_10
REMARK    4  A    between atoms: N_12  and  C_13
REMARK    5  A    between atoms: C_13  and  C_14
REMARK    6  A    between atoms: C_14  and  C_15
REMARK    7  A    between atoms: C_15  and  O_16
REMARK    8  A    between atoms: O_16  and  C_17
REMARK                            x       y       z     vdW  Elec       q    Type
REMARK                         _______ _______ _______ _____ _____    ______ ____
ROOT
ATOM      1  C   UNL     1       3.116   3.468  17.738  0.00  0.00    +0.000 A 
ATOM      2  N   UNL     1       2.901   4.227  18.771  0.00  0.00    +0.000 NA
ATOM      3  N   UNL     1       1.655   3.824  19.177  0.00  0.00    +0.000 N 
ATOM      4  C   UNL     1       1.202   2.781  18.402  0.00  0.00    +0.000 A 
ATOM      5  O   UNL     1       0.158   2.158  18.502  0.00  0.00    +0.000 OA
ATOM      6  O   UNL     1       2.155   2.564  17.454  0.00  0.00    +0.000 OA
ENDROOT
BRANCH   1   7
ATOM      7  C   UNL     1       4.288   3.529  16.802  0.00  0.00    +0.000 C 
BRANCH   7  15
ATOM      8  C   UNL     1       8.344   5.762  19.981  0.00  0.00    +0.000 C 
ATOM      9  N   UNL     1       7.816   6.404  18.804  0.00  0.00    +0.000 N 
ATOM     10  C   UNL     1       8.237   7.606  18.297  0.00  0.00    +0.000 A 
ATOM     11  N   UNL     1       7.571   7.931  17.209  0.00  0.00    +0.000 NA
ATOM     12  C   UNL     1       6.694   6.908  17.019  0.00  0.00    +0.000 A 
ATOM     13  N   UNL     1       5.770   6.807  15.981  0.00  0.00    +0.000 NA
ATOM     14  C   UNL     1       5.046   5.735  16.030  0.00  0.00    +0.000 A 
ATOM     15  N   UNL     1       5.101   4.725  16.979  0.00  0.00    +0.000 N 
ATOM     16  C   UNL     1       6.022   4.769  18.021  0.00  0.00    +0.000 A 
ATOM     17  O   UNL     1       6.146   3.881  18.858  0.00  0.00    +0.000 OA
ATOM     18  C   UNL     1       6.818   5.949  17.987  0.00  0.00    +0.000 A 
ENDBRANCH   7  15
ENDBRANCH   1   7
BRANCH   3  19
ATOM     19  C   UNL     1       0.981   4.317  20.360  0.00  0.00    +0.000 C 
BRANCH  19  20
ATOM     20  C   UNL     1       1.614   5.533  21.033  0.00  0.00    +0.000 C 
BRANCH  20  21
ATOM     21  C   UNL     1       1.110   6.859  20.466  0.00  0.00    +0.000 C 
BRANCH  21  22
ATOM     22  O   UNL     1       1.603   7.916  21.295  0.00  0.00    +0.000 OA
BRANCH  22  23
ATOM     23  C   UNL     1       0.791   9.006  21.457  0.00  0.00    +0.000 A 
ATOM     24  C   UNL     1       0.261   9.167  22.743  0.00  0.00    +0.000 A 
ATOM     25  C   UNL     1      -0.578  10.246  23.039  0.00  0.00    +0.000 A 
ATOM     26  C   UNL     1      -0.895  11.171  22.047  0.00  0.00    +0.000 A 
ATOM     27  C   UNL     1      -0.372  11.008  20.766  0.00  0.00    +0.000 A 
ATOM     28 CL   UNL     1      -0.770  12.144  19.534  0.00  0.00    +0.000 Cl
ATOM     29  C   UNL     1       0.470   9.934  20.467  0.00  0.00    +0.000 A 
ENDBRANCH  22  23
ENDBRANCH  21  22
ENDBRANCH  20  21
ENDBRANCH  19  20
ENDBRANCH   3  19
TORSDOF 7
ENDMDL
MODEL 7
REMARK VINA RESULT:      -7.4      5.444      7.951
REMARK  Name = 
REMARK  8 active torsions:
REMARK  status: ('A' for Active; 'I' for Inactive)
REMARK    1  A    between atoms: C_1  and  N_2
REMARK    2  A    between atoms: N_8  and  C_9
REMARK    3  A    between atoms: C_9  and  C_10
REMARK    4  A    between atoms: N_12  and  C_13
REMARK    5  A    between atoms: C_13  and  C_14
REMARK    6  A    between atoms: C_14  and  C_15
REMARK    7  A    between atoms: C_15  and  O_16
REMARK    8  A    between atoms: O_16  and  C_17
REMARK                            x       y       z     vdW  Elec       q    Type
REMARK                         _______ _______ _______ _____ _____    ______ ____
ROOT
ATOM      1  C   UNL     1       5.989   6.326  17.326  0.00  0.00    +0.000 A 
ATOM      2  N   UNL     1       6.588   7.475  17.221  0.00  0.00    +0.000 NA
ATOM      3  N   UNL     1       7.628   7.346  18.105  0.00  0.00    +0.000 N 
ATOM      4  C   UNL     1       7.647   6.084  18.656  0.00  0.00    +0.000 A 
ATOM      5  O   UNL     1       8.447   5.614  19.448  0.00  0.00    +0.000 OA
ATOM      6  O   UNL     1       6.565   5.429  18.154  0.00  0.00    +0.000 OA
ENDROOT
BRANCH   1   7
ATOM      7  C   UNL     1       4.703   5.915  16.668  0.00  0.00    +0.000 C 
BRANCH   7  15
ATOM      8  C   UNL     1       1.732   1.625  18.742  0.00  0.00    +0.000 C 
ATOM      9  N   UNL     1       1.639   2.972  19.247  0.00  0.00    +0.000 N 
ATOM     10  C   UNL     1       0.849   3.376  20.292  0.00  0.00    +0.000 A 
ATOM     11  N   UNL     1       0.981   4.664  20.527  0.00  0.00    +0.000 NA
ATOM     12  C   UNL     1       1.877   5.097  19.599  0.00  0.00    +0.000 A 
ATOM     13  N   UNL     1       2.335   6.405  19.453  0.00  0.00    +0.000 NA
ATOM     14  C   UNL     1       3.182   6.556  18.487  0.00  0.00    +0.000 A 
ATOM     15  N   UNL     1       3.654   5.581  17.621  0.00  0.00    +0.000 N 
ATOM     16  C   UNL     1       3.244   4.257  17.740  0.00  0.00    +0.000 A 
ATOM     17  O   UNL     1       3.665   3.348  17.032  0.00  0.00    +0.000 OA
ATOM     18  C   UNL     1       2.301   4.077  18.792  0.00  0.00    +0.000 A 
ENDBRANCH   7  15
ENDBRANCH   1   7
BRANCH   3  19
ATOM     19  C   UNL     1       8.659   8.342  18.306  0.00  0.00    +0.000 C 
BRANCH  19  20
ATOM     20  C   UNL     1       8.236   9.794  18.096  0.00  0.00    +0.000 C 
BRANCH  20  21
ATOM     21  C   UNL     1       9.375  10.787  18.323  0.00  0.00    +0.000 C 
BRANCH  21  22
ATOM     22  O   UNL     1       8.999  12.039  17.741  0.00  0.00    +0.000 OA
BRANCH  22  23
ATOM     23  C   UNL     1       9.970  13.001  17.663  0.00  0.00    +0.000 A 
ATOM     24  C   UNL     1      11.222  12.548  17.228  0.00  0.00    +0.000 A 
ATOM     25  C   UNL     1      12.295  13.435  17.099  0.00  0.00    +0.000 A 
ATOM     26  C   UNL     1      12.123  14.783  17.406  0.00  0.00    +0.000 A 
ATOM     27  C   UNL     1      10.879  15.233  17.843  0.00  0.00    +0.000 A 
ATOM     28 CL   UNL     1      10.665  16.897  18.233  0.00  0.00    +0.000 Cl
ATOM     29  C   UNL     1       9.803  14.352  17.970  0.00  0.00    +0.000 A 
ENDBRANCH  22  23
ENDBRANCH  21  22
ENDBRANCH  20  21
ENDBRANCH  19  20
ENDBRANCH   3  19
TORSDOF 7
ENDMDL
MODEL 8
REMARK VINA RESULT:      -7.3      3.072      3.846
REMARK  Name = 
REMARK  8 active torsions:
REMARK  status: ('A' for Active; 'I' for Inactive)
REMARK    1  A    between atoms: C_1  and  N_2
REMARK    2  A    between atoms: N_8  and  C_9
REMARK    3  A    between atoms: C_9  and  C_10
REMARK    4  A    between atoms: N_12  and  C_13
REMARK    5  A    between atoms: C_13  and  C_14
REMARK    6  A    between atoms: C_14  and  C_15
REMARK    7  A    between atoms: C_15  and  O_16
REMARK    8  A    between atoms: O_16  and  C_17
REMARK                            x       y       z     vdW  Elec       q    Type
REMARK                         _______ _______ _______ _____ _____    ______ ____
ROOT
ATOM      1  C   UNL     1       1.585   9.202  18.547  0.00  0.00    +0.000 A 
ATOM      2  N   UNL     1       1.568   8.275  19.459  0.00  0.00    +0.000 NA
ATOM      3  N   UNL     1       2.459   7.359  18.964  0.00  0.00    +0.000 N 
ATOM      4  C   UNL     1       3.030   7.813  17.796  0.00  0.00    +0.000 A 
ATOM      5  O   UNL     1       3.882   7.277  17.108  0.00  0.00    +0.000 OA
ATOM      6  O   UNL     1       2.443   9.011  17.522  0.00  0.00    +0.000 OA
ENDROOT
BRANCH   1   7
ATOM      7  C   UNL     1       0.718  10.426  18.487  0.00  0.00    +0.000 C 
BRANCH   7  15
ATOM      8  C   UNL     1       3.961  14.976  19.051  0.00  0.00    +0.000 C 
ATOM      9  N   UNL     1       3.044  14.525  20.067  0.00  0.00    +0.000 N 
ATOM     10  C   UNL     1       2.826  15.142  21.272  0.00  0.00    +0.000 A 
ATOM     11  N   UNL     1       1.926  14.500  21.987  0.00  0.00    +0.000 NA
ATOM     12  C   UNL     1       1.564  13.437  21.220  0.00  0.00    +0.000 A 
ATOM     13  N   UNL     1       0.629  12.463  21.561  0.00  0.00    +0.000 NA
ATOM     14  C   UNL     1       0.470  11.551  20.656  0.00  0.00    +0.000 A 
ATOM     15  N   UNL     1       1.117  11.458  19.433  0.00  0.00    +0.000 N 
ATOM     16  C   UNL     1       2.042  12.418  19.036  0.00  0.00    +0.000 A 
ATOM     17  O   UNL     1       2.607  12.410  17.948  0.00  0.00    +0.000 OA
ATOM     18  C   UNL     1       2.237  13.422  20.028  0.00  0.00    +0.000 A 
ENDBRANCH   7  15
ENDBRANCH   1   7
BRANCH   3  19
ATOM     19  C   UNL     1       2.864   6.155  19.658  0.00  0.00    +0.000 C 
BRANCH  19  20
ATOM     20  C   UNL     1       2.039   4.904  19.368  0.00  0.00    +0.000 C 
BRANCH  20  21
ATOM     21  C   UNL     1       2.716   3.958  18.379  0.00  0.00    +0.000 C 
BRANCH  21  22
ATOM     22  O   UNL     1       4.088   3.819  18.761  0.00  0.00    +0.000 OA
BRANCH  22  23
ATOM     23  C   UNL     1       5.028   4.092  17.804  0.00  0.00    +0.000 A 
ATOM     24  C   UNL     1       6.249   4.574  18.290  0.00  0.00    +0.000 A 
ATOM     25  C   UNL     1       7.294   4.884  17.413  0.00  0.00    +0.000 A 
ATOM     26  C   UNL     1       7.122   4.714  16.041  0.00  0.00    +0.000 A 
ATOM     27  C   UNL     1       5.905   4.238  15.557  0.00  0.00    +0.000 A 
ATOM     28 CL   UNL     1       5.685   4.036  13.860  0.00  0.00    +0.000 Cl
ATOM     29  C   UNL     1       4.860   3.924  16.429  0.00  0.00    +0.000 A 
ENDBRANCH  22  23
ENDBRANCH  21  22
ENDBRANCH  20  21
ENDBRANCH  19  20
ENDBRANCH   3  19
TORSDOF 7
ENDMDL
MODEL 9
REMARK VINA RESULT:      -7.2      3.547      8.551
REMARK  Name = 
REMARK  8 active torsions:
REMARK  status: ('A' for Active; 'I' for Inactive)
REMARK    1  A    between atoms: C_1  and  N_2
REMARK    2  A    between atoms: N_8  and  C_9
REMARK    3  A    between atoms: C_9  and  C_10
REMARK    4  A    between atoms: N_12  and  C_13
REMARK    5  A    between atoms: C_13  and  C_14
REMARK    6  A    between atoms: C_14  and  C_15
REMARK    7  A    between atoms: C_15  and  O_16
REMARK    8  A    between atoms: O_16  and  C_17
REMARK                            x       y       z     vdW  Elec       q    Type
REMARK                         _______ _______ _______ _____ _____    ______ ____
ROOT
ATOM      1  C   UNL     1       2.357   6.454  19.368  0.00  0.00    +0.000 A 
ATOM      2  N   UNL     1       1.905   7.159  20.362  0.00  0.00    +0.000 NA
ATOM      3  N   UNL     1       1.748   8.398  19.796  0.00  0.00    +0.000 N 
ATOM      4  C   UNL     1       2.052   8.365  18.453  0.00  0.00    +0.000 A 
ATOM      5  O   UNL     1       1.991   9.269  17.638  0.00  0.00    +0.000 OA
ATOM      6  O   UNL     1       2.463   7.095  18.185  0.00  0.00    +0.000 OA
ENDROOT
BRANCH   1   7
ATOM      7  C   UNL     1       2.821   5.027  19.412  0.00  0.00    +0.000 C 
BRANCH   7  15
ATOM      8  C   UNL     1       5.413   3.838  14.574  0.00  0.00    +0.000 C 
ATOM      9  N   UNL     1       6.114   4.192  15.782  0.00  0.00    +0.000 N 
ATOM     10  C   UNL     1       7.474   4.307  15.908  0.00  0.00    +0.000 A 
ATOM     11  N   UNL     1       7.819   4.650  17.131  0.00  0.00    +0.000 NA
ATOM     12  C   UNL     1       6.643   4.750  17.809  0.00  0.00    +0.000 A 
ATOM     13  N   UNL     1       6.500   5.092  19.152  0.00  0.00    +0.000 NA
ATOM     14  C   UNL     1       5.272   5.112  19.558  0.00  0.00    +0.000 A 
ATOM     15  N   UNL     1       4.135   4.834  18.814  0.00  0.00    +0.000 N 
ATOM     16  C   UNL     1       4.223   4.509  17.464  0.00  0.00    +0.000 A 
ATOM     17  O   UNL     1       3.248   4.301  16.749  0.00  0.00    +0.000 OA
ATOM     18  C   UNL     1       5.571   4.472  17.005  0.00  0.00    +0.000 A 
ENDBRANCH   7  15
ENDBRANCH   1   7
BRANCH   3  19
ATOM     19  C   UNL     1       1.183   9.543  20.479  0.00  0.00    +0.000 C 
BRANCH  19  20
ATOM     20  C   UNL     1      -0.322   9.498  20.729  0.00  0.00    +0.000 C 
BRANCH  20  21
ATOM     21  C   UNL     1      -1.037  10.780  20.305  0.00  0.00    +0.000 C 
BRANCH  21  22
ATOM     22  O   UNL     1      -0.785  10.993  18.913  0.00  0.00    +0.000 OA
BRANCH  22  23
ATOM     23  C   UNL     1      -1.872  11.000  18.081  0.00  0.00    +0.000 A 
ATOM     24  C   UNL     1      -3.041  11.535  18.634  0.00  0.00    +0.000 A 
ATOM     25  C   UNL     1      -4.219  11.606  17.884  0.00  0.00    +0.000 A 
ATOM     26  C   UNL     1      -4.234  11.137  16.571  0.00  0.00    +0.000 A 
ATOM     27  C   UNL     1      -3.072  10.600  16.022  0.00  0.00    +0.000 A 
ATOM     28 CL   UNL     1      -3.089  10.011  14.403  0.00  0.00    +0.000 Cl
ATOM     29  C   UNL     1      -1.892  10.532  16.767  0.00  0.00    +0.000 A 
ENDBRANCH  22  23
ENDBRANCH  21  22
ENDBRANCH  20  21
ENDBRANCH  19  20
ENDBRANCH   3  19
TORSDOF 7
ENDMDL
