MODEL 1
REMARK VINA RESULT:      -7.0      0.000      0.000
REMARK  Name = 
REMARK  4 active torsions:
REMARK  status: ('A' for Active; 'I' for Inactive)
REMARK    1  A    between atoms: C_1  and  C_2
REMARK    2  A    between atoms: C_2  and  C_3
REMARK    3  A    between atoms: C_8  and  N_9
REMARK    4  A    between atoms: C_10  and  C_12
REMARK                            x       y       z     vdW  Elec       q    Type
REMARK                         _______ _______ _______ _____ _____    ______ ____
ROOT
ATOM      1  N   UNL     1       2.794   7.238  18.874  0.00  0.00    +0.000 N 
ATOM      2  C   UNL     1       2.096   8.328  18.379  0.00  0.00    +0.000 C 
ATOM      3  O   UNL     1       1.939   8.603  17.190  0.00  0.00    +0.000 OA
ATOM      4  H   UNL     1       2.900   7.182  19.885  0.00  0.00    +0.000 HD
ENDROOT
BRANCH   2   5
ATOM      5  C   UNL     1       1.472   9.225  19.395  0.00  0.00    +0.000 A 
ATOM      6  C   UNL     1       1.201  10.495  19.042  0.00  0.00    +0.000 A 
ATOM      7  N   UNL     1       0.501  11.409  19.792  0.00  0.00    +0.000 NA
ATOM      8  C   UNL     1       0.021  10.965  20.900  0.00  0.00    +0.000 A 
ATOM      9  N   UNL     1       0.233   9.711  21.402  0.00  0.00    +0.000 N 
ATOM     10  C   UNL     1       1.017   8.801  20.736  0.00  0.00    +0.000 A 
ATOM     11  O   UNL     1       1.319   7.698  21.191  0.00  0.00    +0.000 OA
ATOM     12  C   UNL     1      -0.470   9.379  22.616  0.00  0.00    +0.000 C 
ATOM     13  C   UNL     1      -1.129  10.619  23.193  0.00  0.00    +0.000 C 
ATOM     14  S   UNL     1      -0.999  11.910  21.933  0.00  0.00    +0.000 S 
ENDBRANCH   2   5
BRANCH   1  20
ATOM     15  C   UNL     1       2.738   4.886  18.105  0.00  0.00    +0.000 A 
ATOM     16  C   UNL     1       3.329   3.869  17.322  0.00  0.00    +0.000 A 
ATOM     17  C   UNL     1       4.479   4.091  16.568  0.00  0.00    +0.000 A 
ATOM     18  C   UNL     1       5.065   5.343  16.570  0.00  0.00    +0.000 A 
ATOM     19  C   UNL     1       4.502   6.366  17.331  0.00  0.00    +0.000 A 
ATOM     20  C   UNL     1       3.350   6.169  18.111  0.00  0.00    +0.000 A 
BRANCH  15  22
ATOM     21  C   UNL     1       1.670   3.825  20.231  0.00  0.00    +0.000 C 
ATOM     22  C   UNL     1       1.487   4.589  18.915  0.00  0.00    +0.000 C 
ENDBRANCH  15  22
ENDBRANCH   1  20
TORSDOF 3
ENDMDL
MODEL 2
REMARK VINA RESULT:      -6.9      1.912      3.638
REMARK  Name = 
REMARK  4 active torsions:
REMARK  status: ('A' for Active; 'I' for Inactive)
REMARK    1  A    between atoms: C_1  and  C_2
REMARK    2  A    between atoms: C_2  and  C_3
REMARK    3  A    between atoms: C_8  and  N_9
REMARK    4  A    between atoms: C_10  and  C_12
REMARK                            x       y       z     vdW  Elec       q    Type
REMARK                         _______ _______ _______ _____ _____    ______ ____
ROOT
ATOM      1  N   UNL     1       3.781   6.447  17.503  0.00  0.00    +0.000 N 
ATOM      2  C   UNL     1       3.391   6.365  18.830  0.00  0.00    +0.000 C 
ATOM      3  O   UNL     1       3.820   5.561  19.658  0.00  0.00    +0.000 OA
ATOM      4  H   UNL     1       3.284   7.118  16.919  0.00  0.00    +0.000 HD
ENDROOT
BRANCH   2   5
ATOM      5  C   UNL     1       2.374   7.361  19.279  0.00  0.00    +0.000 A 
ATOM      6  C   UNL     1       1.834   7.211  20.503  0.00  0.00    +0.000 A 
ATOM      7  N   UNL     1       1.002   8.104  21.132  0.00  0.00    +0.000 NA
ATOM      8  C   UNL     1       0.786   9.202  20.497  0.00  0.00    +0.000 A 
ATOM      9  N   UNL     1       1.244   9.487  19.241  0.00  0.00    +0.000 N 
ATOM     10  C   UNL     1       1.990   8.576  18.531  0.00  0.00    +0.000 A 
ATOM     11  O   UNL     1       2.341   8.744  17.364  0.00  0.00    +0.000 OA
ATOM     12  C   UNL     1       0.970  10.811  18.743  0.00  0.00    +0.000 C 
ATOM     13  C   UNL     1       0.009  11.530  19.673  0.00  0.00    +0.000 C 
ATOM     14  S   UNL     1      -0.126  10.515  21.164  0.00  0.00    +0.000 S 
ENDBRANCH   2   5
BRANCH   1  20
ATOM     15  C   UNL     1       6.145   6.245  16.798  0.00  0.00    +0.000 A 
ATOM     16  C   UNL     1       7.146   5.465  16.178  0.00  0.00    +0.000 A 
ATOM     17  C   UNL     1       6.879   4.202  15.653  0.00  0.00    +0.000 A 
ATOM     18  C   UNL     1       5.601   3.682  15.743  0.00  0.00    +0.000 A 
ATOM     19  C   UNL     1       4.595   4.430  16.352  0.00  0.00    +0.000 A 
ATOM     20  C   UNL     1       4.831   5.710  16.879  0.00  0.00    +0.000 A 
BRANCH  15  22
ATOM     21  C   UNL     1       7.919   7.834  17.854  0.00  0.00    +0.000 C 
ATOM     22  C   UNL     1       6.488   7.621  17.349  0.00  0.00    +0.000 C 
ENDBRANCH  15  22
ENDBRANCH   1  20
TORSDOF 3
ENDMDL
MODEL 3
REMARK VINA RESULT:      -6.9      1.786      2.800
REMARK  Name = 
REMARK  4 active torsions:
REMARK  status: ('A' for Active; 'I' for Inactive)
REMARK    1  A    between atoms: C_1  and  C_2
REMARK    2  A    between atoms: C_2  and  C_3
REMARK    3  A    between atoms: C_8  and  N_9
REMARK    4  A    between atoms: C_10  and  C_12
REMARK                            x       y       z     vdW  Elec       q    Type
REMARK                         _______ _______ _______ _____ _____    ______ ____
ROOT
ATOM      1  N   UNL     1       3.600   6.453  17.603  0.00  0.00    +0.000 N 
ATOM      2  C   UNL     1       3.276   6.460  18.950  0.00  0.00    +0.000 C 
ATOM      3  O   UNL     1       3.764   5.730  19.812  0.00  0.00    +0.000 OA
ATOM      4  H   UNL     1       3.058   7.067  16.997  0.00  0.00    +0.000 HD
ENDROOT
BRANCH   2   5
ATOM      5  C   UNL     1       2.255   7.463  19.375  0.00  0.00    +0.000 A 
ATOM      6  C   UNL     1       1.703   7.331  20.595  0.00  0.00    +0.000 A 
ATOM      7  N   UNL     1       0.865   8.234  21.203  0.00  0.00    +0.000 NA
ATOM      8  C   UNL     1       0.656   9.322  20.550  0.00  0.00    +0.000 A 
ATOM      9  N   UNL     1       1.127   9.589  19.295  0.00  0.00    +0.000 N 
ATOM     10  C   UNL     1       1.878   8.668  18.606  0.00  0.00    +0.000 A 
ATOM     11  O   UNL     1       2.242   8.818  17.440  0.00  0.00    +0.000 OA
ATOM     12  C   UNL     1       0.858  10.906  18.775  0.00  0.00    +0.000 C 
ATOM     13  C   UNL     1      -0.112  11.638  19.686  0.00  0.00    +0.000 C 
ATOM     14  S   UNL     1      -0.261  10.645  21.190  0.00  0.00    +0.000 S 
ENDBRANCH   2   5
BRANCH   1  20
ATOM     15  C   UNL     1       4.451   4.322  16.676  0.00  0.00    +0.000 A 
ATOM     16  C   UNL     1       5.512   3.627  16.053  0.00  0.00    +0.000 A 
ATOM     17  C   UNL     1       6.718   4.248  15.738  0.00  0.00    +0.000 A 
ATOM     18  C   UNL     1       6.892   5.588  16.031  0.00  0.00    +0.000 A 
ATOM     19  C   UNL     1       5.861   6.299  16.643  0.00  0.00    +0.000 A 
ATOM     20  C   UNL     1       4.639   5.697  16.984  0.00  0.00    +0.000 A 
BRANCH  15  22
ATOM     21  C   UNL     1       3.245   2.417  17.982  0.00  0.00    +0.000 C 
ATOM     22  C   UNL     1       3.157   3.594  17.005  0.00  0.00    +0.000 C 
ENDBRANCH  15  22
ENDBRANCH   1  20
TORSDOF 3
ENDMDL
MODEL 4
REMARK VINA RESULT:      -6.7      1.961      2.839
REMARK  Name = 
REMARK  4 active torsions:
REMARK  status: ('A' for Active; 'I' for Inactive)
REMARK    1  A    between atoms: C_1  and  C_2
REMARK    2  A    between atoms: C_2  and  C_3
REMARK    3  A    between atoms: C_8  and  N_9
REMARK    4  A    between atoms: C_10  and  C_12
REMARK                            x       y       z     vdW  Elec       q    Type
REMARK                         _______ _______ _______ _____ _____    ______ ____
ROOT
ATOM      1  N   UNL     1       4.353   7.048  17.252  0.00  0.00    +0.000 N 
ATOM      2  C   UNL     1       3.131   6.740  17.829  0.00  0.00    +0.000 C 
ATOM      3  O   UNL     1       2.580   5.640  17.806  0.00  0.00    +0.000 OA
ATOM      4  H   UNL     1       4.647   8.022  17.291  0.00  0.00    +0.000 HD
ENDROOT
BRANCH   2   5
ATOM      5  C   UNL     1       2.448   7.852  18.553  0.00  0.00    +0.000 A 
ATOM      6  C   UNL     1       2.230   9.003  17.891  0.00  0.00    +0.000 A 
ATOM      7  N   UNL     1       1.492  10.069  18.347  0.00  0.00    +0.000 NA
ATOM      8  C   UNL     1       0.919   9.899  19.486  0.00  0.00    +0.000 A 
ATOM      9  N   UNL     1       1.066   8.798  20.283  0.00  0.00    +0.000 N 
ATOM     10  C   UNL     1       1.882   7.755  19.915  0.00  0.00    +0.000 A 
ATOM     11  O   UNL     1       2.125   6.790  20.638  0.00  0.00    +0.000 OA
ATOM     12  C   UNL     1       0.264   8.762  21.481  0.00  0.00    +0.000 C 
ATOM     13  C   UNL     1      -0.413  10.103  21.696  0.00  0.00    +0.000 C 
ATOM     14  S   UNL     1      -0.159  11.061  20.183  0.00  0.00    +0.000 S 
ENDBRANCH   2   5
BRANCH   1  20
ATOM     15  C   UNL     1       6.214   5.425  17.413  0.00  0.00    +0.000 A 
ATOM     16  C   UNL     1       7.076   4.522  16.751  0.00  0.00    +0.000 A 
ATOM     17  C   UNL     1       7.008   4.311  15.375  0.00  0.00    +0.000 A 
ATOM     18  C   UNL     1       6.067   4.992  14.626  0.00  0.00    +0.000 A 
ATOM     19  C   UNL     1       5.203   5.888  15.255  0.00  0.00    +0.000 A 
ATOM     20  C   UNL     1       5.256   6.131  16.637  0.00  0.00    +0.000 A 
BRANCH  15  22
ATOM     21  C   UNL     1       7.749   5.739  19.495  0.00  0.00    +0.000 C 
ATOM     22  C   UNL     1       6.335   5.624  18.916  0.00  0.00    +0.000 C 
ENDBRANCH  15  22
ENDBRANCH   1  20
TORSDOF 3
ENDMDL
MODEL 5
REMARK VINA RESULT:      -6.7      4.910      8.151
REMARK  Name = 
REMARK  4 active torsions:
REMARK  status: ('A' for Active; 'I' for Inactive)
REMARK    1  A    between atoms: C_1  and  C_2
REMARK    2  A    between atoms: C_2  and  C_3
REMARK    3  A    between atoms: C_8  and  N_9
REMARK    4  A    between atoms: C_10  and  C_12
REMARK                            x       y       z     vdW  Elec       q    Type
REMARK                         _______ _______ _______ _____ _____    ______ ____
ROOT
ATOM      1  N   UNL     1       4.041   4.481  18.290  0.00  0.00    +0.000 N 
ATOM      2  C   UNL     1       5.416   4.564  18.133  0.00  0.00    +0.000 C 
ATOM      3  O   UNL     1       6.251   4.446  19.030  0.00  0.00    +0.000 OA
ATOM      4  H   UNL     1       3.473   4.673  17.466  0.00  0.00    +0.000 HD
ENDROOT
BRANCH   2   5
ATOM      5  C   UNL     1       5.906   4.799  16.743  0.00  0.00    +0.000 A 
ATOM      6  C   UNL     1       6.982   5.588  16.573  0.00  0.00    +0.000 A 
ATOM      7  N   UNL     1       7.653   5.794  15.392  0.00  0.00    +0.000 NA
ATOM      8  C   UNL     1       7.229   5.110  14.388  0.00  0.00    +0.000 A 
ATOM      9  N   UNL     1       6.136   4.289  14.401  0.00  0.00    +0.000 N 
ATOM     10  C   UNL     1       5.372   4.139  15.533  0.00  0.00    +0.000 A 
ATOM     11  O   UNL     1       4.326   3.492  15.570  0.00  0.00    +0.000 OA
ATOM     12  C   UNL     1       5.883   3.540  13.196  0.00  0.00    +0.000 C 
ATOM     13  C   UNL     1       6.791   4.023  12.080  0.00  0.00    +0.000 C 
ATOM     14  S   UNL     1       8.010   5.121  12.842  0.00  0.00    +0.000 S 
ENDBRANCH   2   5
BRANCH   1  20
ATOM     15  C   UNL     1       2.552   5.079  20.174  0.00  0.00    +0.000 A 
ATOM     16  C   UNL     1       1.873   4.663  21.342  0.00  0.00    +0.000 A 
ATOM     17  C   UNL     1       1.961   3.358  21.822  0.00  0.00    +0.000 A 
ATOM     18  C   UNL     1       2.724   2.429  21.138  0.00  0.00    +0.000 A 
ATOM     19  C   UNL     1       3.402   2.812  19.982  0.00  0.00    +0.000 A 
ATOM     20  C   UNL     1       3.342   4.123  19.481  0.00  0.00    +0.000 A 
BRANCH  15  22
ATOM     21  C   UNL     1       1.673   7.493  20.606  0.00  0.00    +0.000 C 
ATOM     22  C   UNL     1       2.428   6.517  19.697  0.00  0.00    +0.000 C 
ENDBRANCH  15  22
ENDBRANCH   1  20
TORSDOF 3
ENDMDL
MODEL 6
REMARK VINA RESULT:      -6.7      1.378      1.826
REMARK  Name = 
REMARK  4 active torsions:
REMARK  status: ('A' for Active; 'I' for Inactive)
REMARK    1  A    between atoms: C_1  and  C_2
REMARK    2  A    between atoms: C_2  and  C_3
REMARK    3  A    between atoms: C_8  and  N_9
REMARK    4  A    between atoms: C_10  and  C_12
REMARK                            x       y       z     vdW  Elec       q    Type
REMARK                         _______ _______ _______ _____ _____    ______ ____
ROOT
ATOM      1  N   UNL     1       2.323   5.920  19.031  0.00  0.00    +0.000 N 
ATOM      2  C   UNL     1       2.716   7.092  18.407  0.00  0.00    +0.000 C 
ATOM      3  O   UNL     1       3.535   7.181  17.492  0.00  0.00    +0.000 OA
ATOM      4  H   UNL     1       1.690   6.012  19.824  0.00  0.00    +0.000 HD
ENDROOT
BRANCH   2   5
ATOM      5  C   UNL     1       2.065   8.345  18.890  0.00  0.00    +0.000 A 
ATOM      6  C   UNL     1       1.963   9.380  18.036  0.00  0.00    +0.000 A 
ATOM      7  N   UNL     1       1.270  10.545  18.259  0.00  0.00    +0.000 NA
ATOM      8  C   UNL     1       0.619  10.598  19.368  0.00  0.00    +0.000 A 
ATOM      9  N   UNL     1       0.646   9.640  20.342  0.00  0.00    +0.000 N 
ATOM     10  C   UNL     1       1.412   8.508  20.206  0.00  0.00    +0.000 A 
ATOM     11  O   UNL     1       1.548   7.665  21.093  0.00  0.00    +0.000 OA
ATOM     12  C   UNL     1      -0.228   9.848  21.469  0.00  0.00    +0.000 C 
ATOM     13  C   UNL     1      -0.828  11.241  21.415  0.00  0.00    +0.000 C 
ATOM     14  S   UNL     1      -0.421  11.918  19.788  0.00  0.00    +0.000 S 
ENDBRANCH   2   5
BRANCH   1  20
ATOM     15  C   UNL     1       2.122   3.469  19.314  0.00  0.00    +0.000 A 
ATOM     16  C   UNL     1       2.515   2.179  18.891  0.00  0.00    +0.000 A 
ATOM     17  C   UNL     1       3.431   1.987  17.859  0.00  0.00    +0.000 A 
ATOM     18  C   UNL     1       3.972   3.084  17.215  0.00  0.00    +0.000 A 
ATOM     19  C   UNL     1       3.600   4.368  17.610  0.00  0.00    +0.000 A 
ATOM     20  C   UNL     1       2.689   4.593  18.655  0.00  0.00    +0.000 A 
BRANCH  15  22
ATOM     21  C   UNL     1       1.320   2.728  21.679  0.00  0.00    +0.000 C 
ATOM     22  C   UNL     1       1.124   3.623  20.451  0.00  0.00    +0.000 C 
ENDBRANCH  15  22
ENDBRANCH   1  20
TORSDOF 3
ENDMDL
MODEL 7
REMARK VINA RESULT:      -6.6      2.046      2.996
REMARK  Name = 
REMARK  4 active torsions:
REMARK  status: ('A' for Active; 'I' for Inactive)
REMARK    1  A    between atoms: C_1  and  C_2
REMARK    2  A    between atoms: C_2  and  C_3
REMARK    3  A    between atoms: C_8  and  N_9
REMARK    4  A    between atoms: C_10  and  C_12
REMARK                            x       y       z     vdW  Elec       q    Type
REMARK                         _______ _______ _______ _____ _____    ______ ____
ROOT
ATOM      1  N   UNL     1       4.129   6.888  17.578  0.00  0.00    +0.000 N 
ATOM      2  C   UNL     1       2.882   6.475  18.020  0.00  0.00    +0.000 C 
ATOM      3  O   UNL     1       2.369   5.378  17.804  0.00  0.00    +0.000 OA
ATOM      4  H   UNL     1       4.389   7.853  17.774  0.00  0.00    +0.000 HD
ENDROOT
BRANCH   2   5
ATOM      5  C   UNL     1       2.119   7.457  18.845  0.00  0.00    +0.000 A 
ATOM      6  C   UNL     1       1.811   7.121  20.111  0.00  0.00    +0.000 A 
ATOM      7  N   UNL     1       1.248   7.950  21.051  0.00  0.00    +0.000 NA
ATOM      8  C   UNL     1       1.067   9.168  20.678  0.00  0.00    +0.000 A 
ATOM      9  N   UNL     1       1.307   9.649  19.422  0.00  0.00    +0.000 N 
ATOM     10  C   UNL     1       1.768   8.829  18.421  0.00  0.00    +0.000 A 
ATOM     11  O   UNL     1       1.906   9.189  17.252  0.00  0.00    +0.000 OA
ATOM     12  C   UNL     1       1.127  11.067  19.233  0.00  0.00    +0.000 C 
ATOM     13  C   UNL     1       0.474  11.678  20.460  0.00  0.00    +0.000 C 
ATOM     14  S   UNL     1       0.492  10.405  21.745  0.00  0.00    +0.000 S 
ENDBRANCH   2   5
BRANCH   1  20
ATOM     15  C   UNL     1       5.901   5.161  17.621  0.00  0.00    +0.000 A 
ATOM     16  C   UNL     1       6.837   4.388  16.898  0.00  0.00    +0.000 A 
ATOM     17  C   UNL     1       6.989   4.512  15.519  0.00  0.00    +0.000 A 
ATOM     18  C   UNL     1       6.199   5.409  14.824  0.00  0.00    +0.000 A 
ATOM     19  C   UNL     1       5.265   6.182  15.512  0.00  0.00    +0.000 A 
ATOM     20  C   UNL     1       5.099   6.088  16.903  0.00  0.00    +0.000 A 
BRANCH  15  22
ATOM     21  C   UNL     1       4.910   3.837  19.634  0.00  0.00    +0.000 C 
ATOM     22  C   UNL     1       5.781   4.991  19.128  0.00  0.00    +0.000 C 
ENDBRANCH  15  22
ENDBRANCH   1  20
TORSDOF 3
ENDMDL
MODEL 8
REMARK VINA RESULT:      -6.6      1.313      1.801
REMARK  Name = 
REMARK  4 active torsions:
REMARK  status: ('A' for Active; 'I' for Inactive)
REMARK    1  A    between atoms: C_1  and  C_2
REMARK    2  A    between atoms: C_2  and  C_3
REMARK    3  A    between atoms: C_8  and  N_9
REMARK    4  A    between atoms: C_10  and  C_12
REMARK                            x       y       z     vdW  Elec       q    Type
REMARK                         _______ _______ _______ _____ _____    ______ ____
ROOT
ATOM      1  N   UNL     1       2.649   6.928  18.835  0.00  0.00    +0.000 N 
ATOM      2  C   UNL     1       2.123   8.160  18.482  0.00  0.00    +0.000 C 
ATOM      3  O   UNL     1       2.328   8.754  17.423  0.00  0.00    +0.000 OA
ATOM      4  H   UNL     1       2.448   6.596  19.777  0.00  0.00    +0.000 HD
ENDROOT
BRANCH   2   5
ATOM      5  C   UNL     1       1.216   8.798  19.481  0.00  0.00    +0.000 A 
ATOM      6  C   UNL     1       1.355   8.457  20.775  0.00  0.00    +0.000 A 
ATOM      7  N   UNL     1       0.714   9.046  21.838  0.00  0.00    +0.000 NA
ATOM      8  C   UNL     1      -0.033  10.052  21.546  0.00  0.00    +0.000 A 
ATOM      9  N   UNL     1      -0.290  10.499  20.280  0.00  0.00    +0.000 N 
ATOM     10  C   UNL     1       0.244   9.871  19.181  0.00  0.00    +0.000 A 
ATOM     11  O   UNL     1      -0.034  10.171  18.020  0.00  0.00    +0.000 OA
ATOM     12  C   UNL     1      -1.080  11.699  20.171  0.00  0.00    +0.000 C 
ATOM     13  C   UNL     1      -1.649  12.074  21.528  0.00  0.00    +0.000 C 
ATOM     14  S   UNL     1      -0.828  11.016  22.744  0.00  0.00    +0.000 S 
ENDBRANCH   2   5
BRANCH   1  20
ATOM     15  C   UNL     1       2.942   4.765  17.669  0.00  0.00    +0.000 A 
ATOM     16  C   UNL     1       3.741   3.956  16.830  0.00  0.00    +0.000 A 
ATOM     17  C   UNL     1       4.965   4.394  16.329  0.00  0.00    +0.000 A 
ATOM     18  C   UNL     1       5.418   5.661  16.647  0.00  0.00    +0.000 A 
ATOM     19  C   UNL     1       4.648   6.481  17.470  0.00  0.00    +0.000 A 
ATOM     20  C   UNL     1       3.417   6.062  18.001  0.00  0.00    +0.000 A 
BRANCH  15  22
ATOM     21  C   UNL     1       1.514   2.725  18.434  0.00  0.00    +0.000 C 
ATOM     22  C   UNL     1       1.617   4.235  18.195  0.00  0.00    +0.000 C 
ENDBRANCH  15  22
ENDBRANCH   1  20
TORSDOF 3
ENDMDL
MODEL 9
REMARK VINA RESULT:      -6.6      1.236      2.249
REMARK  Name = 
REMARK  4 active torsions:
REMARK  status: ('A' for Active; 'I' for Inactive)
REMARK    1  A    between atoms: C_1  and  C_2
REMARK    2  A    between atoms: C_2  and  C_3
REMARK    3  A    between atoms: C_8  and  N_9
REMARK    4  A    between atoms: C_10  and  C_12
REMARK                            x       y       z     vdW  Elec       q    Type
REMARK                         _______ _______ _______ _____ _____    ______ ____
ROOT
ATOM      1  N   UNL     1       2.706   7.014  18.368  0.00  0.00    +0.000 N 
ATOM      2  C   UNL     1       2.235   7.100  19.668  0.00  0.00    +0.000 C 
ATOM      3  O   UNL     1       2.385   6.250  20.546  0.00  0.00    +0.000 OA
ATOM      4  H   UNL     1       2.440   7.765  17.733  0.00  0.00    +0.000 HD
ENDROOT
BRANCH   2   5
ATOM      5  C   UNL     1       1.499   8.349  20.020  0.00  0.00    +0.000 A 
ATOM      6  C   UNL     1       1.204   8.572  21.314  0.00  0.00    +0.000 A 
ATOM      7  N   UNL     1       0.668   9.725  21.832  0.00  0.00    +0.000 NA
ATOM      8  C   UNL     1       0.500  10.685  20.992  0.00  0.00    +0.000 A 
ATOM      9  N   UNL     1       0.729  10.600  19.647  0.00  0.00    +0.000 N 
ATOM     10  C   UNL     1       1.163   9.431  19.070  0.00  0.00    +0.000 A 
ATOM     11  O   UNL     1       1.289   9.275  17.856  0.00  0.00    +0.000 OA
ATOM     12  C   UNL     1       0.568  11.818  18.891  0.00  0.00    +0.000 C 
ATOM     13  C   UNL     1      -0.058  12.893  19.761  0.00  0.00    +0.000 C 
ATOM     14  S   UNL     1      -0.041  12.263  21.457  0.00  0.00    +0.000 S 
ENDBRANCH   2   5
BRANCH   1  20
ATOM     15  C   UNL     1       3.032   4.716  17.511  0.00  0.00    +0.000 A 
ATOM     16  C   UNL     1       3.917   3.751  16.978  0.00  0.00    +0.000 A 
ATOM     17  C   UNL     1       5.267   4.023  16.768  0.00  0.00    +0.000 A 
ATOM     18  C   UNL     1       5.767   5.275  17.078  0.00  0.00    +0.000 A 
ATOM     19  C   UNL     1       4.915   6.246  17.603  0.00  0.00    +0.000 A 
ATOM     20  C   UNL     1       3.553   5.997  17.837  0.00  0.00    +0.000 A 
BRANCH  15  22
ATOM     21  C   UNL     1       1.260   3.209  18.684  0.00  0.00    +0.000 C 
ATOM     22  C   UNL     1       1.568   4.364  17.726  0.00  0.00    +0.000 C 
ENDBRANCH  15  22
ENDBRANCH   1  20
TORSDOF 3
ENDMDL
