MODEL 1
REMARK VINA RESULT:      -7.6      0.000      0.000
REMARK  Name = 
REMARK  11 active torsions:
REMARK  status: ('A' for Active; 'I' for Inactive)
REMARK    1  A    between atoms: C_1  and  O_2
REMARK    2  A    between atoms: O_2  and  C_3
REMARK    3  A    between atoms: C_6  and  C_7
REMARK    4  A    between atoms: C_7  and  C_8
REMARK    5  A    between atoms: C_8  and  O_10
REMARK    6  A    between atoms: O_10  and  C_11
REMARK    7  A    between atoms: C_11  and  C_12
REMARK    8  A    between atoms: N_17  and  S_18
REMARK    9  A    between atoms: S_18  and  C_21
REMARK   10  A    between atoms: C_24  and  C_25
REMARK   11  A    between atoms: C_27  and  C_28
REMARK                            x       y       z     vdW  Elec       q    Type
REMARK                         _______ _______ _______ _____ _____    ______ ____
ROOT
ATOM      1  C   UNL     1       2.411   7.739  18.559  0.00  0.00    +0.000 C 
ATOM      2  O   UNL     1       2.142   6.683  19.135  0.00  0.00    +0.000 OA
ATOM      3  N   UNL     1       1.901   8.966  18.983  0.00  0.00    +0.000 N 
ATOM      4  C   UNL     1       1.061   8.963  20.190  0.00  0.00    +0.000 C 
ATOM      5  C   UNL     1       0.944  10.347  20.864  0.00  0.00    +0.000 C 
ATOM      6  N   UNL     1       0.587  11.441  19.898  0.00  0.00    +0.000 NA
ATOM      7  C   UNL     1       1.612  11.441  18.793  0.00  0.00    +0.000 C 
ATOM      8  C   UNL     1       1.671  10.090  18.061  0.00  0.00    +0.000 C 
ENDROOT
BRANCH   6   9
ATOM      9  S   UNL     1      -1.043  11.506  19.354  0.00  0.00    +0.000 S 
ATOM     10  O   UNL     1      -1.094  12.437  18.241  0.00  0.00    +0.000 OA
ATOM     11  O   UNL     1      -1.484  10.146  19.158  0.00  0.00    +0.000 OA
BRANCH   9  12
ATOM     12  C   UNL     1      -2.015  12.202  20.701  0.00  0.00    +0.000 A 
ATOM     13  C   UNL     1      -1.374  12.337  21.952  0.00  0.00    +0.000 A 
ATOM     14  C   UNL     1      -2.081  12.773  23.082  0.00  0.00    +0.000 A 
ATOM     15  C   UNL     1      -3.428  13.114  22.976  0.00  0.00    +0.000 A 
ATOM     16  C   UNL     1      -4.221  13.627  24.144  0.00  0.00    +0.000 C 
ATOM     17  C   UNL     1      -4.064  12.961  21.740  0.00  0.00    +0.000 A 
ATOM     18  C   UNL     1      -3.398  12.459  20.602  0.00  0.00    +0.000 A 
ATOM     19  C   UNL     1      -4.244  12.194  19.395  0.00  0.00    +0.000 C 
ENDBRANCH   9  12
ENDBRANCH   6   9
BRANCH   1  20
ATOM     20  C   UNL     1       3.376   7.753  17.364  0.00  0.00    +0.000 C 
BRANCH  20  21
ATOM     21  O   UNL     1       4.547   6.957  17.572  0.00  0.00    +0.000 OA
BRANCH  21  22
ATOM     22  C   UNL     1       4.960   6.300  16.448  0.00  0.00    +0.000 C 
ATOM     23  O   UNL     1       5.118   6.829  15.352  0.00  0.00    +0.000 OA
BRANCH  22  24
ATOM     24  C   UNL     1       5.121   4.818  16.700  0.00  0.00    +0.000 C 
BRANCH  24  28
ATOM     25  C   UNL     1       2.267   3.045  19.430  0.00  0.00    +0.000 A 
ATOM     26  C   UNL     1       1.905   3.336  18.115  0.00  0.00    +0.000 A 
ATOM     27  C   UNL     1       2.825   3.909  17.232  0.00  0.00    +0.000 A 
ATOM     28  C   UNL     1       4.120   4.226  17.659  0.00  0.00    +0.000 A 
ATOM     29  C   UNL     1       4.477   3.933  18.983  0.00  0.00    +0.000 A 
ATOM     30  C   UNL     1       3.555   3.352  19.864  0.00  0.00    +0.000 A 
BRANCH  25  32
ATOM     31  C   UNL     1       1.419   2.680  21.607  0.00  0.00    +0.000 C 
ATOM     32  O   UNL     1       1.282   2.493  20.202  0.00  0.00    +0.000 OA
ENDBRANCH  25  32
ENDBRANCH  24  28
ENDBRANCH  22  24
ENDBRANCH  21  22
ENDBRANCH  20  21
ENDBRANCH   1  20
TORSDOF 8
ENDMDL
MODEL 2
REMARK VINA RESULT:      -7.5      2.923     10.299
REMARK  Name = 
REMARK  11 active torsions:
REMARK  status: ('A' for Active; 'I' for Inactive)
REMARK    1  A    between atoms: C_1  and  O_2
REMARK    2  A    between atoms: O_2  and  C_3
REMARK    3  A    between atoms: C_6  and  C_7
REMARK    4  A    between atoms: C_7  and  C_8
REMARK    5  A    between atoms: C_8  and  O_10
REMARK    6  A    between atoms: O_10  and  C_11
REMARK    7  A    between atoms: C_11  and  C_12
REMARK    8  A    between atoms: N_17  and  S_18
REMARK    9  A    between atoms: S_18  and  C_21
REMARK   10  A    between atoms: C_24  and  C_25
REMARK   11  A    between atoms: C_27  and  C_28
REMARK                            x       y       z     vdW  Elec       q    Type
REMARK                         _______ _______ _______ _____ _____    ______ ____
ROOT
ATOM      1  C   UNL     1       1.541   8.073  20.497  0.00  0.00    +0.000 C 
ATOM      2  O   UNL     1       1.378   8.152  21.716  0.00  0.00    +0.000 OA
ATOM      3  N   UNL     1       1.956   6.893  19.880  0.00  0.00    +0.000 N 
ATOM      4  C   UNL     1       2.145   5.716  20.740  0.00  0.00    +0.000 C 
ATOM      5  C   UNL     1       2.121   4.378  19.970  0.00  0.00    +0.000 C 
ATOM      6  N   UNL     1       3.018   4.379  18.765  0.00  0.00    +0.000 NA
ATOM      7  C   UNL     1       2.620   5.538  17.888  0.00  0.00    +0.000 C 
ATOM      8  C   UNL     1       2.726   6.883  18.625  0.00  0.00    +0.000 C 
ENDROOT
BRANCH   6   9
ATOM      9  S   UNL     1       4.709   4.251  19.045  0.00  0.00    +0.000 S 
ATOM     10  O   UNL     1       5.091   5.345  19.919  0.00  0.00    +0.000 OA
ATOM     11  O   UNL     1       4.974   2.894  19.457  0.00  0.00    +0.000 OA
BRANCH   9  12
ATOM     12  C   UNL     1       5.521   4.503  17.457  0.00  0.00    +0.000 A 
ATOM     13  C   UNL     1       4.833   4.062  16.306  0.00  0.00    +0.000 A 
ATOM     14  C   UNL     1       5.430   4.124  15.039  0.00  0.00    +0.000 A 
ATOM     15  C   UNL     1       6.709   4.658  14.894  0.00  0.00    +0.000 A 
ATOM     16  C   UNL     1       7.378   4.787  13.556  0.00  0.00    +0.000 C 
ATOM     17  C   UNL     1       7.396   5.077  16.038  0.00  0.00    +0.000 A 
ATOM     18  C   UNL     1       6.849   4.963  17.334  0.00  0.00    +0.000 A 
ATOM     19  C   UNL     1       7.760   5.296  18.475  0.00  0.00    +0.000 C 
ENDBRANCH   9  12
ENDBRANCH   6   9
BRANCH   1  20
ATOM     20  C   UNL     1       1.239   9.274  19.588  0.00  0.00    +0.000 C 
BRANCH  20  21
ATOM     21  O   UNL     1      -0.095   9.771  19.732  0.00  0.00    +0.000 OA
BRANCH  21  22
ATOM     22  C   UNL     1      -0.144  11.075  20.137  0.00  0.00    +0.000 C 
ATOM     23  O   UNL     1       0.189  11.472  21.249  0.00  0.00    +0.000 OA
BRANCH  22  24
ATOM     24  C   UNL     1      -0.740  11.964  19.068  0.00  0.00    +0.000 C 
BRANCH  24  28
ATOM     25  C   UNL     1      -5.051  12.304  19.271  0.00  0.00    +0.000 A 
ATOM     26  C   UNL     1      -4.442  11.600  18.232  0.00  0.00    +0.000 A 
ATOM     27  C   UNL     1      -3.050  11.489  18.164  0.00  0.00    +0.000 A 
ATOM     28  C   UNL     1      -2.240  12.106  19.125  0.00  0.00    +0.000 A 
ATOM     29  C   UNL     1      -2.858  12.815  20.165  0.00  0.00    +0.000 A 
ATOM     30  C   UNL     1      -4.254  12.918  20.234  0.00  0.00    +0.000 A 
BRANCH  25  32
ATOM     31  C   UNL     1      -7.028  11.603  18.180  0.00  0.00    +0.000 C 
ATOM     32  O   UNL     1      -6.418  12.350  19.227  0.00  0.00    +0.000 OA
ENDBRANCH  25  32
ENDBRANCH  24  28
ENDBRANCH  22  24
ENDBRANCH  21  22
ENDBRANCH  20  21
ENDBRANCH   1  20
TORSDOF 8
ENDMDL
MODEL 3
REMARK VINA RESULT:      -7.4      2.969     10.047
REMARK  Name = 
REMARK  11 active torsions:
REMARK  status: ('A' for Active; 'I' for Inactive)
REMARK    1  A    between atoms: C_1  and  O_2
REMARK    2  A    between atoms: O_2  and  C_3
REMARK    3  A    between atoms: C_6  and  C_7
REMARK    4  A    between atoms: C_7  and  C_8
REMARK    5  A    between atoms: C_8  and  O_10
REMARK    6  A    between atoms: O_10  and  C_11
REMARK    7  A    between atoms: C_11  and  C_12
REMARK    8  A    between atoms: N_17  and  S_18
REMARK    9  A    between atoms: S_18  and  C_21
REMARK   10  A    between atoms: C_24  and  C_25
REMARK   11  A    between atoms: C_27  and  C_28
REMARK                            x       y       z     vdW  Elec       q    Type
REMARK                         _______ _______ _______ _____ _____    ______ ____
ROOT
ATOM      1  C   UNL     1       1.451   8.086  20.608  0.00  0.00    +0.000 C 
ATOM      2  O   UNL     1       1.293   8.089  21.830  0.00  0.00    +0.000 OA
ATOM      3  N   UNL     1       1.878   6.951  19.919  0.00  0.00    +0.000 N 
ATOM      4  C   UNL     1       2.085   5.726  20.705  0.00  0.00    +0.000 C 
ATOM      5  C   UNL     1       2.073   4.437  19.855  0.00  0.00    +0.000 C 
ATOM      6  N   UNL     1       2.964   4.522  18.649  0.00  0.00    +0.000 NA
ATOM      7  C   UNL     1       2.548   5.728  17.846  0.00  0.00    +0.000 C 
ATOM      8  C   UNL     1       2.642   7.026  18.663  0.00  0.00    +0.000 C 
ENDROOT
BRANCH   6   9
ATOM      9  S   UNL     1       4.658   4.398  18.915  0.00  0.00    +0.000 S 
ATOM     10  O   UNL     1       5.051   5.511  19.759  0.00  0.00    +0.000 OA
ATOM     11  O   UNL     1       4.926   3.050  19.355  0.00  0.00    +0.000 OA
BRANCH   9  12
ATOM     12  C   UNL     1       5.454   4.613  17.313  0.00  0.00    +0.000 A 
ATOM     13  C   UNL     1       4.870   3.951  16.212  0.00  0.00    +0.000 A 
ATOM     14  C   UNL     1       5.476   3.978  14.948  0.00  0.00    +0.000 A 
ATOM     15  C   UNL     1       6.656   4.692  14.753  0.00  0.00    +0.000 A 
ATOM     16  C   UNL     1       7.325   4.789  13.412  0.00  0.00    +0.000 C 
ATOM     17  C   UNL     1       7.243   5.332  15.851  0.00  0.00    +0.000 A 
ATOM     18  C   UNL     1       6.694   5.265  17.148  0.00  0.00    +0.000 A 
ATOM     19  C   UNL     1       7.515   5.856  18.253  0.00  0.00    +0.000 C 
ENDBRANCH   9  12
ENDBRANCH   6   9
BRANCH   1  20
ATOM     20  C   UNL     1       1.130   9.336  19.775  0.00  0.00    +0.000 C 
BRANCH  20  21
ATOM     21  O   UNL     1       0.196  10.215  20.410  0.00  0.00    +0.000 OA
BRANCH  21  22
ATOM     22  C   UNL     1       0.229  11.488  19.913  0.00  0.00    +0.000 C 
ATOM     23  O   UNL     1       0.697  12.454  20.507  0.00  0.00    +0.000 OA
BRANCH  22  24
ATOM     24  C   UNL     1      -0.459  11.576  18.570  0.00  0.00    +0.000 C 
BRANCH  24  28
ATOM     25  C   UNL     1      -4.787  11.518  18.682  0.00  0.00    +0.000 A 
ATOM     26  C   UNL     1      -4.062  12.255  19.618  0.00  0.00    +0.000 A 
ATOM     27  C   UNL     1      -2.664  12.275  19.584  0.00  0.00    +0.000 A 
ATOM     28  C   UNL     1      -1.965  11.533  18.624  0.00  0.00    +0.000 A 
ATOM     29  C   UNL     1      -2.699  10.792  17.688  0.00  0.00    +0.000 A 
ATOM     30  C   UNL     1      -4.101  10.780  17.720  0.00  0.00    +0.000 A 
BRANCH  25  32
ATOM     31  C   UNL     1      -6.803  10.312  18.943  0.00  0.00    +0.000 C 
ATOM     32  O   UNL     1      -6.146  11.569  18.820  0.00  0.00    +0.000 OA
ENDBRANCH  25  32
ENDBRANCH  24  28
ENDBRANCH  22  24
ENDBRANCH  21  22
ENDBRANCH  20  21
ENDBRANCH   1  20
TORSDOF 8
ENDMDL
MODEL 4
REMARK VINA RESULT:      -7.4      1.840      3.926
REMARK  Name = 
REMARK  11 active torsions:
REMARK  status: ('A' for Active; 'I' for Inactive)
REMARK    1  A    between atoms: C_1  and  O_2
REMARK    2  A    between atoms: O_2  and  C_3
REMARK    3  A    between atoms: C_6  and  C_7
REMARK    4  A    between atoms: C_7  and  C_8
REMARK    5  A    between atoms: C_8  and  O_10
REMARK    6  A    between atoms: O_10  and  C_11
REMARK    7  A    between atoms: C_11  and  C_12
REMARK    8  A    between atoms: N_17  and  S_18
REMARK    9  A    between atoms: S_18  and  C_21
REMARK   10  A    between atoms: C_24  and  C_25
REMARK   11  A    between atoms: C_27  and  C_28
REMARK                            x       y       z     vdW  Elec       q    Type
REMARK                         _______ _______ _______ _____ _____    ______ ____
ROOT
ATOM      1  C   UNL     1       2.262   7.941  18.701  0.00  0.00    +0.000 C 
ATOM      2  O   UNL     1       2.677   8.082  17.549  0.00  0.00    +0.000 OA
ATOM      3  N   UNL     1       1.298   8.787  19.250  0.00  0.00    +0.000 N 
ATOM      4  C   UNL     1       0.749   9.836  18.378  0.00  0.00    +0.000 C 
ATOM      5  C   UNL     1      -0.607  10.394  18.861  0.00  0.00    +0.000 C 
ATOM      6  N   UNL     1      -0.598  10.778  20.313  0.00  0.00    +0.000 NA
ATOM      7  C   UNL     1      -0.171   9.573  21.112  0.00  0.00    +0.000 C 
ATOM      8  C   UNL     1       1.219   9.066  20.693  0.00  0.00    +0.000 C 
ENDROOT
BRANCH   6   9
ATOM      9  S   UNL     1       0.215  12.233  20.736  0.00  0.00    +0.000 S 
ATOM     10  O   UNL     1       1.513  11.868  21.271  0.00  0.00    +0.000 OA
ATOM     11  O   UNL     1       0.144  13.111  19.592  0.00  0.00    +0.000 OA
BRANCH   9  12
ATOM     12  C   UNL     1      -0.736  12.994  22.063  0.00  0.00    +0.000 A 
ATOM     13  C   UNL     1      -1.932  12.350  22.448  0.00  0.00    +0.000 A 
ATOM     14  C   UNL     1      -2.787  12.923  23.399  0.00  0.00    +0.000 A 
ATOM     15  C   UNL     1      -2.448  14.130  24.009  0.00  0.00    +0.000 A 
ATOM     16  C   UNL     1      -3.306  14.766  25.064  0.00  0.00    +0.000 C 
ATOM     17  C   UNL     1      -1.271  14.775  23.612  0.00  0.00    +0.000 A 
ATOM     18  C   UNL     1      -0.427  14.258  22.607  0.00  0.00    +0.000 A 
ATOM     19  C   UNL     1       0.706  15.135  22.170  0.00  0.00    +0.000 C 
ENDBRANCH   9  12
ENDBRANCH   6   9
BRANCH   1  20
ATOM     20  C   UNL     1       2.757   6.778  19.574  0.00  0.00    +0.000 C 
BRANCH  20  21
ATOM     21  O   UNL     1       2.258   5.504  19.156  0.00  0.00    +0.000 OA
BRANCH  21  22
ATOM     22  C   UNL     1       2.581   4.490  20.012  0.00  0.00    +0.000 C 
ATOM     23  O   UNL     1       2.317   4.481  21.210  0.00  0.00    +0.000 OA
BRANCH  22  24
ATOM     24  C   UNL     1       3.382   3.412  19.318  0.00  0.00    +0.000 C 
BRANCH  24  28
ATOM     25  C   UNL     1       6.286   4.787  16.415  0.00  0.00    +0.000 A 
ATOM     26  C   UNL     1       6.572   4.827  17.780  0.00  0.00    +0.000 A 
ATOM     27  C   UNL     1       5.635   4.384  18.719  0.00  0.00    +0.000 A 
ATOM     28  C   UNL     1       4.382   3.916  18.308  0.00  0.00    +0.000 A 
ATOM     29  C   UNL     1       4.099   3.881  16.935  0.00  0.00    +0.000 A 
ATOM     30  C   UNL     1       5.043   4.319  15.996  0.00  0.00    +0.000 A 
BRANCH  25  32
ATOM     31  C   UNL     1       7.131   4.940  14.213  0.00  0.00    +0.000 C 
ATOM     32  O   UNL     1       7.275   5.254  15.594  0.00  0.00    +0.000 OA
ENDBRANCH  25  32
ENDBRANCH  24  28
ENDBRANCH  22  24
ENDBRANCH  21  22
ENDBRANCH  20  21
ENDBRANCH   1  20
TORSDOF 8
ENDMDL
MODEL 5
REMARK VINA RESULT:      -7.4      2.852     10.187
REMARK  Name = 
REMARK  11 active torsions:
REMARK  status: ('A' for Active; 'I' for Inactive)
REMARK    1  A    between atoms: C_1  and  O_2
REMARK    2  A    between atoms: O_2  and  C_3
REMARK    3  A    between atoms: C_6  and  C_7
REMARK    4  A    between atoms: C_7  and  C_8
REMARK    5  A    between atoms: C_8  and  O_10
REMARK    6  A    between atoms: O_10  and  C_11
REMARK    7  A    between atoms: C_11  and  C_12
REMARK    8  A    between atoms: N_17  and  S_18
REMARK    9  A    between atoms: S_18  and  C_21
REMARK   10  A    between atoms: C_24  and  C_25
REMARK   11  A    between atoms: C_27  and  C_28
REMARK                            x       y       z     vdW  Elec       q    Type
REMARK                         _______ _______ _______ _____ _____    ______ ____
ROOT
ATOM      1  C   UNL     1       1.476   8.118  20.534  0.00  0.00    +0.000 C 
ATOM      2  O   UNL     1       1.313   8.175  21.754  0.00  0.00    +0.000 OA
ATOM      3  N   UNL     1       1.906   6.954  19.897  0.00  0.00    +0.000 N 
ATOM      4  C   UNL     1       2.110   5.765  20.737  0.00  0.00    +0.000 C 
ATOM      5  C   UNL     1       2.103   4.440  19.944  0.00  0.00    +0.000 C 
ATOM      6  N   UNL     1       2.999   4.474  18.739  0.00  0.00    +0.000 NA
ATOM      7  C   UNL     1       2.585   5.643  17.881  0.00  0.00    +0.000 C 
ATOM      8  C   UNL     1       2.675   6.976  18.642  0.00  0.00    +0.000 C 
ENDROOT
BRANCH   6   9
ATOM      9  S   UNL     1       4.692   4.363  19.016  0.00  0.00    +0.000 S 
ATOM     10  O   UNL     1       5.066   5.467  19.880  0.00  0.00    +0.000 OA
ATOM     11  O   UNL     1       4.970   3.011  19.439  0.00  0.00    +0.000 OA
BRANCH   9  12
ATOM     12  C   UNL     1       5.498   4.609  17.424  0.00  0.00    +0.000 A 
ATOM     13  C   UNL     1       4.940   3.944  16.311  0.00  0.00    +0.000 A 
ATOM     14  C   UNL     1       5.558   3.995  15.054  0.00  0.00    +0.000 A 
ATOM     15  C   UNL     1       6.724   4.737  14.877  0.00  0.00    +0.000 A 
ATOM     16  C   UNL     1       7.403   4.860  13.544  0.00  0.00    +0.000 C 
ATOM     17  C   UNL     1       7.285   5.380  15.986  0.00  0.00    +0.000 A 
ATOM     18  C   UNL     1       6.725   5.290  17.277  0.00  0.00    +0.000 A 
ATOM     19  C   UNL     1       7.522   5.889  18.395  0.00  0.00    +0.000 C 
ENDBRANCH   9  12
ENDBRANCH   6   9
BRANCH   1  20
ATOM     20  C   UNL     1       1.158   9.331  19.645  0.00  0.00    +0.000 C 
BRANCH  20  21
ATOM     21  O   UNL     1       0.382  10.332  20.312  0.00  0.00    +0.000 OA
BRANCH  21  22
ATOM     22  C   UNL     1       0.865  11.597  20.131  0.00  0.00    +0.000 C 
ATOM     23  O   UNL     1       1.550  11.950  19.178  0.00  0.00    +0.000 OA
BRANCH  22  24
ATOM     24  C   UNL     1       0.519  12.493  21.299  0.00  0.00    +0.000 C 
BRANCH  24  28
ATOM     25  C   UNL     1      -3.699  12.558  22.276  0.00  0.00    +0.000 A 
ATOM     26  C   UNL     1      -3.252  12.994  21.028  0.00  0.00    +0.000 A 
ATOM     27  C   UNL     1      -1.890  12.974  20.711  0.00  0.00    +0.000 A 
ATOM     28  C   UNL     1      -0.947  12.541  21.650  0.00  0.00    +0.000 A 
ATOM     29  C   UNL     1      -1.402  12.107  22.904  0.00  0.00    +0.000 A 
ATOM     30  C   UNL     1      -2.768  12.121  23.216  0.00  0.00    +0.000 A 
BRANCH  25  32
ATOM     31  C   UNL     1      -5.858  12.332  21.341  0.00  0.00    +0.000 C 
ATOM     32  O   UNL     1      -5.050  12.631  22.474  0.00  0.00    +0.000 OA
ENDBRANCH  25  32
ENDBRANCH  24  28
ENDBRANCH  22  24
ENDBRANCH  21  22
ENDBRANCH  20  21
ENDBRANCH   1  20
TORSDOF 8
ENDMDL
MODEL 6
REMARK VINA RESULT:      -7.3      3.245      9.885
REMARK  Name = 
REMARK  11 active torsions:
REMARK  status: ('A' for Active; 'I' for Inactive)
REMARK    1  A    between atoms: C_1  and  O_2
REMARK    2  A    between atoms: O_2  and  C_3
REMARK    3  A    between atoms: C_6  and  C_7
REMARK    4  A    between atoms: C_7  and  C_8
REMARK    5  A    between atoms: C_8  and  O_10
REMARK    6  A    between atoms: O_10  and  C_11
REMARK    7  A    between atoms: C_11  and  C_12
REMARK    8  A    between atoms: N_17  and  S_18
REMARK    9  A    between atoms: S_18  and  C_21
REMARK   10  A    between atoms: C_24  and  C_25
REMARK   11  A    between atoms: C_27  and  C_28
REMARK                            x       y       z     vdW  Elec       q    Type
REMARK                         _______ _______ _______ _____ _____    ______ ____
ROOT
ATOM      1  C   UNL     1       1.416   8.084  20.785  0.00  0.00    +0.000 C 
ATOM      2  O   UNL     1       1.256   8.063  22.007  0.00  0.00    +0.000 OA
ATOM      3  N   UNL     1       1.851   6.965  20.075  0.00  0.00    +0.000 N 
ATOM      4  C   UNL     1       2.066   5.727  20.838  0.00  0.00    +0.000 C 
ATOM      5  C   UNL     1       2.065   4.454  19.964  0.00  0.00    +0.000 C 
ATOM      6  N   UNL     1       2.957   4.569  18.761  0.00  0.00    +0.000 NA
ATOM      7  C   UNL     1       2.533   5.786  17.980  0.00  0.00    +0.000 C 
ATOM      8  C   UNL     1       2.616   7.070  18.822  0.00  0.00    +0.000 C 
ENDROOT
BRANCH   6   9
ATOM      9  S   UNL     1       4.651   4.452  19.026  0.00  0.00    +0.000 S 
ATOM     10  O   UNL     1       5.042   5.578  19.855  0.00  0.00    +0.000 OA
ATOM     11  O   UNL     1       4.922   3.111  19.485  0.00  0.00    +0.000 OA
BRANCH   9  12
ATOM     12  C   UNL     1       5.445   4.647  17.421  0.00  0.00    +0.000 A 
ATOM     13  C   UNL     1       4.783   4.089  16.306  0.00  0.00    +0.000 A 
ATOM     14  C   UNL     1       5.374   4.102  15.034  0.00  0.00    +0.000 A 
ATOM     15  C   UNL     1       6.618   4.702  14.847  0.00  0.00    +0.000 A 
ATOM     16  C   UNL     1       7.276   4.782  13.500  0.00  0.00    +0.000 C 
ATOM     17  C   UNL     1       7.279   5.238  15.957  0.00  0.00    +0.000 A 
ATOM     18  C   UNL     1       6.742   5.177  17.260  0.00  0.00    +0.000 A 
ATOM     19  C   UNL     1       7.632   5.641  18.372  0.00  0.00    +0.000 C 
ENDBRANCH   9  12
ENDBRANCH   6   9
BRANCH   1  20
ATOM     20  C   UNL     1       1.086   9.347  19.975  0.00  0.00    +0.000 C 
BRANCH  20  21
ATOM     21  O   UNL     1      -0.318   9.602  19.872  0.00  0.00    +0.000 OA
BRANCH  21  22
ATOM     22  C   UNL     1      -0.701  10.765  20.479  0.00  0.00    +0.000 C 
ATOM     23  O   UNL     1      -0.774  10.924  21.693  0.00  0.00    +0.000 OA
BRANCH  22  24
ATOM     24  C   UNL     1      -1.105  11.812  19.466  0.00  0.00    +0.000 C 
BRANCH  24  28
ATOM     25  C   UNL     1      -3.378  10.373  16.073  0.00  0.00    +0.000 A 
ATOM     26  C   UNL     1      -3.904  11.350  16.917  0.00  0.00    +0.000 A 
ATOM     27  C   UNL     1      -3.172  11.816  18.014  0.00  0.00    +0.000 A 
ATOM     28  C   UNL     1      -1.907  11.290  18.300  0.00  0.00    +0.000 A 
ATOM     29  C   UNL     1      -1.384  10.306  17.449  0.00  0.00    +0.000 A 
ATOM     30  C   UNL     1      -2.117   9.846  16.347  0.00  0.00    +0.000 A 
BRANCH  25  32
ATOM     31  C   UNL     1      -3.599  10.031  13.744  0.00  0.00    +0.000 C 
ATOM     32  O   UNL     1      -4.188   9.991  15.039  0.00  0.00    +0.000 OA
ENDBRANCH  25  32
ENDBRANCH  24  28
ENDBRANCH  22  24
ENDBRANCH  21  22
ENDBRANCH  20  21
ENDBRANCH   1  20
TORSDOF 8
ENDMDL
MODEL 7
REMARK VINA RESULT:      -7.3      1.752      3.731
REMARK  Name = 
REMARK  11 active torsions:
REMARK  status: ('A' for Active; 'I' for Inactive)
REMARK    1  A    between atoms: C_1  and  O_2
REMARK    2  A    between atoms: O_2  and  C_3
REMARK    3  A    between atoms: C_6  and  C_7
REMARK    4  A    between atoms: C_7  and  C_8
REMARK    5  A    between atoms: C_8  and  O_10
REMARK    6  A    between atoms: O_10  and  C_11
REMARK    7  A    between atoms: C_11  and  C_12
REMARK    8  A    between atoms: N_17  and  S_18
REMARK    9  A    between atoms: S_18  and  C_21
REMARK   10  A    between atoms: C_24  and  C_25
REMARK   11  A    between atoms: C_27  and  C_28
REMARK                            x       y       z     vdW  Elec       q    Type
REMARK                         _______ _______ _______ _____ _____    ______ ____
ROOT
ATOM      1  C   UNL     1       2.451   7.809  18.697  0.00  0.00    +0.000 C 
ATOM      2  O   UNL     1       3.021   7.945  17.613  0.00  0.00    +0.000 OA
ATOM      3  N   UNL     1       1.413   8.650  19.100  0.00  0.00    +0.000 N 
ATOM      4  C   UNL     1       0.981   9.686  18.151  0.00  0.00    +0.000 C 
ATOM      5  C   UNL     1      -0.433  10.235  18.437  0.00  0.00    +0.000 C 
ATOM      6  N   UNL     1      -0.629  10.629  19.873  0.00  0.00    +0.000 NA
ATOM      7  C   UNL     1      -0.306   9.435  20.734  0.00  0.00    +0.000 C 
ATOM      8  C   UNL     1       1.132   8.939  20.516  0.00  0.00    +0.000 C 
ENDROOT
BRANCH   6   9
ATOM      9  S   UNL     1       0.104  12.096  20.391  0.00  0.00    +0.000 S 
ATOM     10  O   UNL     1       1.247  11.745  21.213  0.00  0.00    +0.000 OA
ATOM     11  O   UNL     1       0.303  12.913  19.218  0.00  0.00    +0.000 OA
BRANCH   9  12
ATOM     12  C   UNL     1      -1.095  12.936  21.440  0.00  0.00    +0.000 A 
ATOM     13  C   UNL     1      -0.659  13.332  22.723  0.00  0.00    +0.000 A 
ATOM     14  C   UNL     1      -1.550  13.900  23.645  0.00  0.00    +0.000 A 
ATOM     15  C   UNL     1      -2.881  14.114  23.292  0.00  0.00    +0.000 A 
ATOM     16  C   UNL     1      -3.866  14.756  24.224  0.00  0.00    +0.000 C 
ATOM     17  C   UNL     1      -3.314  13.703  22.026  0.00  0.00    +0.000 A 
ATOM     18  C   UNL     1      -2.458  13.065  21.103  0.00  0.00    +0.000 A 
ATOM     19  C   UNL     1      -3.097  12.533  19.858  0.00  0.00    +0.000 C 
ENDBRANCH   9  12
ENDBRANCH   6   9
BRANCH   1  20
ATOM     20  C   UNL     1       2.831   6.658  19.641  0.00  0.00    +0.000 C 
BRANCH  20  21
ATOM     21  O   UNL     1       2.007   5.499  19.479  0.00  0.00    +0.000 OA
BRANCH  21  22
ATOM     22  C   UNL     1       2.404   4.694  18.449  0.00  0.00    +0.000 C 
ATOM     23  O   UNL     1       1.694   4.379  17.500  0.00  0.00    +0.000 OA
BRANCH  22  24
ATOM     24  C   UNL     1       3.805   4.169  18.664  0.00  0.00    +0.000 C 
BRANCH  24  28
ATOM     25  C   UNL     1       6.677   5.122  15.567  0.00  0.00    +0.000 A 
ATOM     26  C   UNL     1       6.732   5.760  16.807  0.00  0.00    +0.000 A 
ATOM     27  C   UNL     1       5.805   5.454  17.809  0.00  0.00    +0.000 A 
ATOM     28  C   UNL     1       4.788   4.520  17.576  0.00  0.00    +0.000 A 
ATOM     29  C   UNL     1       4.737   3.885  16.327  0.00  0.00    +0.000 A 
ATOM     30  C   UNL     1       5.672   4.188  15.328  0.00  0.00    +0.000 A 
BRANCH  25  32
ATOM     31  C   UNL     1       7.510   4.953  13.362  0.00  0.00    +0.000 C 
ATOM     32  O   UNL     1       7.631   5.509  14.666  0.00  0.00    +0.000 OA
ENDBRANCH  25  32
ENDBRANCH  24  28
ENDBRANCH  22  24
ENDBRANCH  21  22
ENDBRANCH  20  21
ENDBRANCH   1  20
TORSDOF 8
ENDMDL
MODEL 8
REMARK VINA RESULT:      -7.1      3.531     10.596
REMARK  Name = 
REMARK  11 active torsions:
REMARK  status: ('A' for Active; 'I' for Inactive)
REMARK    1  A    between atoms: C_1  and  O_2
REMARK    2  A    between atoms: O_2  and  C_3
REMARK    3  A    between atoms: C_6  and  C_7
REMARK    4  A    between atoms: C_7  and  C_8
REMARK    5  A    between atoms: C_8  and  O_10
REMARK    6  A    between atoms: O_10  and  C_11
REMARK    7  A    between atoms: C_11  and  C_12
REMARK    8  A    between atoms: N_17  and  S_18
REMARK    9  A    between atoms: S_18  and  C_21
REMARK   10  A    between atoms: C_24  and  C_25
REMARK   11  A    between atoms: C_27  and  C_28
REMARK                            x       y       z     vdW  Elec       q    Type
REMARK                         _______ _______ _______ _____ _____    ______ ____
ROOT
ATOM      1  C   UNL     1       1.530   8.178  20.419  0.00  0.00    +0.000 C 
ATOM      2  O   UNL     1       1.382   8.280  21.639  0.00  0.00    +0.000 OA
ATOM      3  N   UNL     1       1.932   6.986  19.818  0.00  0.00    +0.000 N 
ATOM      4  C   UNL     1       2.125   5.823  20.696  0.00  0.00    +0.000 C 
ATOM      5  C   UNL     1       2.086   4.472  19.949  0.00  0.00    +0.000 C 
ATOM      6  N   UNL     1       2.967   4.448  18.733  0.00  0.00    +0.000 NA
ATOM      7  C   UNL     1       2.563   5.593  17.841  0.00  0.00    +0.000 C 
ATOM      8  C   UNL     1       2.685   6.950  18.554  0.00  0.00    +0.000 C 
ENDROOT
BRANCH   6   9
ATOM      9  S   UNL     1       4.661   4.316  18.995  0.00  0.00    +0.000 S 
ATOM     10  O   UNL     1       5.068   5.452  19.801  0.00  0.00    +0.000 OA
ATOM     11  O   UNL     1       4.918   2.980  19.478  0.00  0.00    +0.000 OA
BRANCH   9  12
ATOM     12  C   UNL     1       5.451   4.471  17.384  0.00  0.00    +0.000 A 
ATOM     13  C   UNL     1       4.690   4.094  16.256  0.00  0.00    +0.000 A 
ATOM     14  C   UNL     1       5.255   4.084  14.973  0.00  0.00    +0.000 A 
ATOM     15  C   UNL     1       6.577   4.483  14.788  0.00  0.00    +0.000 A 
ATOM     16  C   UNL     1       7.219   4.532  13.431  0.00  0.00    +0.000 C 
ATOM     17  C   UNL     1       7.334   4.838  15.909  0.00  0.00    +0.000 A 
ATOM     18  C   UNL     1       6.815   4.791  17.220  0.00  0.00    +0.000 A 
ATOM     19  C   UNL     1       7.786   5.038  18.333  0.00  0.00    +0.000 C 
ENDBRANCH   9  12
ENDBRANCH   6   9
BRANCH   1  20
ATOM     20  C   UNL     1       1.222   9.365  19.493  0.00  0.00    +0.000 C 
BRANCH  20  21
ATOM     21  O   UNL     1       0.195  10.225  19.998  0.00  0.00    +0.000 OA
BRANCH  21  22
ATOM     22  C   UNL     1       0.638  11.487  20.276  0.00  0.00    +0.000 C 
ATOM     23  O   UNL     1       1.150  11.826  21.338  0.00  0.00    +0.000 OA
BRANCH  22  24
ATOM     24  C   UNL     1       0.343  12.441  19.141  0.00  0.00    +0.000 C 
BRANCH  24  28
ATOM     25  C   UNL     1       2.751  16.037  19.018  0.00  0.00    +0.000 A 
ATOM     26  C   UNL     1       3.288  14.808  18.632  0.00  0.00    +0.000 A 
ATOM     27  C   UNL     1       2.512  13.645  18.672  0.00  0.00    +0.000 A 
ATOM     28  C   UNL     1       1.188  13.689  19.124  0.00  0.00    +0.000 A 
ATOM     29  C   UNL     1       0.655  14.926  19.513  0.00  0.00    +0.000 A 
ATOM     30  C   UNL     1       1.433  16.091  19.466  0.00  0.00    +0.000 A 
BRANCH  25  32
ATOM     31  C   UNL     1       4.022  17.648  20.191  0.00  0.00    +0.000 C 
ATOM     32  O   UNL     1       3.607  17.101  18.944  0.00  0.00    +0.000 OA
ENDBRANCH  25  32
ENDBRANCH  24  28
ENDBRANCH  22  24
ENDBRANCH  21  22
ENDBRANCH  20  21
ENDBRANCH   1  20
TORSDOF 8
ENDMDL
MODEL 9
REMARK VINA RESULT:      -7.1      1.829      2.455
REMARK  Name = 
REMARK  11 active torsions:
REMARK  status: ('A' for Active; 'I' for Inactive)
REMARK    1  A    between atoms: C_1  and  O_2
REMARK    2  A    between atoms: O_2  and  C_3
REMARK    3  A    between atoms: C_6  and  C_7
REMARK    4  A    between atoms: C_7  and  C_8
REMARK    5  A    between atoms: C_8  and  O_10
REMARK    6  A    between atoms: O_10  and  C_11
REMARK    7  A    between atoms: C_11  and  C_12
REMARK    8  A    between atoms: N_17  and  S_18
REMARK    9  A    between atoms: S_18  and  C_21
REMARK   10  A    between atoms: C_24  and  C_25
REMARK   11  A    between atoms: C_27  and  C_28
REMARK                            x       y       z     vdW  Elec       q    Type
REMARK                         _______ _______ _______ _____ _____    ______ ____
ROOT
ATOM      1  C   UNL     1       2.331   8.738  18.084  0.00  0.00    +0.000 C 
ATOM      2  O   UNL     1       2.498   9.562  17.183  0.00  0.00    +0.000 OA
ATOM      3  N   UNL     1       1.365   8.910  19.076  0.00  0.00    +0.000 N 
ATOM      4  C   UNL     1       0.506  10.099  18.978  0.00  0.00    +0.000 C 
ATOM      5  C   UNL     1      -0.807   9.981  19.781  0.00  0.00    +0.000 C 
ATOM      6  N   UNL     1      -0.590   9.524  21.196  0.00  0.00    +0.000 NA
ATOM      7  C   UNL     1       0.162   8.218  21.154  0.00  0.00    +0.000 C 
ATOM      8  C   UNL     1       1.512   8.353  20.431  0.00  0.00    +0.000 C 
ENDROOT
BRANCH   6   9
ATOM      9  S   UNL     1       0.048  10.675  22.302  0.00  0.00    +0.000 S 
ATOM     10  O   UNL     1       0.210  10.007  23.581  0.00  0.00    +0.000 OA
ATOM     11  O   UNL     1       1.196  11.284  21.674  0.00  0.00    +0.000 OA
BRANCH   9  12
ATOM     12  C   UNL     1      -1.203  11.955  22.502  0.00  0.00    +0.000 A 
ATOM     13  C   UNL     1      -2.279  11.672  23.371  0.00  0.00    +0.000 A 
ATOM     14  C   UNL     1      -3.350  12.565  23.510  0.00  0.00    +0.000 A 
ATOM     15  C   UNL     1      -3.351  13.771  22.812  0.00  0.00    +0.000 A 
ATOM     16  C   UNL     1      -4.451  14.783  22.956  0.00  0.00    +0.000 C 
ATOM     17  C   UNL     1      -2.292  14.041  21.937  0.00  0.00    +0.000 A 
ATOM     18  C   UNL     1      -1.236  13.131  21.724  0.00  0.00    +0.000 A 
ATOM     19  C   UNL     1      -0.263  13.478  20.639  0.00  0.00    +0.000 C 
ENDBRANCH   9  12
ENDBRANCH   6   9
BRANCH   1  20
ATOM     20  C   UNL     1       3.157   7.443  18.124  0.00  0.00    +0.000 C 
BRANCH  20  21
ATOM     21  O   UNL     1       4.273   7.457  17.229  0.00  0.00    +0.000 OA
BRANCH  21  22
ATOM     22  C   UNL     1       5.102   6.382  17.384  0.00  0.00    +0.000 C 
ATOM     23  O   UNL     1       6.223   6.434  17.881  0.00  0.00    +0.000 OA
BRANCH  22  24
ATOM     24  C   UNL     1       4.501   5.128  16.790  0.00  0.00    +0.000 C 
BRANCH  24  28
ATOM     25  C   UNL     1       2.071   2.854  19.560  0.00  0.00    +0.000 A 
ATOM     26  C   UNL     1       3.363   3.251  19.908  0.00  0.00    +0.000 A 
ATOM     27  C   UNL     1       4.149   3.985  19.015  0.00  0.00    +0.000 A 
ATOM     28  C   UNL     1       3.664   4.313  17.743  0.00  0.00    +0.000 A 
ATOM     29  C   UNL     1       2.366   3.909  17.398  0.00  0.00    +0.000 A 
ATOM     30  C   UNL     1       1.578   3.180  18.299  0.00  0.00    +0.000 A 
BRANCH  25  32
ATOM     31  C   UNL     1       1.502   2.628  21.843  0.00  0.00    +0.000 C 
ATOM     32  O   UNL     1       1.402   2.135  20.511  0.00  0.00    +0.000 OA
ENDBRANCH  25  32
ENDBRANCH  24  28
ENDBRANCH  22  24
ENDBRANCH  21  22
ENDBRANCH  20  21
ENDBRANCH   1  20
TORSDOF 8
ENDMDL
