MODEL 1
REMARK VINA RESULT:      -6.6      0.000      0.000
REMARK  Name = 
REMARK  13 active torsions:
REMARK  status: ('A' for Active; 'I' for Inactive)
REMARK    1  A    between atoms: C_1  and  C_2
REMARK    2  A    between atoms: C_2  and  C_3
REMARK    3  A    between atoms: C_3  and  C_4
REMARK    4  A    between atoms: C_3  and  N_5
REMARK    5  A    between atoms: N_5  and  C_6
REMARK    6  A    between atoms: N_5  and  C_16
REMARK    7  A    between atoms: C_6  and  C_7
REMARK    8  A    between atoms: C_7  and  C_8
REMARK    9  A    between atoms: C_11  and  O_12
REMARK   10  A    between atoms: C_13  and  O_14
REMARK   11  A    between atoms: C_16  and  C_17
REMARK   12  A    between atoms: C_16  and  C_18
REMARK   13  A    between atoms: C_18  and  C_19
REMARK                            x       y       z     vdW  Elec       q    Type
REMARK                         _______ _______ _______ _____ _____    ______ ____
ROOT
ATOM      1  C   UNL     1       4.948   4.275  16.785  0.00  0.00    +0.000 C 
ENDROOT
BRANCH   1   2
ATOM      2  C   UNL     1       5.931   5.281  17.352  0.00  0.00    +0.000 A 
ATOM      3  C   UNL     1       6.334   6.455  16.705  0.00  0.00    +0.000 A 
ATOM      4  C   UNL     1       7.300   7.295  17.285  0.00  0.00    +0.000 A 
ATOM      5  C   UNL     1       7.860   6.953  18.514  0.00  0.00    +0.000 A 
ATOM      6  C   UNL     1       7.449   5.803  19.173  0.00  0.00    +0.000 A 
ATOM      7  C   UNL     1       6.491   4.978  18.611  0.00  0.00    +0.000 A 
BRANCH   5   8
ATOM      8  O   UNL     1       8.820   7.721  19.110  0.00  0.00    +0.000 OA
ATOM      9  H   UNL     1       9.685   7.467  18.747  0.00  0.00    +0.000 HD
ENDBRANCH   5   8
BRANCH   6  10
ATOM     10  O   UNL     1       8.007   5.468  20.375  0.00  0.00    +0.000 OA
ATOM     11  H   UNL     1       7.733   6.183  20.983  0.00  0.00    +0.000 HD
ENDBRANCH   6  10
ENDBRANCH   1   2
BRANCH   1  12
ATOM     12  C   UNL     1       3.508   4.180  17.353  0.00  0.00    +0.000 C 
BRANCH  12  13
ATOM     13  N   UNL     1       3.332   4.358  18.836  0.00  0.00    +0.000 NA
BRANCH  13  14
ATOM     14  C   UNL     1       3.064   3.073  19.546  0.00  0.00    +0.000 C 
ATOM     15  C   UNL     1       4.313   2.304  20.010  0.00  0.00    +0.000 C 
BRANCH  14  17
ATOM     16  C   UNL     1       0.682   2.274  18.819  0.00  0.00    +0.000 C 
ATOM     17  C   UNL     1       2.190   2.051  18.755  0.00  0.00    +0.000 C 
ENDBRANCH  14  17
ENDBRANCH  13  14
BRANCH  13  18
ATOM     18  C   UNL     1       2.466   5.545  19.143  0.00  0.00    +0.000 C 
ATOM     19  C   UNL     1       1.767   5.540  20.517  0.00  0.00    +0.000 C 
BRANCH  18  20
ATOM     20  C   UNL     1       3.069   6.965  18.953  0.00  0.00    +0.000 C 
ATOM     21  C   UNL     1       2.394   7.841  17.913  0.00  0.00    +0.000 C 
ENDBRANCH  18  20
ENDBRANCH  13  18
ENDBRANCH  12  13
ENDBRANCH   1  12
TORSDOF 9
ENDMDL
MODEL 2
REMARK VINA RESULT:      -6.4      2.852      5.774
REMARK  Name = 
REMARK  13 active torsions:
REMARK  status: ('A' for Active; 'I' for Inactive)
REMARK    1  A    between atoms: C_1  and  C_2
REMARK    2  A    between atoms: C_2  and  C_3
REMARK    3  A    between atoms: C_3  and  C_4
REMARK    4  A    between atoms: C_3  and  N_5
REMARK    5  A    between atoms: N_5  and  C_6
REMARK    6  A    between atoms: N_5  and  C_16
REMARK    7  A    between atoms: C_6  and  C_7
REMARK    8  A    between atoms: C_7  and  C_8
REMARK    9  A    between atoms: C_11  and  O_12
REMARK   10  A    between atoms: C_13  and  O_14
REMARK   11  A    between atoms: C_16  and  C_17
REMARK   12  A    between atoms: C_16  and  C_18
REMARK   13  A    between atoms: C_18  and  C_19
REMARK                            x       y       z     vdW  Elec       q    Type
REMARK                         _______ _______ _______ _____ _____    ______ ____
ROOT
ATOM      1  C   UNL     1       3.933   4.505  17.120  0.00  0.00    +0.000 C 
ENDROOT
BRANCH   1   2
ATOM      2  C   UNL     1       3.443   3.954  18.445  0.00  0.00    +0.000 A 
ATOM      3  C   UNL     1       2.201   4.245  19.021  0.00  0.00    +0.000 A 
ATOM      4  C   UNL     1       1.862   3.735  20.286  0.00  0.00    +0.000 A 
ATOM      5  C   UNL     1       2.774   2.933  20.970  0.00  0.00    +0.000 A 
ATOM      6  C   UNL     1       3.998   2.621  20.397  0.00  0.00    +0.000 A 
ATOM      7  C   UNL     1       4.332   3.112  19.148  0.00  0.00    +0.000 A 
BRANCH   5   8
ATOM      8  O   UNL     1       2.504   2.432  22.213  0.00  0.00    +0.000 OA
ATOM      9  H   UNL     1       1.901   1.675  22.114  0.00  0.00    +0.000 HD
ENDBRANCH   5   8
BRANCH   6  10
ATOM     10  O   UNL     1       4.891   1.840  21.076  0.00  0.00    +0.000 OA
ATOM     11  H   UNL     1       5.587   1.634  20.421  0.00  0.00    +0.000 HD
ENDBRANCH   6  10
ENDBRANCH   1   2
BRANCH   1  12
ATOM     12  C   UNL     1       5.209   3.928  16.454  0.00  0.00    +0.000 C 
BRANCH  12  13
ATOM     13  N   UNL     1       6.090   4.882  15.697  0.00  0.00    +0.000 NA
BRANCH  13  14
ATOM     14  C   UNL     1       6.629   4.297  14.435  0.00  0.00    +0.000 C 
ATOM     15  C   UNL     1       7.581   5.208  13.640  0.00  0.00    +0.000 C 
BRANCH  14  17
ATOM     16  C   UNL     1       6.075   3.257  12.099  0.00  0.00    +0.000 C 
ATOM     17  C   UNL     1       5.549   3.803  13.423  0.00  0.00    +0.000 C 
ENDBRANCH  14  17
ENDBRANCH  13  14
BRANCH  13  18
ATOM     18  C   UNL     1       7.033   5.600  16.619  0.00  0.00    +0.000 C 
ATOM     19  C   UNL     1       6.566   6.978  17.131  0.00  0.00    +0.000 C 
BRANCH  18  20
ATOM     20  C   UNL     1       7.589   4.831  17.850  0.00  0.00    +0.000 C 
ATOM     21  C   UNL     1       7.657   5.614  19.148  0.00  0.00    +0.000 C 
ENDBRANCH  18  20
ENDBRANCH  13  18
ENDBRANCH  12  13
ENDBRANCH   1  12
TORSDOF 9
ENDMDL
MODEL 3
REMARK VINA RESULT:      -6.3      3.095      6.216
REMARK  Name = 
REMARK  13 active torsions:
REMARK  status: ('A' for Active; 'I' for Inactive)
REMARK    1  A    between atoms: C_1  and  C_2
REMARK    2  A    between atoms: C_2  and  C_3
REMARK    3  A    between atoms: C_3  and  C_4
REMARK    4  A    between atoms: C_3  and  N_5
REMARK    5  A    between atoms: N_5  and  C_6
REMARK    6  A    between atoms: N_5  and  C_16
REMARK    7  A    between atoms: C_6  and  C_7
REMARK    8  A    between atoms: C_7  and  C_8
REMARK    9  A    between atoms: C_11  and  O_12
REMARK   10  A    between atoms: C_13  and  O_14
REMARK   11  A    between atoms: C_16  and  C_17
REMARK   12  A    between atoms: C_16  and  C_18
REMARK   13  A    between atoms: C_18  and  C_19
REMARK                            x       y       z     vdW  Elec       q    Type
REMARK                         _______ _______ _______ _____ _____    ______ ____
ROOT
ATOM      1  C   UNL     1       4.205   6.157  17.577  0.00  0.00    +0.000 C 
ENDROOT
BRANCH   1   2
ATOM      2  C   UNL     1       3.368   4.918  17.825  0.00  0.00    +0.000 A 
ATOM      3  C   UNL     1       1.970   4.899  17.890  0.00  0.00    +0.000 A 
ATOM      4  C   UNL     1       1.285   3.708  18.188  0.00  0.00    +0.000 A 
ATOM      5  C   UNL     1       2.007   2.539  18.421  0.00  0.00    +0.000 A 
ATOM      6  C   UNL     1       3.391   2.544  18.336  0.00  0.00    +0.000 A 
ATOM      7  C   UNL     1       4.070   3.711  18.032  0.00  0.00    +0.000 A 
BRANCH   5   8
ATOM      8  O   UNL     1       1.391   1.361  18.738  0.00  0.00    +0.000 OA
ATOM      9  H   UNL     1       1.398   1.262  19.705  0.00  0.00    +0.000 HD
ENDBRANCH   5   8
BRANCH   6  10
ATOM     10  O   UNL     1       4.095   1.397  18.572  0.00  0.00    +0.000 OA
ATOM     11  H   UNL     1       3.622   0.964  19.311  0.00  0.00    +0.000 HD
ENDBRANCH   6  10
ENDBRANCH   1   2
BRANCH   1  12
ATOM     12  C   UNL     1       4.962   6.337  16.235  0.00  0.00    +0.000 C 
BRANCH  12  13
ATOM     13  N   UNL     1       6.045   5.346  15.909  0.00  0.00    +0.000 NA
BRANCH  13  14
ATOM     14  C   UNL     1       7.313   5.607  16.650  0.00  0.00    +0.000 C 
ATOM     15  C   UNL     1       7.625   4.622  17.790  0.00  0.00    +0.000 C 
BRANCH  14  17
ATOM     16  C   UNL     1       8.145   7.127  18.610  0.00  0.00    +0.000 C 
ATOM     17  C   UNL     1       7.437   7.038  17.261  0.00  0.00    +0.000 C 
ENDBRANCH  14  17
ENDBRANCH  13  14
BRANCH  13  18
ATOM     18  C   UNL     1       6.114   5.082  14.433  0.00  0.00    +0.000 C 
ATOM     19  C   UNL     1       7.518   5.137  13.797  0.00  0.00    +0.000 C 
BRANCH  18  20
ATOM     20  C   UNL     1       5.423   3.804  13.880  0.00  0.00    +0.000 C 
ATOM     21  C   UNL     1       5.831   3.380  12.481  0.00  0.00    +0.000 C 
ENDBRANCH  18  20
ENDBRANCH  13  18
ENDBRANCH  12  13
ENDBRANCH   1  12
TORSDOF 9
ENDMDL
MODEL 4
REMARK VINA RESULT:      -6.2      2.874      5.574
REMARK  Name = 
REMARK  13 active torsions:
REMARK  status: ('A' for Active; 'I' for Inactive)
REMARK    1  A    between atoms: C_1  and  C_2
REMARK    2  A    between atoms: C_2  and  C_3
REMARK    3  A    between atoms: C_3  and  C_4
REMARK    4  A    between atoms: C_3  and  N_5
REMARK    5  A    between atoms: N_5  and  C_6
REMARK    6  A    between atoms: N_5  and  C_16
REMARK    7  A    between atoms: C_6  and  C_7
REMARK    8  A    between atoms: C_7  and  C_8
REMARK    9  A    between atoms: C_11  and  O_12
REMARK   10  A    between atoms: C_13  and  O_14
REMARK   11  A    between atoms: C_16  and  C_17
REMARK   12  A    between atoms: C_16  and  C_18
REMARK   13  A    between atoms: C_18  and  C_19
REMARK                            x       y       z     vdW  Elec       q    Type
REMARK                         _______ _______ _______ _____ _____    ______ ____
ROOT
ATOM      1  C   UNL     1       4.301   6.734  17.220  0.00  0.00    +0.000 C 
ENDROOT
BRANCH   1   2
ATOM      2  C   UNL     1       3.588   5.614  17.951  0.00  0.00    +0.000 A 
ATOM      3  C   UNL     1       3.159   4.420  17.359  0.00  0.00    +0.000 A 
ATOM      4  C   UNL     1       2.449   3.466  18.107  0.00  0.00    +0.000 A 
ATOM      5  C   UNL     1       2.170   3.714  19.450  0.00  0.00    +0.000 A 
ATOM      6  C   UNL     1       2.611   4.884  20.051  0.00  0.00    +0.000 A 
ATOM      7  C   UNL     1       3.320   5.822  19.321  0.00  0.00    +0.000 A 
BRANCH   5   8
ATOM      8  O   UNL     1       1.461   2.831  20.216  0.00  0.00    +0.000 OA
ATOM      9  H   UNL     1       2.083   2.367  20.802  0.00  0.00    +0.000 HD
ENDBRANCH   5   8
BRANCH   6  10
ATOM     10  O   UNL     1       2.328   5.126  21.366  0.00  0.00    +0.000 OA
ATOM     11  H   UNL     1       1.884   5.997  21.367  0.00  0.00    +0.000 HD
ENDBRANCH   6  10
ENDBRANCH   1   2
BRANCH   1  12
ATOM     12  C   UNL     1       5.110   6.438  15.931  0.00  0.00    +0.000 C 
BRANCH  12  13
ATOM     13  N   UNL     1       6.565   6.091  16.087  0.00  0.00    +0.000 NA
BRANCH  13  14
ATOM     14  C   UNL     1       6.986   4.951  15.221  0.00  0.00    +0.000 C 
ATOM     15  C   UNL     1       7.695   5.342  13.914  0.00  0.00    +0.000 C 
BRANCH  14  17
ATOM     16  C   UNL     1       5.667   3.721  13.326  0.00  0.00    +0.000 C 
ATOM     17  C   UNL     1       5.840   3.969  14.821  0.00  0.00    +0.000 C 
ENDBRANCH  14  17
ENDBRANCH  13  14
BRANCH  13  18
ATOM     18  C   UNL     1       6.972   6.087  17.532  0.00  0.00    +0.000 C 
ATOM     19  C   UNL     1       7.449   4.735  18.100  0.00  0.00    +0.000 C 
BRANCH  18  20
ATOM     20  C   UNL     1       7.990   7.159  18.014  0.00  0.00    +0.000 C 
ATOM     21  C   UNL     1       7.690   8.590  17.610  0.00  0.00    +0.000 C 
ENDBRANCH  18  20
ENDBRANCH  13  18
ENDBRANCH  12  13
ENDBRANCH   1  12
TORSDOF 9
ENDMDL
MODEL 5
REMARK VINA RESULT:      -6.2      3.084      5.716
REMARK  Name = 
REMARK  13 active torsions:
REMARK  status: ('A' for Active; 'I' for Inactive)
REMARK    1  A    between atoms: C_1  and  C_2
REMARK    2  A    between atoms: C_2  and  C_3
REMARK    3  A    between atoms: C_3  and  C_4
REMARK    4  A    between atoms: C_3  and  N_5
REMARK    5  A    between atoms: N_5  and  C_6
REMARK    6  A    between atoms: N_5  and  C_16
REMARK    7  A    between atoms: C_6  and  C_7
REMARK    8  A    between atoms: C_7  and  C_8
REMARK    9  A    between atoms: C_11  and  O_12
REMARK   10  A    between atoms: C_13  and  O_14
REMARK   11  A    between atoms: C_16  and  C_17
REMARK   12  A    between atoms: C_16  and  C_18
REMARK   13  A    between atoms: C_18  and  C_19
REMARK                            x       y       z     vdW  Elec       q    Type
REMARK                         _______ _______ _______ _____ _____    ______ ____
ROOT
ATOM      1  C   UNL     1       4.390   6.732  17.298  0.00  0.00    +0.000 C 
ENDROOT
BRANCH   1   2
ATOM      2  C   UNL     1       3.659   5.670  18.095  0.00  0.00    +0.000 A 
ATOM      3  C   UNL     1       3.421   5.729  19.474  0.00  0.00    +0.000 A 
ATOM      4  C   UNL     1       2.788   4.663  20.136  0.00  0.00    +0.000 A 
ATOM      5  C   UNL     1       2.397   3.539  19.411  0.00  0.00    +0.000 A 
ATOM      6  C   UNL     1       2.608   3.482  18.042  0.00  0.00    +0.000 A 
ATOM      7  C   UNL     1       3.221   4.533  17.383  0.00  0.00    +0.000 A 
BRANCH   5   8
ATOM      8  O   UNL     1       1.801   2.465  20.011  0.00  0.00    +0.000 OA
ATOM      9  H   UNL     1       2.364   1.685  19.872  0.00  0.00    +0.000 HD
ENDBRANCH   5   8
BRANCH   6  10
ATOM     10  O   UNL     1       2.229   2.374  17.337  0.00  0.00    +0.000 OA
ATOM     11  H   UNL     1       2.095   1.683  18.016  0.00  0.00    +0.000 HD
ENDBRANCH   6  10
ENDBRANCH   1   2
BRANCH   1  12
ATOM     12  C   UNL     1       5.149   6.354  15.999  0.00  0.00    +0.000 C 
BRANCH  12  13
ATOM     13  N   UNL     1       6.607   6.009  16.121  0.00  0.00    +0.000 NA
BRANCH  13  14
ATOM     14  C   UNL     1       7.040   4.963  15.149  0.00  0.00    +0.000 C 
ATOM     15  C   UNL     1       7.673   5.493  13.851  0.00  0.00    +0.000 C 
BRANCH  14  17
ATOM     16  C   UNL     1       5.853   3.647  13.224  0.00  0.00    +0.000 C 
ATOM     17  C   UNL     1       5.922   3.963  14.715  0.00  0.00    +0.000 C 
ENDBRANCH  14  17
ENDBRANCH  13  14
BRANCH  13  18
ATOM     18  C   UNL     1       7.014   5.868  17.559  0.00  0.00    +0.000 C 
ATOM     19  C   UNL     1       7.688   4.536  17.948  0.00  0.00    +0.000 C 
BRANCH  18  20
ATOM     20  C   UNL     1       7.863   7.001  18.200  0.00  0.00    +0.000 C 
ATOM     21  C   UNL     1       7.838   8.338  17.482  0.00  0.00    +0.000 C 
ENDBRANCH  18  20
ENDBRANCH  13  18
ENDBRANCH  12  13
ENDBRANCH   1  12
TORSDOF 9
ENDMDL
MODEL 6
REMARK VINA RESULT:      -6.2      3.326      5.980
REMARK  Name = 
REMARK  13 active torsions:
REMARK  status: ('A' for Active; 'I' for Inactive)
REMARK    1  A    between atoms: C_1  and  C_2
REMARK    2  A    between atoms: C_2  and  C_3
REMARK    3  A    between atoms: C_3  and  C_4
REMARK    4  A    between atoms: C_3  and  N_5
REMARK    5  A    between atoms: N_5  and  C_6
REMARK    6  A    between atoms: N_5  and  C_16
REMARK    7  A    between atoms: C_6  and  C_7
REMARK    8  A    between atoms: C_7  and  C_8
REMARK    9  A    between atoms: C_11  and  O_12
REMARK   10  A    between atoms: C_13  and  O_14
REMARK   11  A    between atoms: C_16  and  C_17
REMARK   12  A    between atoms: C_16  and  C_18
REMARK   13  A    between atoms: C_18  and  C_19
REMARK                            x       y       z     vdW  Elec       q    Type
REMARK                         _______ _______ _______ _____ _____    ______ ____
ROOT
ATOM      1  C   UNL     1       3.316   6.395  17.497  0.00  0.00    +0.000 C 
ENDROOT
BRANCH   1   2
ATOM      2  C   UNL     1       2.566   5.543  18.503  0.00  0.00    +0.000 A 
ATOM      3  C   UNL     1       2.500   5.803  19.877  0.00  0.00    +0.000 A 
ATOM      4  C   UNL     1       1.831   4.919  20.740  0.00  0.00    +0.000 A 
ATOM      5  C   UNL     1       1.231   3.773  20.221  0.00  0.00    +0.000 A 
ATOM      6  C   UNL     1       1.272   3.520  18.857  0.00  0.00    +0.000 A 
ATOM      7  C   UNL     1       1.920   4.393  18.002  0.00  0.00    +0.000 A 
BRANCH   5   8
ATOM      8  O   UNL     1       0.589   2.869  21.019  0.00  0.00    +0.000 OA
ATOM      9  H   UNL     1       0.954   1.986  20.837  0.00  0.00    +0.000 HD
ENDBRANCH   5   8
BRANCH   6  10
ATOM     10  O   UNL     1       0.688   2.392  18.354  0.00  0.00    +0.000 OA
ATOM     11  H   UNL     1      -0.259   2.620  18.266  0.00  0.00    +0.000 HD
ENDBRANCH   6  10
ENDBRANCH   1   2
BRANCH   1  12
ATOM     12  C   UNL     1       4.812   6.737  17.720  0.00  0.00    +0.000 C 
BRANCH  12  13
ATOM     13  N   UNL     1       5.772   6.420  16.607  0.00  0.00    +0.000 NA
BRANCH  13  14
ATOM     14  C   UNL     1       5.297   5.311  15.729  0.00  0.00    +0.000 C 
ATOM     15  C   UNL     1       5.215   3.929  16.399  0.00  0.00    +0.000 C 
BRANCH  14  17
ATOM     16  C   UNL     1       6.137   3.695  13.851  0.00  0.00    +0.000 C 
ATOM     17  C   UNL     1       6.115   5.113  14.415  0.00  0.00    +0.000 C 
ENDBRANCH  14  17
ENDBRANCH  13  14
BRANCH  13  18
ATOM     18  C   UNL     1       7.189   6.390  17.102  0.00  0.00    +0.000 C 
ATOM     19  C   UNL     1       7.743   7.718  17.657  0.00  0.00    +0.000 C 
BRANCH  18  20
ATOM     20  C   UNL     1       7.593   5.280  18.112  0.00  0.00    +0.000 C 
ATOM     21  C   UNL     1       7.940   5.750  19.513  0.00  0.00    +0.000 C 
ENDBRANCH  18  20
ENDBRANCH  13  18
ENDBRANCH  12  13
ENDBRANCH   1  12
TORSDOF 9
ENDMDL
MODEL 7
REMARK VINA RESULT:      -6.2      3.073      6.024
REMARK  Name = 
REMARK  13 active torsions:
REMARK  status: ('A' for Active; 'I' for Inactive)
REMARK    1  A    between atoms: C_1  and  C_2
REMARK    2  A    between atoms: C_2  and  C_3
REMARK    3  A    between atoms: C_3  and  C_4
REMARK    4  A    between atoms: C_3  and  N_5
REMARK    5  A    between atoms: N_5  and  C_6
REMARK    6  A    between atoms: N_5  and  C_16
REMARK    7  A    between atoms: C_6  and  C_7
REMARK    8  A    between atoms: C_7  and  C_8
REMARK    9  A    between atoms: C_11  and  O_12
REMARK   10  A    between atoms: C_13  and  O_14
REMARK   11  A    between atoms: C_16  and  C_17
REMARK   12  A    between atoms: C_16  and  C_18
REMARK   13  A    between atoms: C_18  and  C_19
REMARK                            x       y       z     vdW  Elec       q    Type
REMARK                         _______ _______ _______ _____ _____    ______ ____
ROOT
ATOM      1  C   UNL     1       3.800   4.662  16.899  0.00  0.00    +0.000 C 
ENDROOT
BRANCH   1   2
ATOM      2  C   UNL     1       3.019   4.059  18.050  0.00  0.00    +0.000 A 
ATOM      3  C   UNL     1       2.232   2.904  17.962  0.00  0.00    +0.000 A 
ATOM      4  C   UNL     1       1.494   2.457  19.071  0.00  0.00    +0.000 A 
ATOM      5  C   UNL     1       1.547   3.172  20.266  0.00  0.00    +0.000 A 
ATOM      6  C   UNL     1       2.342   4.303  20.369  0.00  0.00    +0.000 A 
ATOM      7  C   UNL     1       3.080   4.742  19.283  0.00  0.00    +0.000 A 
BRANCH   5   8
ATOM      8  O   UNL     1       0.830   2.794  21.366  0.00  0.00    +0.000 OA
ATOM      9  H   UNL     1       0.798   1.823  21.393  0.00  0.00    +0.000 HD
ENDBRANCH   5   8
BRANCH   6  10
ATOM     10  O   UNL     1       2.385   5.005  21.541  0.00  0.00    +0.000 OA
ATOM     11  H   UNL     1       1.873   5.819  21.361  0.00  0.00    +0.000 HD
ENDBRANCH   6  10
ENDBRANCH   1   2
BRANCH   1  12
ATOM     12  C   UNL     1       5.161   4.054  16.470  0.00  0.00    +0.000 C 
BRANCH  12  13
ATOM     13  N   UNL     1       6.111   4.940  15.712  0.00  0.00    +0.000 NA
BRANCH  13  14
ATOM     14  C   UNL     1       6.617   4.309  14.459  0.00  0.00    +0.000 C 
ATOM     15  C   UNL     1       7.588   5.170  13.633  0.00  0.00    +0.000 C 
BRANCH  14  17
ATOM     16  C   UNL     1       6.006   3.208  12.165  0.00  0.00    +0.000 C 
ATOM     17  C   UNL     1       5.511   3.825  13.469  0.00  0.00    +0.000 C 
ENDBRANCH  14  17
ENDBRANCH  13  14
BRANCH  13  18
ATOM     18  C   UNL     1       7.093   5.600  16.635  0.00  0.00    +0.000 C 
ATOM     19  C   UNL     1       6.741   7.029  17.094  0.00  0.00    +0.000 C 
BRANCH  18  20
ATOM     20  C   UNL     1       7.550   4.824  17.902  0.00  0.00    +0.000 C 
ATOM     21  C   UNL     1       7.410   5.562  19.220  0.00  0.00    +0.000 C 
ENDBRANCH  18  20
ENDBRANCH  13  18
ENDBRANCH  12  13
ENDBRANCH   1  12
TORSDOF 9
ENDMDL
MODEL 8
REMARK VINA RESULT:      -6.2      3.069      6.080
REMARK  Name = 
REMARK  13 active torsions:
REMARK  status: ('A' for Active; 'I' for Inactive)
REMARK    1  A    between atoms: C_1  and  C_2
REMARK    2  A    between atoms: C_2  and  C_3
REMARK    3  A    between atoms: C_3  and  C_4
REMARK    4  A    between atoms: C_3  and  N_5
REMARK    5  A    between atoms: N_5  and  C_6
REMARK    6  A    between atoms: N_5  and  C_16
REMARK    7  A    between atoms: C_6  and  C_7
REMARK    8  A    between atoms: C_7  and  C_8
REMARK    9  A    between atoms: C_11  and  O_12
REMARK   10  A    between atoms: C_13  and  O_14
REMARK   11  A    between atoms: C_16  and  C_17
REMARK   12  A    between atoms: C_16  and  C_18
REMARK   13  A    between atoms: C_18  and  C_19
REMARK                            x       y       z     vdW  Elec       q    Type
REMARK                         _______ _______ _______ _____ _____    ______ ____
ROOT
ATOM      1  C   UNL     1       3.931   6.913  17.513  0.00  0.00    +0.000 C 
ENDROOT
BRANCH   1   2
ATOM      2  C   UNL     1       3.324   5.827  18.380  0.00  0.00    +0.000 A 
ATOM      3  C   UNL     1       3.714   5.545  19.695  0.00  0.00    +0.000 A 
ATOM      4  C   UNL     1       3.134   4.475  20.398  0.00  0.00    +0.000 A 
ATOM      5  C   UNL     1       2.165   3.690  19.778  0.00  0.00    +0.000 A 
ATOM      6  C   UNL     1       1.756   3.977  18.484  0.00  0.00    +0.000 A 
ATOM      7  C   UNL     1       2.316   5.036  17.791  0.00  0.00    +0.000 A 
BRANCH   5   8
ATOM      8  O   UNL     1       1.587   2.623  20.408  0.00  0.00    +0.000 OA
ATOM      9  H   UNL     1       2.208   2.291  21.079  0.00  0.00    +0.000 HD
ENDBRANCH   5   8
BRANCH   6  10
ATOM     10  O   UNL     1       0.810   3.199  17.878  0.00  0.00    +0.000 OA
ATOM     11  H   UNL     1       0.137   3.832  17.557  0.00  0.00    +0.000 HD
ENDBRANCH   6  10
ENDBRANCH   1   2
BRANCH   1  12
ATOM     12  C   UNL     1       5.141   6.599  16.596  0.00  0.00    +0.000 C 
BRANCH  12  13
ATOM     13  N   UNL     1       6.203   5.680  17.136  0.00  0.00    +0.000 NA
BRANCH  13  14
ATOM     14  C   UNL     1       7.425   6.408  17.587  0.00  0.00    +0.000 C 
ATOM     15  C   UNL     1       7.856   6.135  19.039  0.00  0.00    +0.000 C 
BRANCH  14  17
ATOM     16  C   UNL     1       8.405   8.749  18.220  0.00  0.00    +0.000 C 
ATOM     17  C   UNL     1       7.363   7.960  17.433  0.00  0.00    +0.000 C 
ENDBRANCH  14  17
ENDBRANCH  13  14
BRANCH  13  18
ATOM     18  C   UNL     1       6.366   4.468  16.266  0.00  0.00    +0.000 C 
ATOM     19  C   UNL     1       5.151   3.522  16.183  0.00  0.00    +0.000 C 
BRANCH  18  20
ATOM     20  C   UNL     1       6.878   4.667  14.812  0.00  0.00    +0.000 C 
ATOM     21  C   UNL     1       6.102   3.940  13.729  0.00  0.00    +0.000 C 
ENDBRANCH  18  20
ENDBRANCH  13  18
ENDBRANCH  12  13
ENDBRANCH   1  12
TORSDOF 9
ENDMDL
MODEL 9
REMARK VINA RESULT:      -6.1      2.391      4.066
REMARK  Name = 
REMARK  13 active torsions:
REMARK  status: ('A' for Active; 'I' for Inactive)
REMARK    1  A    between atoms: C_1  and  C_2
REMARK    2  A    between atoms: C_2  and  C_3
REMARK    3  A    between atoms: C_3  and  C_4
REMARK    4  A    between atoms: C_3  and  N_5
REMARK    5  A    between atoms: N_5  and  C_6
REMARK    6  A    between atoms: N_5  and  C_16
REMARK    7  A    between atoms: C_6  and  C_7
REMARK    8  A    between atoms: C_7  and  C_8
REMARK    9  A    between atoms: C_11  and  O_12
REMARK   10  A    between atoms: C_13  and  O_14
REMARK   11  A    between atoms: C_16  and  C_17
REMARK   12  A    between atoms: C_16  and  C_18
REMARK   13  A    between atoms: C_18  and  C_19
REMARK                            x       y       z     vdW  Elec       q    Type
REMARK                         _______ _______ _______ _____ _____    ______ ____
ROOT
ATOM      1  C   UNL     1       4.217   3.994  18.465  0.00  0.00    +0.000 C 
ENDROOT
BRANCH   1   2
ATOM      2  C   UNL     1       5.270   4.424  17.463  0.00  0.00    +0.000 A 
ATOM      3  C   UNL     1       6.198   5.451  17.671  0.00  0.00    +0.000 A 
ATOM      4  C   UNL     1       7.095   5.819  16.654  0.00  0.00    +0.000 A 
ATOM      5  C   UNL     1       7.058   5.156  15.429  0.00  0.00    +0.000 A 
ATOM      6  C   UNL     1       6.157   4.121  15.223  0.00  0.00    +0.000 A 
ATOM      7  C   UNL     1       5.278   3.748  16.224  0.00  0.00    +0.000 A 
BRANCH   5   8
ATOM      8  O   UNL     1       7.891   5.491  14.400  0.00  0.00    +0.000 OA
ATOM      9  H   UNL     1       7.678   4.927  13.637  0.00  0.00    +0.000 HD
ENDBRANCH   5   8
BRANCH   6  10
ATOM     10  O   UNL     1       6.118   3.479  14.017  0.00  0.00    +0.000 OA
ATOM     11  H   UNL     1       5.946   2.542  14.241  0.00  0.00    +0.000 HD
ENDBRANCH   6  10
ENDBRANCH   1   2
BRANCH   1  12
ATOM     12  C   UNL     1       2.710   4.124  18.125  0.00  0.00    +0.000 C 
BRANCH  12  13
ATOM     13  N   UNL     1       1.888   5.069  18.958  0.00  0.00    +0.000 NA
BRANCH  13  14
ATOM     14  C   UNL     1       2.576   6.367  19.213  0.00  0.00    +0.000 C 
ATOM     15  C   UNL     1       1.877   7.298  20.219  0.00  0.00    +0.000 C 
BRANCH  14  17
ATOM     16  C   UNL     1       2.297   8.648  17.962  0.00  0.00    +0.000 C 
ATOM     17  C   UNL     1       2.854   7.228  17.941  0.00  0.00    +0.000 C 
ENDBRANCH  14  17
ENDBRANCH  13  14
BRANCH  13  18
ATOM     18  C   UNL     1       1.242   4.357  20.111  0.00  0.00    +0.000 C 
ATOM     19  C   UNL     1       0.525   3.033  19.777  0.00  0.00    +0.000 C 
BRANCH  18  20
ATOM     20  C   UNL     1       2.093   4.094  21.385  0.00  0.00    +0.000 C 
ATOM     21  C   UNL     1       2.354   2.638  21.722  0.00  0.00    +0.000 C 
ENDBRANCH  18  20
ENDBRANCH  13  18
ENDBRANCH  12  13
ENDBRANCH   1  12
TORSDOF 9
ENDMDL
