MODEL 1
REMARK VINA RESULT:      -7.1      0.000      0.000
REMARK  Name = 
REMARK  6 active torsions:
REMARK  status: ('A' for Active; 'I' for Inactive)
REMARK    1  A    between atoms: C_2  and  C_3
REMARK    2  A    between atoms: C_6  and  N_7
REMARK    3  A    between atoms: C_10  and  O_11
REMARK    4  A    between atoms: O_11  and  C_12
REMARK    5  A    between atoms: C_22  and  N_23
REMARK    6  A    between atoms: C_24  and  C_26
REMARK                            x       y       z     vdW  Elec       q    Type
REMARK                         _______ _______ _______ _____ _____    ______ ____
ROOT
ATOM      1  C   UNL     1      -1.697  12.512  22.693  0.00  0.00    +0.000 A 
ATOM      2  C   UNL     1      -1.182  13.802  22.599  0.00  0.00    +0.000 A 
ATOM      3  C   UNL     1      -0.021  14.042  21.853  0.00  0.00    +0.000 A 
ATOM      4  C   UNL     1       0.682  13.010  21.196  0.00  0.00    +0.000 A 
ATOM      5  C   UNL     1       0.141  11.704  21.309  0.00  0.00    +0.000 A 
ATOM      6  C   UNL     1      -1.043  11.466  22.033  0.00  0.00    +0.000 A 
ENDROOT
BRANCH   4   7
ATOM      7  N   UNL     1       1.835  13.297  20.467  0.00  0.00    +0.000 N 
ATOM      8  C   UNL     1       2.982  13.938  21.109  0.00  0.00    +0.000 C 
ATOM      9  C   UNL     1       3.151  15.358  20.588  0.00  0.00    +0.000 C 
ATOM     10  C   UNL     1       3.362  15.354  19.069  0.00  0.00    +0.000 C 
ATOM     11  C   UNL     1       2.122  14.714  18.435  0.00  0.00    +0.000 C 
ATOM     12  C   UNL     1       1.821  13.318  18.995  0.00  0.00    +0.000 C 
BRANCH  10  13
ATOM     13  O   UNL     1       4.521  14.606  18.652  0.00  0.00    +0.000 OA
BRANCH  13  14
ATOM     14  C   UNL     1       5.703  15.278  18.489  0.00  0.00    +0.000 A 
ATOM     15  C   UNL     1       5.947  16.571  18.962  0.00  0.00    +0.000 A 
ATOM     16  C   UNL     1       7.204  17.161  18.807  0.00  0.00    +0.000 A 
ATOM     17  C   UNL     1       8.214  16.472  18.159  0.00  0.00    +0.000 A 
ATOM     18  F   UNL     1       9.412  17.052  18.013  0.00  0.00    +0.000 F 
ATOM     19  C   UNL     1       7.998  15.194  17.663  0.00  0.00    +0.000 A 
ATOM     20  C   UNL     1       6.748  14.602  17.839  0.00  0.00    +0.000 A 
ATOM     21  F   UNL     1       6.553  13.367  17.349  0.00  0.00    +0.000 F 
ENDBRANCH  13  14
ENDBRANCH  10  13
ENDBRANCH   4   7
BRANCH   5  22
ATOM     22  N   UNL     1       0.861  10.581  20.830  0.00  0.00    +0.000 N 
ATOM     23  C   UNL     1       0.460   9.867  19.703  0.00  0.00    +0.000 C 
ATOM     24  O   UNL     1      -0.584  10.074  19.094  0.00  0.00    +0.000 OA
ATOM     25  H   UNL     1       1.860  10.560  21.021  0.00  0.00    +0.000 HD
BRANCH  23  26
ATOM     26  C   UNL     1       1.465   8.860  19.213  0.00  0.00    +0.000 A 
ATOM     27  N   UNL     1       2.026   9.115  17.992  0.00  0.00    +0.000 NA
ATOM     28  C   UNL     1       2.918   8.202  17.533  0.00  0.00    +0.000 A 
ATOM     29  C   UNL     1       3.266   7.038  18.209  0.00  0.00    +0.000 A 
ATOM     30  C   UNL     1       2.676   6.804  19.451  0.00  0.00    +0.000 A 
ATOM     31  C   UNL     1       1.765   7.724  19.962  0.00  0.00    +0.000 A 
ATOM     32  F   UNL     1       1.202   7.469  21.150  0.00  0.00    +0.000 F 
ENDBRANCH  23  26
ENDBRANCH   5  22
BRANCH   1  34
ATOM     33  N   UNL     1      -3.821  12.040  24.111  0.00  0.00    +0.000 NA
ATOM     34  C   UNL     1      -2.869  12.262  23.492  0.00  0.00    +0.000 C 
ENDBRANCH   1  34
TORSDOF 6
ENDMDL
MODEL 2
REMARK VINA RESULT:      -7.1      5.673      8.620
REMARK  Name = 
REMARK  6 active torsions:
REMARK  status: ('A' for Active; 'I' for Inactive)
REMARK    1  A    between atoms: C_2  and  C_3
REMARK    2  A    between atoms: C_6  and  N_7
REMARK    3  A    between atoms: C_10  and  O_11
REMARK    4  A    between atoms: O_11  and  C_12
REMARK    5  A    between atoms: C_22  and  N_23
REMARK    6  A    between atoms: C_24  and  C_26
REMARK                            x       y       z     vdW  Elec       q    Type
REMARK                         _______ _______ _______ _____ _____    ______ ____
ROOT
ATOM      1  C   UNL     1      -3.253  10.553  15.489  0.00  0.00    +0.000 A 
ATOM      2  C   UNL     1      -4.418  11.291  15.688  0.00  0.00    +0.000 A 
ATOM      3  C   UNL     1      -4.768  11.718  16.975  0.00  0.00    +0.000 A 
ATOM      4  C   UNL     1      -3.990  11.408  18.111  0.00  0.00    +0.000 A 
ATOM      5  C   UNL     1      -2.811  10.654  17.885  0.00  0.00    +0.000 A 
ATOM      6  C   UNL     1      -2.442  10.250  16.587  0.00  0.00    +0.000 A 
ENDROOT
BRANCH   4   7
ATOM      7  N   UNL     1      -4.380  11.853  19.374  0.00  0.00    +0.000 N 
ATOM      8  C   UNL     1      -5.726  11.580  19.877  0.00  0.00    +0.000 C 
ATOM      9  C   UNL     1      -6.531  12.869  19.951  0.00  0.00    +0.000 C 
ATOM     10  C   UNL     1      -5.844  13.882  20.876  0.00  0.00    +0.000 C 
ATOM     11  C   UNL     1      -4.457  14.171  20.290  0.00  0.00    +0.000 C 
ATOM     12  C   UNL     1      -3.624  12.900  20.080  0.00  0.00    +0.000 C 
BRANCH  10  13
ATOM     13  O   UNL     1      -5.675  13.405  22.225  0.00  0.00    +0.000 OA
BRANCH  13  14
ATOM     14  C   UNL     1      -4.954  14.175  23.099  0.00  0.00    +0.000 A 
ATOM     15  C   UNL     1      -5.278  15.490  23.446  0.00  0.00    +0.000 A 
ATOM     16  C   UNL     1      -4.522  16.183  24.394  0.00  0.00    +0.000 A 
ATOM     17  C   UNL     1      -3.428  15.575  24.984  0.00  0.00    +0.000 A 
ATOM     18  F   UNL     1      -2.710  16.254  25.888  0.00  0.00    +0.000 F 
ATOM     19  C   UNL     1      -3.070  14.276  24.649  0.00  0.00    +0.000 A 
ATOM     20  C   UNL     1      -3.840  13.582  23.717  0.00  0.00    +0.000 A 
ATOM     21  F   UNL     1      -3.478  12.328  23.400  0.00  0.00    +0.000 F 
ENDBRANCH  13  14
ENDBRANCH  10  13
ENDBRANCH   4   7
BRANCH   5  22
ATOM     22  N   UNL     1      -2.056  10.151  18.974  0.00  0.00    +0.000 N 
ATOM     23  C   UNL     1      -0.875  10.753  19.400  0.00  0.00    +0.000 C 
ATOM     24  O   UNL     1      -0.335  11.691  18.824  0.00  0.00    +0.000 OA
ATOM     25  H   UNL     1      -2.569   9.648  19.695  0.00  0.00    +0.000 HD
BRANCH  23  26
ATOM     26  C   UNL     1      -0.340  10.224  20.704  0.00  0.00    +0.000 A 
ATOM     27  N   UNL     1      -0.933  10.707  21.838  0.00  0.00    +0.000 NA
ATOM     28  C   UNL     1      -0.443  10.250  23.018  0.00  0.00    +0.000 A 
ATOM     29  C   UNL     1       0.618   9.360  23.134  0.00  0.00    +0.000 A 
ATOM     30  C   UNL     1       1.204   8.887  21.960  0.00  0.00    +0.000 A 
ATOM     31  C   UNL     1       0.721   9.321  20.729  0.00  0.00    +0.000 A 
ATOM     32  F   UNL     1       1.311   8.863  19.617  0.00  0.00    +0.000 F 
ENDBRANCH  23  26
ENDBRANCH   5  22
BRANCH   1  34
ATOM     33  N   UNL     1      -2.665   9.680  13.115  0.00  0.00    +0.000 NA
ATOM     34  C   UNL     1      -2.916  10.083  14.171  0.00  0.00    +0.000 C 
ENDBRANCH   1  34
TORSDOF 6
ENDMDL
MODEL 3
REMARK VINA RESULT:      -7.0      4.809      7.369
REMARK  Name = 
REMARK  6 active torsions:
REMARK  status: ('A' for Active; 'I' for Inactive)
REMARK    1  A    between atoms: C_2  and  C_3
REMARK    2  A    between atoms: C_6  and  N_7
REMARK    3  A    between atoms: C_10  and  O_11
REMARK    4  A    between atoms: O_11  and  C_12
REMARK    5  A    between atoms: C_22  and  N_23
REMARK    6  A    between atoms: C_24  and  C_26
REMARK                            x       y       z     vdW  Elec       q    Type
REMARK                         _______ _______ _______ _____ _____    ______ ____
ROOT
ATOM      1  C   UNL     1      -2.804  15.623  24.166  0.00  0.00    +0.000 A 
ATOM      2  C   UNL     1      -1.457  15.271  24.137  0.00  0.00    +0.000 A 
ATOM      3  C   UNL     1      -1.034  14.176  23.372  0.00  0.00    +0.000 A 
ATOM      4  C   UNL     1      -1.933  13.380  22.631  0.00  0.00    +0.000 A 
ATOM      5  C   UNL     1      -3.299  13.756  22.678  0.00  0.00    +0.000 A 
ATOM      6  C   UNL     1      -3.721  14.874  23.423  0.00  0.00    +0.000 A 
ENDROOT
BRANCH   4   7
ATOM      7  N   UNL     1      -1.465  12.298  21.885  0.00  0.00    +0.000 N 
ATOM      8  C   UNL     1      -1.461  10.950  22.452  0.00  0.00    +0.000 C 
ATOM      9  C   UNL     1      -0.032  10.489  22.700  0.00  0.00    +0.000 C 
ATOM     10  C   UNL     1       0.771  10.488  21.393  0.00  0.00    +0.000 C 
ATOM     11  C   UNL     1       0.776  11.924  20.857  0.00  0.00    +0.000 C 
ATOM     12  C   UNL     1      -0.636  12.501  20.686  0.00  0.00    +0.000 C 
BRANCH  10  13
ATOM     13  O   UNL     1       0.215   9.629  20.379  0.00  0.00    +0.000 OA
BRANCH  13  14
ATOM     14  C   UNL     1       1.077   8.914  19.591  0.00  0.00    +0.000 A 
ATOM     15  C   UNL     1       1.456   9.284  18.297  0.00  0.00    +0.000 A 
ATOM     16  C   UNL     1       2.391   8.529  17.585  0.00  0.00    +0.000 A 
ATOM     17  C   UNL     1       2.934   7.389  18.152  0.00  0.00    +0.000 A 
ATOM     18  F   UNL     1       3.826   6.673  17.455  0.00  0.00    +0.000 F 
ATOM     19  C   UNL     1       2.566   6.986  19.428  0.00  0.00    +0.000 A 
ATOM     20  C   UNL     1       1.648   7.754  20.142  0.00  0.00    +0.000 A 
ATOM     21  F   UNL     1       1.297   7.348  21.373  0.00  0.00    +0.000 F 
ENDBRANCH  13  14
ENDBRANCH  10  13
ENDBRANCH   4   7
BRANCH   5  22
ATOM     22  N   UNL     1      -4.296  12.925  22.109  0.00  0.00    +0.000 N 
ATOM     23  C   UNL     1      -4.831  13.166  20.845  0.00  0.00    +0.000 C 
ATOM     24  O   UNL     1      -4.571  14.153  20.165  0.00  0.00    +0.000 OA
ATOM     25  H   UNL     1      -4.306  11.951  22.402  0.00  0.00    +0.000 HD
BRANCH  23  26
ATOM     26  C   UNL     1      -5.699  12.058  20.313  0.00  0.00    +0.000 A 
ATOM     27  N   UNL     1      -6.616  11.540  21.186  0.00  0.00    +0.000 NA
ATOM     28  C   UNL     1      -7.390  10.527  20.721  0.00  0.00    +0.000 A 
ATOM     29  C   UNL     1      -7.287   9.985  19.445  0.00  0.00    +0.000 A 
ATOM     30  C   UNL     1      -6.341  10.532  18.578  0.00  0.00    +0.000 A 
ATOM     31  C   UNL     1      -5.537  11.582  19.014  0.00  0.00    +0.000 A 
ATOM     32  F   UNL     1      -4.628  12.080  18.167  0.00  0.00    +0.000 F 
ENDBRANCH  23  26
ENDBRANCH   5  22
BRANCH   1  34
ATOM     33  N   UNL     1      -3.608  17.622  25.615  0.00  0.00    +0.000 NA
ATOM     34  C   UNL     1      -3.241  16.725  24.984  0.00  0.00    +0.000 C 
ENDBRANCH   1  34
TORSDOF 6
ENDMDL
MODEL 4
REMARK VINA RESULT:      -6.9      3.039      7.165
REMARK  Name = 
REMARK  6 active torsions:
REMARK  status: ('A' for Active; 'I' for Inactive)
REMARK    1  A    between atoms: C_2  and  C_3
REMARK    2  A    between atoms: C_6  and  N_7
REMARK    3  A    between atoms: C_10  and  O_11
REMARK    4  A    between atoms: O_11  and  C_12
REMARK    5  A    between atoms: C_22  and  N_23
REMARK    6  A    between atoms: C_24  and  C_26
REMARK                            x       y       z     vdW  Elec       q    Type
REMARK                         _______ _______ _______ _____ _____    ______ ____
ROOT
ATOM      1  C   UNL     1      -3.121  14.095  23.347  0.00  0.00    +0.000 A 
ATOM      2  C   UNL     1      -3.188  12.751  23.706  0.00  0.00    +0.000 A 
ATOM      3  C   UNL     1      -2.240  11.844  23.214  0.00  0.00    +0.000 A 
ATOM      4  C   UNL     1      -1.211  12.233  22.332  0.00  0.00    +0.000 A 
ATOM      5  C   UNL     1      -1.164  13.604  21.977  0.00  0.00    +0.000 A 
ATOM      6  C   UNL     1      -2.098  14.522  22.495  0.00  0.00    +0.000 A 
ENDROOT
BRANCH   4   7
ATOM      7  N   UNL     1      -0.291  11.293  21.866  0.00  0.00    +0.000 N 
ATOM      8  C   UNL     1       0.032  11.209  20.442  0.00  0.00    +0.000 C 
ATOM      9  C   UNL     1      -0.518   9.918  19.854  0.00  0.00    +0.000 C 
ATOM     10  C   UNL     1       0.073   8.701  20.576  0.00  0.00    +0.000 C 
ATOM     11  C   UNL     1      -0.324   8.806  22.053  0.00  0.00    +0.000 C 
ATOM     12  C   UNL     1       0.100  10.137  22.689  0.00  0.00    +0.000 C 
BRANCH  10  13
ATOM     13  O   UNL     1       1.510   8.629  20.498  0.00  0.00    +0.000 OA
BRANCH  13  14
ATOM     14  C   UNL     1       2.067   7.781  19.577  0.00  0.00    +0.000 A 
ATOM     15  C   UNL     1       2.538   8.178  18.322  0.00  0.00    +0.000 A 
ATOM     16  C   UNL     1       3.149   7.259  17.467  0.00  0.00    +0.000 A 
ATOM     17  C   UNL     1       3.273   5.935  17.851  0.00  0.00    +0.000 A 
ATOM     18  F   UNL     1       3.858   5.064  17.019  0.00  0.00    +0.000 F 
ATOM     19  C   UNL     1       2.801   5.506  19.084  0.00  0.00    +0.000 A 
ATOM     20  C   UNL     1       2.210   6.432  19.942  0.00  0.00    +0.000 A 
ATOM     21  F   UNL     1       1.753   6.000  21.129  0.00  0.00    +0.000 F 
ENDBRANCH  13  14
ENDBRANCH  10  13
ENDBRANCH   4   7
BRANCH   5  22
ATOM     22  N   UNL     1      -0.277  14.060  20.970  0.00  0.00    +0.000 N 
ATOM     23  C   UNL     1       1.006  14.518  21.262  0.00  0.00    +0.000 C 
ATOM     24  O   UNL     1       1.442  14.663  22.400  0.00  0.00    +0.000 OA
ATOM     25  H   UNL     1      -0.391  13.660  20.042  0.00  0.00    +0.000 HD
BRANCH  23  26
ATOM     26  C   UNL     1       1.879  14.738  20.057  0.00  0.00    +0.000 A 
ATOM     27  N   UNL     1       2.576  13.649  19.611  0.00  0.00    +0.000 NA
ATOM     28  C   UNL     1       3.382  13.844  18.537  0.00  0.00    +0.000 A 
ATOM     29  C   UNL     1       3.550  15.066  17.896  0.00  0.00    +0.000 A 
ATOM     30  C   UNL     1       2.829  16.159  18.374  0.00  0.00    +0.000 A 
ATOM     31  C   UNL     1       1.981  15.997  19.467  0.00  0.00    +0.000 A 
ATOM     32  F   UNL     1       1.310  17.065  19.915  0.00  0.00    +0.000 F 
ENDBRANCH  23  26
ENDBRANCH   5  22
BRANCH   1  34
ATOM     33  N   UNL     1      -4.900  15.768  24.229  0.00  0.00    +0.000 NA
ATOM     34  C   UNL     1      -4.119  15.017  23.824  0.00  0.00    +0.000 C 
ENDBRANCH   1  34
TORSDOF 6
ENDMDL
MODEL 5
REMARK VINA RESULT:      -6.8      2.964      7.285
REMARK  Name = 
REMARK  6 active torsions:
REMARK  status: ('A' for Active; 'I' for Inactive)
REMARK    1  A    between atoms: C_2  and  C_3
REMARK    2  A    between atoms: C_6  and  N_7
REMARK    3  A    between atoms: C_10  and  O_11
REMARK    4  A    between atoms: O_11  and  C_12
REMARK    5  A    between atoms: C_22  and  N_23
REMARK    6  A    between atoms: C_24  and  C_26
REMARK                            x       y       z     vdW  Elec       q    Type
REMARK                         _______ _______ _______ _____ _____    ______ ____
ROOT
ATOM      1  C   UNL     1      -2.579  13.937  23.442  0.00  0.00    +0.000 A 
ATOM      2  C   UNL     1      -2.858  12.580  23.585  0.00  0.00    +0.000 A 
ATOM      3  C   UNL     1      -1.972  11.623  23.075  0.00  0.00    +0.000 A 
ATOM      4  C   UNL     1      -0.793  11.977  22.386  0.00  0.00    +0.000 A 
ATOM      5  C   UNL     1      -0.530  13.363  22.250  0.00  0.00    +0.000 A 
ATOM      6  C   UNL     1      -1.405  14.326  22.788  0.00  0.00    +0.000 A 
ENDROOT
BRANCH   4   7
ATOM      7  N   UNL     1       0.059  10.988  21.894  0.00  0.00    +0.000 N 
ATOM      8  C   UNL     1       0.409  10.945  20.475  0.00  0.00    +0.000 C 
ATOM      9  C   UNL     1      -0.229   9.733  19.812  0.00  0.00    +0.000 C 
ATOM     10  C   UNL     1       0.242   8.438  20.485  0.00  0.00    +0.000 C 
ATOM     11  C   UNL     1      -0.181   8.506  21.957  0.00  0.00    +0.000 C 
ATOM     12  C   UNL     1       0.334   9.766  22.667  0.00  0.00    +0.000 C 
BRANCH  10  13
ATOM     13  O   UNL     1       1.670   8.252  20.434  0.00  0.00    +0.000 OA
BRANCH  13  14
ATOM     14  C   UNL     1       2.155   7.124  19.824  0.00  0.00    +0.000 A 
ATOM     15  C   UNL     1       2.105   5.843  20.380  0.00  0.00    +0.000 A 
ATOM     16  C   UNL     1       2.567   4.737  19.664  0.00  0.00    +0.000 A 
ATOM     17  C   UNL     1       3.101   4.908  18.399  0.00  0.00    +0.000 A 
ATOM     18  F   UNL     1       3.544   3.839  17.725  0.00  0.00    +0.000 F 
ATOM     19  C   UNL     1       3.180   6.169  17.825  0.00  0.00    +0.000 A 
ATOM     20  C   UNL     1       2.698   7.267  18.537  0.00  0.00    +0.000 A 
ATOM     21  F   UNL     1       2.787   8.482  17.971  0.00  0.00    +0.000 F 
ENDBRANCH  13  14
ENDBRANCH  10  13
ENDBRANCH   4   7
BRANCH   5  22
ATOM     22  N   UNL     1       0.534  13.820  21.432  0.00  0.00    +0.000 N 
ATOM     23  C   UNL     1       0.331  14.256  20.124  0.00  0.00    +0.000 C 
ATOM     24  O   UNL     1      -0.744  14.191  19.537  0.00  0.00    +0.000 OA
ATOM     25  H   UNL     1       1.332  14.235  21.906  0.00  0.00    +0.000 HD
BRANCH  23  26
ATOM     26  C   UNL     1       1.527  14.917  19.495  0.00  0.00    +0.000 A 
ATOM     27  N   UNL     1       1.793  16.195  19.904  0.00  0.00    +0.000 NA
ATOM     28  C   UNL     1       2.858  16.806  19.327  0.00  0.00    +0.000 A 
ATOM     29  C   UNL     1       3.658  16.227  18.349  0.00  0.00    +0.000 A 
ATOM     30  C   UNL     1       3.362  14.924  17.950  0.00  0.00    +0.000 A 
ATOM     31  C   UNL     1       2.284  14.258  18.529  0.00  0.00    +0.000 A 
ATOM     32  F   UNL     1       2.012  13.013  18.118  0.00  0.00    +0.000 F 
ENDBRANCH  23  26
ENDBRANCH   5  22
BRANCH   1  34
ATOM     33  N   UNL     1      -4.241  15.731  24.315  0.00  0.00    +0.000 NA
ATOM     34  C   UNL     1      -3.510  14.918  23.933  0.00  0.00    +0.000 C 
ENDBRANCH   1  34
TORSDOF 6
ENDMDL
MODEL 6
REMARK VINA RESULT:      -6.8      5.939      8.661
REMARK  Name = 
REMARK  6 active torsions:
REMARK  status: ('A' for Active; 'I' for Inactive)
REMARK    1  A    between atoms: C_2  and  C_3
REMARK    2  A    between atoms: C_6  and  N_7
REMARK    3  A    between atoms: C_10  and  O_11
REMARK    4  A    between atoms: O_11  and  C_12
REMARK    5  A    between atoms: C_22  and  N_23
REMARK    6  A    between atoms: C_24  and  C_26
REMARK                            x       y       z     vdW  Elec       q    Type
REMARK                         _______ _______ _______ _____ _____    ______ ____
ROOT
ATOM      1  C   UNL     1      -3.288  10.601  15.553  0.00  0.00    +0.000 A 
ATOM      2  C   UNL     1      -4.449  11.338  15.766  0.00  0.00    +0.000 A 
ATOM      3  C   UNL     1      -4.782  11.767  17.058  0.00  0.00    +0.000 A 
ATOM      4  C   UNL     1      -3.989  11.458  18.183  0.00  0.00    +0.000 A 
ATOM      5  C   UNL     1      -2.814  10.703  17.943  0.00  0.00    +0.000 A 
ATOM      6  C   UNL     1      -2.462  10.298  16.641  0.00  0.00    +0.000 A 
ENDROOT
BRANCH   4   7
ATOM      7  N   UNL     1      -4.363  11.904  19.451  0.00  0.00    +0.000 N 
ATOM      8  C   UNL     1      -5.666  11.549  20.011  0.00  0.00    +0.000 C 
ATOM      9  C   UNL     1      -6.557  12.780  20.090  0.00  0.00    +0.000 C 
ATOM     10  C   UNL     1      -5.910  13.860  20.966  0.00  0.00    +0.000 C 
ATOM     11  C   UNL     1      -4.570  14.232  20.322  0.00  0.00    +0.000 C 
ATOM     12  C   UNL     1      -3.657  13.017  20.105  0.00  0.00    +0.000 C 
BRANCH  10  13
ATOM     13  O   UNL     1      -5.657  13.428  22.318  0.00  0.00    +0.000 OA
BRANCH  13  14
ATOM     14  C   UNL     1      -4.957  14.265  23.146  0.00  0.00    +0.000 A 
ATOM     15  C   UNL     1      -5.206  15.634  23.278  0.00  0.00    +0.000 A 
ATOM     16  C   UNL     1      -4.484  16.404  24.193  0.00  0.00    +0.000 A 
ATOM     17  C   UNL     1      -3.497  15.815  24.964  0.00  0.00    +0.000 A 
ATOM     18  F   UNL     1      -2.811  16.567  25.834  0.00  0.00    +0.000 F 
ATOM     19  C   UNL     1      -3.215  14.461  24.845  0.00  0.00    +0.000 A 
ATOM     20  C   UNL     1      -3.952  13.694  23.944  0.00  0.00    +0.000 A 
ATOM     21  F   UNL     1      -3.664  12.387  23.836  0.00  0.00    +0.000 F 
ENDBRANCH  13  14
ENDBRANCH  10  13
ENDBRANCH   4   7
BRANCH   5  22
ATOM     22  N   UNL     1      -2.045  10.201  19.022  0.00  0.00    +0.000 N 
ATOM     23  C   UNL     1      -0.834  10.775  19.402  0.00  0.00    +0.000 C 
ATOM     24  O   UNL     1      -0.281  11.682  18.789  0.00  0.00    +0.000 OA
ATOM     25  H   UNL     1      -2.552   9.731  19.768  0.00  0.00    +0.000 HD
BRANCH  23  26
ATOM     26  C   UNL     1      -0.279  10.259  20.702  0.00  0.00    +0.000 A 
ATOM     27  N   UNL     1       0.733   9.344  20.604  0.00  0.00    +0.000 NA
ATOM     28  C   UNL     1       1.225   8.858  21.771  0.00  0.00    +0.000 A 
ATOM     29  C   UNL     1       0.752   9.214  23.029  0.00  0.00    +0.000 A 
ATOM     30  C   UNL     1      -0.282  10.147  23.098  0.00  0.00    +0.000 A 
ATOM     31  C   UNL     1      -0.805  10.679  21.922  0.00  0.00    +0.000 A 
ATOM     32  F   UNL     1      -1.807  11.563  22.015  0.00  0.00    +0.000 F 
ENDBRANCH  23  26
ENDBRANCH   5  22
BRANCH   1  34
ATOM     33  N   UNL     1      -2.717   9.721  13.177  0.00  0.00    +0.000 NA
ATOM     34  C   UNL     1      -2.968  10.130  14.231  0.00  0.00    +0.000 C 
ENDBRANCH   1  34
TORSDOF 6
ENDMDL
MODEL 7
REMARK VINA RESULT:      -6.7      2.132      2.406
REMARK  Name = 
REMARK  6 active torsions:
REMARK  status: ('A' for Active; 'I' for Inactive)
REMARK    1  A    between atoms: C_2  and  C_3
REMARK    2  A    between atoms: C_6  and  N_7
REMARK    3  A    between atoms: C_10  and  O_11
REMARK    4  A    between atoms: O_11  and  C_12
REMARK    5  A    between atoms: C_22  and  N_23
REMARK    6  A    between atoms: C_24  and  C_26
REMARK                            x       y       z     vdW  Elec       q    Type
REMARK                         _______ _______ _______ _____ _____    ______ ____
ROOT
ATOM      1  C   UNL     1      -2.359  11.248  18.389  0.00  0.00    +0.000 A 
ATOM      2  C   UNL     1      -2.129  12.530  18.880  0.00  0.00    +0.000 A 
ATOM      3  C   UNL     1      -0.818  12.974  19.100  0.00  0.00    +0.000 A 
ATOM      4  C   UNL     1       0.306  12.154  18.865  0.00  0.00    +0.000 A 
ATOM      5  C   UNL     1       0.047  10.851  18.368  0.00  0.00    +0.000 A 
ATOM      6  C   UNL     1      -1.268  10.415  18.118  0.00  0.00    +0.000 A 
ENDROOT
BRANCH   4   7
ATOM      7  N   UNL     1       1.592  12.638  19.101  0.00  0.00    +0.000 N 
ATOM      8  C   UNL     1       2.017  12.992  20.454  0.00  0.00    +0.000 C 
ATOM      9  C   UNL     1       2.192  14.499  20.572  0.00  0.00    +0.000 C 
ATOM     10  C   UNL     1       3.237  15.002  19.568  0.00  0.00    +0.000 C 
ATOM     11  C   UNL     1       2.733  14.648  18.165  0.00  0.00    +0.000 C 
ATOM     12  C   UNL     1       2.426  13.153  18.003  0.00  0.00    +0.000 C 
BRANCH  10  13
ATOM     13  O   UNL     1       4.537  14.406  19.746  0.00  0.00    +0.000 OA
BRANCH  13  14
ATOM     14  C   UNL     1       5.641  15.153  19.431  0.00  0.00    +0.000 A 
ATOM     15  C   UNL     1       6.139  16.197  20.216  0.00  0.00    +0.000 A 
ATOM     16  C   UNL     1       7.308  16.868  19.852  0.00  0.00    +0.000 A 
ATOM     17  C   UNL     1       7.973  16.515  18.691  0.00  0.00    +0.000 A 
ATOM     18  F   UNL     1       9.091  17.170  18.352  0.00  0.00    +0.000 F 
ATOM     19  C   UNL     1       7.496  15.494  17.880  0.00  0.00    +0.000 A 
ATOM     20  C   UNL     1       6.340  14.815  18.260  0.00  0.00    +0.000 A 
ATOM     21  F   UNL     1       5.887  13.833  17.463  0.00  0.00    +0.000 F 
ENDBRANCH  13  14
ENDBRANCH  10  13
ENDBRANCH   4   7
BRANCH   5  22
ATOM     22  N   UNL     1       1.091   9.899  18.261  0.00  0.00    +0.000 N 
ATOM     23  C   UNL     1       1.379   8.994  19.281  0.00  0.00    +0.000 C 
ATOM     24  O   UNL     1       0.837   9.004  20.381  0.00  0.00    +0.000 OA
ATOM     25  H   UNL     1       1.331   9.583  17.324  0.00  0.00    +0.000 HD
BRANCH  23  26
ATOM     26  C   UNL     1       2.357   7.915  18.901  0.00  0.00    +0.000 A 
ATOM     27  N   UNL     1       3.098   8.145  17.775  0.00  0.00    +0.000 NA
ATOM     28  C   UNL     1       3.968   7.168  17.414  0.00  0.00    +0.000 A 
ATOM     29  C   UNL     1       4.125   5.967  18.096  0.00  0.00    +0.000 A 
ATOM     30  C   UNL     1       3.353   5.760  19.239  0.00  0.00    +0.000 A 
ATOM     31  C   UNL     1       2.458   6.745  19.650  0.00  0.00    +0.000 A 
ATOM     32  F   UNL     1       1.719   6.515  20.742  0.00  0.00    +0.000 F 
ENDBRANCH  23  26
ENDBRANCH   5  22
BRANCH   1  34
ATOM     33  N   UNL     1      -4.801  10.421  18.078  0.00  0.00    +0.000 NA
ATOM     34  C   UNL     1      -3.708  10.782  18.201  0.00  0.00    +0.000 C 
ENDBRANCH   1  34
TORSDOF 6
ENDMDL
MODEL 8
REMARK VINA RESULT:      -6.7      3.934      7.700
REMARK  Name = 
REMARK  6 active torsions:
REMARK  status: ('A' for Active; 'I' for Inactive)
REMARK    1  A    between atoms: C_2  and  C_3
REMARK    2  A    between atoms: C_6  and  N_7
REMARK    3  A    between atoms: C_10  and  O_11
REMARK    4  A    between atoms: O_11  and  C_12
REMARK    5  A    between atoms: C_22  and  N_23
REMARK    6  A    between atoms: C_24  and  C_26
REMARK                            x       y       z     vdW  Elec       q    Type
REMARK                         _______ _______ _______ _____ _____    ______ ____
ROOT
ATOM      1  C   UNL     1       1.032  16.115  18.618  0.00  0.00    +0.000 A 
ATOM      2  C   UNL     1       2.227  15.709  19.205  0.00  0.00    +0.000 A 
ATOM      3  C   UNL     1       2.453  14.352  19.473  0.00  0.00    +0.000 A 
ATOM      4  C   UNL     1       1.492  13.357  19.193  0.00  0.00    +0.000 A 
ATOM      5  C   UNL     1       0.281  13.795  18.599  0.00  0.00    +0.000 A 
ATOM      6  C   UNL     1       0.066  15.154  18.301  0.00  0.00    +0.000 A 
ENDROOT
BRANCH   4   7
ATOM      7  N   UNL     1       1.760  12.019  19.481  0.00  0.00    +0.000 N 
ATOM      8  C   UNL     1       2.220  11.110  18.432  0.00  0.00    +0.000 C 
ATOM      9  C   UNL     1       1.137  10.089  18.111  0.00  0.00    +0.000 C 
ATOM     10  C   UNL     1       0.774   9.276  19.359  0.00  0.00    +0.000 C 
ATOM     11  C   UNL     1       0.259  10.261  20.415  0.00  0.00    +0.000 C 
ATOM     12  C   UNL     1       1.256  11.389  20.711  0.00  0.00    +0.000 C 
BRANCH  10  13
ATOM     13  O   UNL     1       1.888   8.554  19.919  0.00  0.00    +0.000 OA
BRANCH  13  14
ATOM     14  C   UNL     1       1.946   7.199  19.726  0.00  0.00    +0.000 A 
ATOM     15  C   UNL     1       1.462   6.252  20.632  0.00  0.00    +0.000 A 
ATOM     16  C   UNL     1       1.504   4.889  20.328  0.00  0.00    +0.000 A 
ATOM     17  C   UNL     1       2.051   4.465  19.130  0.00  0.00    +0.000 A 
ATOM     18  F   UNL     1       2.088   3.155  18.854  0.00  0.00    +0.000 F 
ATOM     19  C   UNL     1       2.555   5.380  18.215  0.00  0.00    +0.000 A 
ATOM     20  C   UNL     1       2.491   6.740  18.515  0.00  0.00    +0.000 A 
ATOM     21  F   UNL     1       2.989   7.613  17.624  0.00  0.00    +0.000 F 
ENDBRANCH  13  14
ENDBRANCH  10  13
ENDBRANCH   4   7
BRANCH   5  22
ATOM     22  N   UNL     1      -0.807  12.902  18.436  0.00  0.00    +0.000 N 
ATOM     23  C   UNL     1      -1.833  12.802  19.373  0.00  0.00    +0.000 C 
ATOM     24  O   UNL     1      -1.839  13.388  20.451  0.00  0.00    +0.000 OA
ATOM     25  H   UNL     1      -1.070  12.668  17.482  0.00  0.00    +0.000 HD
BRANCH  23  26
ATOM     26  C   UNL     1      -3.010  11.980  18.924  0.00  0.00    +0.000 A 
ATOM     27  N   UNL     1      -4.224  12.331  19.448  0.00  0.00    +0.000 NA
ATOM     28  C   UNL     1      -5.288  11.582  19.064  0.00  0.00    +0.000 A 
ATOM     29  C   UNL     1      -5.209  10.490  18.207  0.00  0.00    +0.000 A 
ATOM     30  C   UNL     1      -3.958  10.155  17.690  0.00  0.00    +0.000 A 
ATOM     31  C   UNL     1      -2.843  10.907  18.050  0.00  0.00    +0.000 A 
ATOM     32  F   UNL     1      -1.651  10.556  17.552  0.00  0.00    +0.000 F 
ENDBRANCH  23  26
ENDBRANCH   5  22
BRANCH   1  34
ATOM     33  N   UNL     1       0.561  18.631  18.178  0.00  0.00    +0.000 NA
ATOM     34  C   UNL     1       0.788  17.514  18.379  0.00  0.00    +0.000 C 
ENDBRANCH   1  34
TORSDOF 6
ENDMDL
MODEL 9
REMARK VINA RESULT:      -6.6      2.889      7.377
REMARK  Name = 
REMARK  6 active torsions:
REMARK  status: ('A' for Active; 'I' for Inactive)
REMARK    1  A    between atoms: C_2  and  C_3
REMARK    2  A    between atoms: C_6  and  N_7
REMARK    3  A    between atoms: C_10  and  O_11
REMARK    4  A    between atoms: O_11  and  C_12
REMARK    5  A    between atoms: C_22  and  N_23
REMARK    6  A    between atoms: C_24  and  C_26
REMARK                            x       y       z     vdW  Elec       q    Type
REMARK                         _______ _______ _______ _____ _____    ______ ____
ROOT
ATOM      1  C   UNL     1      -2.295  13.802  23.379  0.00  0.00    +0.000 A 
ATOM      2  C   UNL     1      -2.508  12.434  23.528  0.00  0.00    +0.000 A 
ATOM      3  C   UNL     1      -1.691  11.517  22.852  0.00  0.00    +0.000 A 
ATOM      4  C   UNL     1      -0.654  11.925  21.988  0.00  0.00    +0.000 A 
ATOM      5  C   UNL     1      -0.457  13.322  21.848  0.00  0.00    +0.000 A 
ATOM      6  C   UNL     1      -1.258  14.244  22.550  0.00  0.00    +0.000 A 
ENDROOT
BRANCH   4   7
ATOM      7  N   UNL     1       0.132  10.976  21.334  0.00  0.00    +0.000 N 
ATOM      8  C   UNL     1      -0.456  10.083  20.336  0.00  0.00    +0.000 C 
ATOM      9  C   UNL     1      -0.491   8.656  20.864  0.00  0.00    +0.000 C 
ATOM     10  C   UNL     1       0.924   8.171  21.203  0.00  0.00    +0.000 C 
ATOM     11  C   UNL     1       1.485   9.107  22.280  0.00  0.00    +0.000 C 
ATOM     12  C   UNL     1       1.448  10.583  21.862  0.00  0.00    +0.000 C 
BRANCH  10  13
ATOM     13  O   UNL     1       1.822   8.188  20.076  0.00  0.00    +0.000 OA
BRANCH  13  14
ATOM     14  C   UNL     1       2.276   6.990  19.590  0.00  0.00    +0.000 A 
ATOM     15  C   UNL     1       2.120   5.764  20.243  0.00  0.00    +0.000 A 
ATOM     16  C   UNL     1       2.558   4.578  19.647  0.00  0.00    +0.000 A 
ATOM     17  C   UNL     1       3.174   4.615  18.408  0.00  0.00    +0.000 A 
ATOM     18  F   UNL     1       3.593   3.472  17.851  0.00  0.00    +0.000 F 
ATOM     19  C   UNL     1       3.358   5.819  17.742  0.00  0.00    +0.000 A 
ATOM     20  C   UNL     1       2.900   6.996  18.332  0.00  0.00    +0.000 A 
ATOM     21  F   UNL     1       3.091   8.153  17.678  0.00  0.00    +0.000 F 
ENDBRANCH  13  14
ENDBRANCH  10  13
ENDBRANCH   4   7
BRANCH   5  22
ATOM     22  N   UNL     1       0.442  13.832  20.879  0.00  0.00    +0.000 N 
ATOM     23  C   UNL     1       1.626  14.476  21.231  0.00  0.00    +0.000 C 
ATOM     24  O   UNL     1       1.945  14.748  22.384  0.00  0.00    +0.000 OA
ATOM     25  H   UNL     1       0.458  13.364  19.976  0.00  0.00    +0.000 HD
BRANCH  23  26
ATOM     26  C   UNL     1       2.560  14.739  20.080  0.00  0.00    +0.000 A 
ATOM     27  N   UNL     1       3.881  14.469  20.303  0.00  0.00    +0.000 NA
ATOM     28  C   UNL     1       4.733  14.722  19.277  0.00  0.00    +0.000 A 
ATOM     29  C   UNL     1       4.346  15.250  18.051  0.00  0.00    +0.000 A 
ATOM     30  C   UNL     1       2.992  15.518  17.853  0.00  0.00    +0.000 A 
ATOM     31  C   UNL     1       2.084  15.259  18.877  0.00  0.00    +0.000 A 
ATOM     32  F   UNL     1       0.792  15.538  18.667  0.00  0.00    +0.000 F 
ENDBRANCH  23  26
ENDBRANCH   5  22
BRANCH   1  34
ATOM     33  N   UNL     1      -3.846  15.518  24.558  0.00  0.00    +0.000 NA
ATOM     34  C   UNL     1      -3.160  14.741  24.044  0.00  0.00    +0.000 C 
ENDBRANCH   1  34
TORSDOF 6
ENDMDL
