MODEL 1
REMARK VINA RESULT:      -9.1      0.000      0.000
REMARK  Name = 
REMARK  5 active torsions:
REMARK  status: ('A' for Active; 'I' for Inactive)
REMARK    1  A    between atoms: C_1  and  N_2
REMARK    2  A    between atoms: C_7  and  C_8
REMARK    3  A    between atoms: C_11  and  C_12
REMARK    4  A    between atoms: C_16  and  N_17
REMARK    5  A    between atoms: C_18  and  C_20
REMARK                            x       y       z     vdW  Elec       q    Type
REMARK                         _______ _______ _______ _____ _____    ______ ____
ROOT
ATOM      1  C   UNL     1       2.266   7.097  19.907  0.00  0.00    +0.000 A 
ATOM      2  N   UNL     1       1.947   5.825  20.199  0.00  0.00    +0.000 NA
ATOM      3  O   UNL     1       2.970   5.087  19.610  0.00  0.00    +0.000 OA
ATOM      4  C   UNL     1       3.811   5.984  19.018  0.00  0.00    +0.000 A 
ATOM      5  N   UNL     1       3.412   7.229  19.155  0.00  0.00    +0.000 NA
ENDROOT
BRANCH   1  12
ATOM      6  C   UNL     1      -1.411  12.474  21.525  0.00  0.00    +0.000 C 
ATOM      7  N   UNL     1      -0.676  11.323  21.978  0.00  0.00    +0.000 N 
ATOM      8  N   UNL     1      -0.638  11.010  23.286  0.00  0.00    +0.000 NA
ATOM      9  N   UNL     1       0.069   9.892  23.405  0.00  0.00    +0.000 NA
ATOM     10  C   UNL     1       0.475   9.510  22.154  0.00  0.00    +0.000 A 
ATOM     11  C   UNL     1       1.228   8.405  21.735  0.00  0.00    +0.000 A 
ATOM     12  C   UNL     1       1.503   8.252  20.363  0.00  0.00    +0.000 A 
ATOM     13  C   UNL     1       1.024   9.201  19.443  0.00  0.00    +0.000 A 
ATOM     14  C   UNL     1       0.267  10.308  19.847  0.00  0.00    +0.000 A 
ATOM     15  C   UNL     1       0.014  10.422  21.215  0.00  0.00    +0.000 A 
ENDBRANCH   1  12
BRANCH   4  16
ATOM     16  C   UNL     1       5.011   5.455  18.385  0.00  0.00    +0.000 A 
ATOM     17  C   UNL     1       6.260   5.527  19.016  0.00  0.00    +0.000 A 
ATOM     18  C   UNL     1       7.400   5.056  18.373  0.00  0.00    +0.000 A 
ATOM     19  C   UNL     1       7.303   4.494  17.100  0.00  0.00    +0.000 A 
ATOM     20  C   UNL     1       6.069   4.387  16.457  0.00  0.00    +0.000 A 
ATOM     21  C   UNL     1       4.928   4.884  17.100  0.00  0.00    +0.000 A 
BRANCH  20  22
ATOM     22  N   UNL     1       5.915   3.814  15.175  0.00  0.00    +0.000 N 
ATOM     23  C   UNL     1       6.422   4.306  13.983  0.00  0.00    +0.000 C 
ATOM     24  O   UNL     1       7.122   5.310  13.875  0.00  0.00    +0.000 OA
ATOM     25  H   UNL     1       5.442   2.920  15.109  0.00  0.00    +0.000 HD
BRANCH  23  26
ATOM     26  C   UNL     1       6.085   3.505  12.824  0.00  0.00    +0.000 A 
ATOM     27  C   UNL     1       6.887   2.691  12.040  0.00  0.00    +0.000 A 
ATOM     28  C   UNL     1       6.051   2.128  11.050  0.00  0.00    +0.000 A 
ATOM     29  C   UNL     1       4.794   2.639  11.279  0.00  0.00    +0.000 A 
ATOM     30  O   UNL     1       4.800   3.472  12.352  0.00  0.00    +0.000 OA
ENDBRANCH  23  26
ENDBRANCH  20  22
ENDBRANCH   4  16
TORSDOF 4
ENDMDL
MODEL 2
REMARK VINA RESULT:      -9.1      6.053      8.371
REMARK  Name = 
REMARK  5 active torsions:
REMARK  status: ('A' for Active; 'I' for Inactive)
REMARK    1  A    between atoms: C_1  and  N_2
REMARK    2  A    between atoms: C_7  and  C_8
REMARK    3  A    between atoms: C_11  and  C_12
REMARK    4  A    between atoms: C_16  and  N_17
REMARK    5  A    between atoms: C_18  and  C_20
REMARK                            x       y       z     vdW  Elec       q    Type
REMARK                         _______ _______ _______ _____ _____    ______ ____
ROOT
ATOM      1  C   UNL     1       8.625   9.636  18.120  0.00  0.00    +0.000 A 
ATOM      2  N   UNL     1       9.044   8.841  19.118  0.00  0.00    +0.000 NA
ATOM      3  O   UNL     1       8.425   7.624  18.850  0.00  0.00    +0.000 OA
ATOM      4  C   UNL     1       7.690   7.800  17.713  0.00  0.00    +0.000 A 
ATOM      5  N   UNL     1       7.764   9.022  17.238  0.00  0.00    +0.000 NA
ENDROOT
BRANCH   1  12
ATOM      6  C   UNL     1      10.136  16.142  17.444  0.00  0.00    +0.000 C 
ATOM      7  N   UNL     1      10.612  14.789  17.563  0.00  0.00    +0.000 N 
ATOM      8  N   UNL     1      11.931  14.533  17.623  0.00  0.00    +0.000 NA
ATOM      9  N   UNL     1      12.075  13.222  17.769  0.00  0.00    +0.000 NA
ATOM     10  C   UNL     1      10.827  12.658  17.800  0.00  0.00    +0.000 A 
ATOM     11  C   UNL     1      10.431  11.323  17.947  0.00  0.00    +0.000 A 
ATOM     12  C   UNL     1       9.056  11.018  17.945  0.00  0.00    +0.000 A 
ATOM     13  C   UNL     1       8.111  12.049  17.794  0.00  0.00    +0.000 A 
ATOM     14  C   UNL     1       8.493  13.388  17.649  0.00  0.00    +0.000 A 
ATOM     15  C   UNL     1       9.864  13.648  17.660  0.00  0.00    +0.000 A 
ENDBRANCH   1  12
BRANCH   4  16
ATOM     16  C   UNL     1       6.995   6.635  17.183  0.00  0.00    +0.000 A 
ATOM     17  C   UNL     1       7.382   6.043  15.974  0.00  0.00    +0.000 A 
ATOM     18  C   UNL     1       6.674   4.959  15.464  0.00  0.00    +0.000 A 
ATOM     19  C   UNL     1       5.582   4.446  16.164  0.00  0.00    +0.000 A 
ATOM     20  C   UNL     1       5.188   5.000  17.382  0.00  0.00    +0.000 A 
ATOM     21  C   UNL     1       5.891   6.105  17.879  0.00  0.00    +0.000 A 
BRANCH  20  22
ATOM     22  N   UNL     1       4.100   4.508  18.136  0.00  0.00    +0.000 N 
ATOM     23  C   UNL     1       4.162   3.604  19.185  0.00  0.00    +0.000 C 
ATOM     24  O   UNL     1       5.196   3.123  19.641  0.00  0.00    +0.000 OA
ATOM     25  H   UNL     1       3.180   4.889  17.946  0.00  0.00    +0.000 HD
BRANCH  23  26
ATOM     26  C   UNL     1       2.872   3.276  19.756  0.00  0.00    +0.000 A 
ATOM     27  C   UNL     1       2.390   3.471  21.041  0.00  0.00    +0.000 A 
ATOM     28  C   UNL     1       1.065   2.983  21.058  0.00  0.00    +0.000 A 
ATOM     29  C   UNL     1       0.819   2.508  19.789  0.00  0.00    +0.000 A 
ATOM     30  O   UNL     1       1.904   2.681  18.991  0.00  0.00    +0.000 OA
ENDBRANCH  23  26
ENDBRANCH  20  22
ENDBRANCH   4  16
TORSDOF 4
ENDMDL
MODEL 3
REMARK VINA RESULT:      -9.0      1.851      2.636
REMARK  Name = 
REMARK  5 active torsions:
REMARK  status: ('A' for Active; 'I' for Inactive)
REMARK    1  A    between atoms: C_1  and  N_2
REMARK    2  A    between atoms: C_7  and  C_8
REMARK    3  A    between atoms: C_11  and  C_12
REMARK    4  A    between atoms: C_16  and  N_17
REMARK    5  A    between atoms: C_18  and  C_20
REMARK                            x       y       z     vdW  Elec       q    Type
REMARK                         _______ _______ _______ _____ _____    ______ ____
ROOT
ATOM      1  C   UNL     1       1.243   9.537  19.105  0.00  0.00    +0.000 A 
ATOM      2  N   UNL     1       1.831   9.869  17.944  0.00  0.00    +0.000 NA
ATOM      3  O   UNL     1       2.624   8.764  17.649  0.00  0.00    +0.000 OA
ATOM      4  C   UNL     1       2.440   7.868  18.663  0.00  0.00    +0.000 A 
ATOM      5  N   UNL     1       1.618   8.304  19.590  0.00  0.00    +0.000 NA
ENDROOT
BRANCH   1  12
ATOM      6  C   UNL     1      -3.556  13.327  21.873  0.00  0.00    +0.000 C 
ATOM      7  N   UNL     1      -2.326  12.602  22.051  0.00  0.00    +0.000 N 
ATOM      8  N   UNL     1      -1.763  12.502  23.268  0.00  0.00    +0.000 NA
ATOM      9  N   UNL     1      -0.674  11.753  23.141  0.00  0.00    +0.000 NA
ATOM     10  C   UNL     1      -0.560  11.387  21.827  0.00  0.00    +0.000 A 
ATOM     11  C   UNL     1       0.397  10.596  21.177  0.00  0.00    +0.000 A 
ATOM     12  C   UNL     1       0.269  10.375  19.793  0.00  0.00    +0.000 A 
ATOM     13  C   UNL     1      -0.806  10.948  19.089  0.00  0.00    +0.000 A 
ATOM     14  C   UNL     1      -1.771  11.738  19.725  0.00  0.00    +0.000 A 
ATOM     15  C   UNL     1      -1.610  11.929  21.099  0.00  0.00    +0.000 A 
ENDBRANCH   1  12
BRANCH   4  16
ATOM     16  C   UNL     1       3.119   6.585  18.548  0.00  0.00    +0.000 A 
ATOM     17  C   UNL     1       3.186   5.696  19.629  0.00  0.00    +0.000 A 
ATOM     18  C   UNL     1       3.880   4.496  19.511  0.00  0.00    +0.000 A 
ATOM     19  C   UNL     1       4.500   4.164  18.307  0.00  0.00    +0.000 A 
ATOM     20  C   UNL     1       4.430   5.018  17.205  0.00  0.00    +0.000 A 
ATOM     21  C   UNL     1       3.749   6.235  17.338  0.00  0.00    +0.000 A 
BRANCH  20  22
ATOM     22  N   UNL     1       5.028   4.721  15.960  0.00  0.00    +0.000 N 
ATOM     23  C   UNL     1       6.236   5.208  15.486  0.00  0.00    +0.000 C 
ATOM     24  O   UNL     1       6.990   5.951  16.109  0.00  0.00    +0.000 OA
ATOM     25  H   UNL     1       4.573   4.037  15.366  0.00  0.00    +0.000 HD
BRANCH  23  26
ATOM     26  C   UNL     1       6.582   4.734  14.162  0.00  0.00    +0.000 A 
ATOM     27  C   UNL     1       6.063   3.680  13.428  0.00  0.00    +0.000 A 
ATOM     28  C   UNL     1       6.747   3.667  12.193  0.00  0.00    +0.000 A 
ATOM     29  C   UNL     1       7.650   4.704  12.248  0.00  0.00    +0.000 A 
ATOM     30  O   UNL     1       7.560   5.360  13.435  0.00  0.00    +0.000 OA
ENDBRANCH  23  26
ENDBRANCH  20  22
ENDBRANCH   4  16
TORSDOF 4
ENDMDL
MODEL 4
REMARK VINA RESULT:      -9.0      5.872      8.252
REMARK  Name = 
REMARK  5 active torsions:
REMARK  status: ('A' for Active; 'I' for Inactive)
REMARK    1  A    between atoms: C_1  and  N_2
REMARK    2  A    between atoms: C_7  and  C_8
REMARK    3  A    between atoms: C_11  and  C_12
REMARK    4  A    between atoms: C_16  and  N_17
REMARK    5  A    between atoms: C_18  and  C_20
REMARK                            x       y       z     vdW  Elec       q    Type
REMARK                         _______ _______ _______ _____ _____    ______ ____
ROOT
ATOM      1  C   UNL     1       8.674   9.656  18.172  0.00  0.00    +0.000 A 
ATOM      2  N   UNL     1       9.113   8.817  19.124  0.00  0.00    +0.000 NA
ATOM      3  O   UNL     1       8.438   7.631  18.852  0.00  0.00    +0.000 OA
ATOM      4  C   UNL     1       7.654   7.867  17.760  0.00  0.00    +0.000 A 
ATOM      5  N   UNL     1       7.748   9.100  17.318  0.00  0.00    +0.000 NA
ENDROOT
BRANCH   1  12
ATOM      6  C   UNL     1      11.265  15.778  17.239  0.00  0.00    +0.000 C 
ATOM      7  N   UNL     1      10.106  14.982  17.545  0.00  0.00    +0.000 N 
ATOM      8  N   UNL     1       8.904  15.563  17.709  0.00  0.00    +0.000 NA
ATOM      9  N   UNL     1       8.024  14.596  17.939  0.00  0.00    +0.000 NA
ATOM     10  C   UNL     1       8.691  13.400  17.917  0.00  0.00    +0.000 A 
ATOM     11  C   UNL     1       8.225  12.091  18.091  0.00  0.00    +0.000 A 
ATOM     12  C   UNL     1       9.145  11.027  18.016  0.00  0.00    +0.000 A 
ATOM     13  C   UNL     1      10.504  11.294  17.774  0.00  0.00    +0.000 A 
ATOM     14  C   UNL     1      10.983  12.597  17.596  0.00  0.00    +0.000 A 
ATOM     15  C   UNL     1      10.040  13.622  17.673  0.00  0.00    +0.000 A 
ENDBRANCH   1  12
BRANCH   4  16
ATOM     16  C   UNL     1       6.892   6.744  17.233  0.00  0.00    +0.000 A 
ATOM     17  C   UNL     1       7.177   6.195  15.975  0.00  0.00    +0.000 A 
ATOM     18  C   UNL     1       6.406   5.152  15.472  0.00  0.00    +0.000 A 
ATOM     19  C   UNL     1       5.352   4.636  16.225  0.00  0.00    +0.000 A 
ATOM     20  C   UNL     1       5.058   5.147  17.491  0.00  0.00    +0.000 A 
ATOM     21  C   UNL     1       5.824   6.212  17.982  0.00  0.00    +0.000 A 
BRANCH  20  22
ATOM     22  N   UNL     1       4.012   4.650  18.299  0.00  0.00    +0.000 N 
ATOM     23  C   UNL     1       4.119   3.690  19.293  0.00  0.00    +0.000 C 
ATOM     24  O   UNL     1       5.166   3.154  19.646  0.00  0.00    +0.000 OA
ATOM     25  H   UNL     1       3.094   5.069  18.198  0.00  0.00    +0.000 HD
BRANCH  23  26
ATOM     26  C   UNL     1       2.863   3.373  19.942  0.00  0.00    +0.000 A 
ATOM     27  C   UNL     1       1.562   3.545  19.499  0.00  0.00    +0.000 A 
ATOM     28  C   UNL     1       0.716   3.051  20.516  0.00  0.00    +0.000 A 
ATOM     29  C   UNL     1       1.547   2.619  21.525  0.00  0.00    +0.000 A 
ATOM     30  O   UNL     1       2.851   2.806  21.189  0.00  0.00    +0.000 OA
ENDBRANCH  23  26
ENDBRANCH  20  22
ENDBRANCH   4  16
TORSDOF 4
ENDMDL
MODEL 5
REMARK VINA RESULT:      -8.9      1.960      2.958
REMARK  Name = 
REMARK  5 active torsions:
REMARK  status: ('A' for Active; 'I' for Inactive)
REMARK    1  A    between atoms: C_1  and  N_2
REMARK    2  A    between atoms: C_7  and  C_8
REMARK    3  A    between atoms: C_11  and  C_12
REMARK    4  A    between atoms: C_16  and  N_17
REMARK    5  A    between atoms: C_18  and  C_20
REMARK                            x       y       z     vdW  Elec       q    Type
REMARK                         _______ _______ _______ _____ _____    ______ ____
ROOT
ATOM      1  C   UNL     1       1.211   9.279  19.657  0.00  0.00    +0.000 A 
ATOM      2  N   UNL     1       1.749   9.701  18.501  0.00  0.00    +0.000 NA
ATOM      3  O   UNL     1       2.536   8.628  18.095  0.00  0.00    +0.000 OA
ATOM      4  C   UNL     1       2.398   7.658  19.046  0.00  0.00    +0.000 A 
ATOM      5  N   UNL     1       1.611   8.017  20.034  0.00  0.00    +0.000 NA
ENDROOT
BRANCH   1  12
ATOM      6  C   UNL     1      -2.875  12.768  23.680  0.00  0.00    +0.000 C 
ATOM      7  N   UNL     1      -2.483  12.440  22.336  0.00  0.00    +0.000 N 
ATOM      8  N   UNL     1      -3.071  13.044  21.287  0.00  0.00    +0.000 NA
ATOM      9  N   UNL     1      -2.490  12.581  20.187  0.00  0.00    +0.000 NA
ATOM     10  C   UNL     1      -1.531  11.678  20.559  0.00  0.00    +0.000 A 
ATOM     11  C   UNL     1      -0.638  10.922  19.789  0.00  0.00    +0.000 A 
ATOM     12  C   UNL     1       0.259  10.056  20.443  0.00  0.00    +0.000 A 
ATOM     13  C   UNL     1       0.243   9.961  21.845  0.00  0.00    +0.000 A 
ATOM     14  C   UNL     1      -0.642  10.711  22.628  0.00  0.00    +0.000 A 
ATOM     15  C   UNL     1      -1.512  11.561  21.942  0.00  0.00    +0.000 A 
ENDBRANCH   1  12
BRANCH   4  16
ATOM     16  C   UNL     1       3.080   6.393  18.810  0.00  0.00    +0.000 A 
ATOM     17  C   UNL     1       3.124   5.394  19.792  0.00  0.00    +0.000 A 
ATOM     18  C   UNL     1       3.820   4.212  19.561  0.00  0.00    +0.000 A 
ATOM     19  C   UNL     1       4.466   4.008  18.342  0.00  0.00    +0.000 A 
ATOM     20  C   UNL     1       4.420   4.974  17.336  0.00  0.00    +0.000 A 
ATOM     21  C   UNL     1       3.736   6.172  17.584  0.00  0.00    +0.000 A 
BRANCH  20  22
ATOM     22  N   UNL     1       5.044   4.810  16.080  0.00  0.00    +0.000 N 
ATOM     23  C   UNL     1       6.405   4.855  15.822  0.00  0.00    +0.000 C 
ATOM     24  O   UNL     1       7.280   5.008  16.670  0.00  0.00    +0.000 OA
ATOM     25  H   UNL     1       4.459   4.574  15.287  0.00  0.00    +0.000 HD
BRANCH  23  26
ATOM     26  C   UNL     1       6.745   4.665  14.426  0.00  0.00    +0.000 A 
ATOM     27  C   UNL     1       6.232   3.775  13.497  0.00  0.00    +0.000 A 
ATOM     28  C   UNL     1       6.905   4.023  12.280  0.00  0.00    +0.000 A 
ATOM     29  C   UNL     1       7.797   5.039  12.540  0.00  0.00    +0.000 A 
ATOM     30  O   UNL     1       7.709   5.439  13.836  0.00  0.00    +0.000 OA
ENDBRANCH  23  26
ENDBRANCH  20  22
ENDBRANCH   4  16
TORSDOF 4
ENDMDL
MODEL 6
REMARK VINA RESULT:      -8.8      1.509      1.932
REMARK  Name = 
REMARK  5 active torsions:
REMARK  status: ('A' for Active; 'I' for Inactive)
REMARK    1  A    between atoms: C_1  and  N_2
REMARK    2  A    between atoms: C_7  and  C_8
REMARK    3  A    between atoms: C_11  and  C_12
REMARK    4  A    between atoms: C_16  and  N_17
REMARK    5  A    between atoms: C_18  and  C_20
REMARK                            x       y       z     vdW  Elec       q    Type
REMARK                         _______ _______ _______ _____ _____    ______ ____
ROOT
ATOM      1  C   UNL     1       1.519   9.095  18.921  0.00  0.00    +0.000 A 
ATOM      2  N   UNL     1       1.851   9.320  17.639  0.00  0.00    +0.000 NA
ATOM      3  O   UNL     1       2.689   8.254  17.325  0.00  0.00    +0.000 OA
ATOM      4  C   UNL     1       2.783   7.484  18.448  0.00  0.00    +0.000 A 
ATOM      5  N   UNL     1       2.099   7.968  19.460  0.00  0.00    +0.000 NA
ENDROOT
BRANCH   1  12
ATOM      6  C   UNL     1      -2.996  12.984  22.011  0.00  0.00    +0.000 C 
ATOM      7  N   UNL     1      -1.869  12.098  22.132  0.00  0.00    +0.000 N 
ATOM      8  N   UNL     1      -1.402  11.751  23.345  0.00  0.00    +0.000 NA
ATOM      9  N   UNL     1      -0.397  10.904  23.155  0.00  0.00    +0.000 NA
ATOM     10  C   UNL     1      -0.240  10.725  21.807  0.00  0.00    +0.000 A 
ATOM     11  C   UNL     1       0.663   9.930  21.089  0.00  0.00    +0.000 A 
ATOM     12  C   UNL     1       0.601   9.933  19.683  0.00  0.00    +0.000 A 
ATOM     13  C   UNL     1      -0.354  10.729  19.026  0.00  0.00    +0.000 A 
ATOM     14  C   UNL     1      -1.264  11.527  19.730  0.00  0.00    +0.000 A 
ATOM     15  C   UNL     1      -1.173  11.492  21.122  0.00  0.00    +0.000 A 
ENDBRANCH   1  12
BRANCH   4  16
ATOM     16  C   UNL     1       3.559   6.257  18.351  0.00  0.00    +0.000 A 
ATOM     17  C   UNL     1       3.991   5.574  19.497  0.00  0.00    +0.000 A 
ATOM     18  C   UNL     1       4.771   4.428  19.380  0.00  0.00    +0.000 A 
ATOM     19  C   UNL     1       5.114   3.942  18.118  0.00  0.00    +0.000 A 
ATOM     20  C   UNL     1       4.678   4.587  16.959  0.00  0.00    +0.000 A 
ATOM     21  C   UNL     1       3.913   5.753  17.084  0.00  0.00    +0.000 A 
BRANCH  20  22
ATOM     22  N   UNL     1       4.986   4.127  15.660  0.00  0.00    +0.000 N 
ATOM     23  C   UNL     1       5.862   4.714  14.761  0.00  0.00    +0.000 C 
ATOM     24  O   UNL     1       6.538   5.716  14.986  0.00  0.00    +0.000 OA
ATOM     25  H   UNL     1       4.582   3.247  15.360  0.00  0.00    +0.000 HD
BRANCH  23  26
ATOM     26  C   UNL     1       5.961   4.019  13.494  0.00  0.00    +0.000 A 
ATOM     27  C   UNL     1       7.073   3.727  12.722  0.00  0.00    +0.000 A 
ATOM     28  C   UNL     1       6.610   3.018  11.592  0.00  0.00    +0.000 A 
ATOM     29  C   UNL     1       5.244   2.928  11.733  0.00  0.00    +0.000 A 
ATOM     30  O   UNL     1       4.837   3.529  12.882  0.00  0.00    +0.000 OA
ENDBRANCH  23  26
ENDBRANCH  20  22
ENDBRANCH   4  16
TORSDOF 4
ENDMDL
MODEL 7
REMARK VINA RESULT:      -8.6      5.843      8.069
REMARK  Name = 
REMARK  5 active torsions:
REMARK  status: ('A' for Active; 'I' for Inactive)
REMARK    1  A    between atoms: C_1  and  N_2
REMARK    2  A    between atoms: C_7  and  C_8
REMARK    3  A    between atoms: C_11  and  C_12
REMARK    4  A    between atoms: C_16  and  N_17
REMARK    5  A    between atoms: C_18  and  C_20
REMARK                            x       y       z     vdW  Elec       q    Type
REMARK                         _______ _______ _______ _____ _____    ______ ____
ROOT
ATOM      1  C   UNL     1       8.483   9.419  18.185  0.00  0.00    +0.000 A 
ATOM      2  N   UNL     1       8.952   8.582  19.124  0.00  0.00    +0.000 NA
ATOM      3  O   UNL     1       8.376   7.359  18.792  0.00  0.00    +0.000 OA
ATOM      4  C   UNL     1       7.612   7.574  17.682  0.00  0.00    +0.000 A 
ATOM      5  N   UNL     1       7.628   8.826  17.282  0.00  0.00    +0.000 NA
ENDROOT
BRANCH   1  12
ATOM      6  C   UNL     1       9.703  16.001  17.688  0.00  0.00    +0.000 C 
ATOM      7  N   UNL     1      10.195  14.697  18.046  0.00  0.00    +0.000 N 
ATOM      8  N   UNL     1      11.423  14.553  18.576  0.00  0.00    +0.000 NA
ATOM      9  N   UNL     1      11.591  13.263  18.842  0.00  0.00    +0.000 NA
ATOM     10  C   UNL     1      10.453  12.600  18.470  0.00  0.00    +0.000 A 
ATOM     11  C   UNL     1      10.118  11.242  18.550  0.00  0.00    +0.000 A 
ATOM     12  C   UNL     1       8.855  10.825  18.088  0.00  0.00    +0.000 A 
ATOM     13  C   UNL     1       7.958  11.768  17.557  0.00  0.00    +0.000 A 
ATOM     14  C   UNL     1       8.278  13.129  17.473  0.00  0.00    +0.000 A 
ATOM     15  C   UNL     1       9.537  13.502  17.945  0.00  0.00    +0.000 A 
ENDBRANCH   1  12
BRANCH   4  16
ATOM     16  C   UNL     1       6.952   6.418  17.093  0.00  0.00    +0.000 A 
ATOM     17  C   UNL     1       7.344   5.910  15.847  0.00  0.00    +0.000 A 
ATOM     18  C   UNL     1       6.668   4.832  15.284  0.00  0.00    +0.000 A 
ATOM     19  C   UNL     1       5.605   4.239  15.965  0.00  0.00    +0.000 A 
ATOM     20  C   UNL     1       5.208   4.708  17.219  0.00  0.00    +0.000 A 
ATOM     21  C   UNL     1       5.877   5.808  17.770  0.00  0.00    +0.000 A 
BRANCH  20  22
ATOM     22  N   UNL     1       4.148   4.134  17.955  0.00  0.00    +0.000 N 
ATOM     23  C   UNL     1       2.938   4.733  18.266  0.00  0.00    +0.000 C 
ATOM     24  O   UNL     1       2.593   5.856  17.904  0.00  0.00    +0.000 OA
ATOM     25  H   UNL     1       4.239   3.166  18.242  0.00  0.00    +0.000 HD
BRANCH  23  26
ATOM     26  C   UNL     1       2.052   3.898  19.051  0.00  0.00    +0.000 A 
ATOM     27  C   UNL     1       1.090   2.989  18.642  0.00  0.00    +0.000 A 
ATOM     28  C   UNL     1       0.527   2.436  19.813  0.00  0.00    +0.000 A 
ATOM     29  C   UNL     1       1.168   3.047  20.867  0.00  0.00    +0.000 A 
ATOM     30  O   UNL     1       2.095   3.934  20.419  0.00  0.00    +0.000 OA
ENDBRANCH  23  26
ENDBRANCH  20  22
ENDBRANCH   4  16
TORSDOF 4
ENDMDL
MODEL 8
REMARK VINA RESULT:      -8.6      0.804      1.441
REMARK  Name = 
REMARK  5 active torsions:
REMARK  status: ('A' for Active; 'I' for Inactive)
REMARK    1  A    between atoms: C_1  and  N_2
REMARK    2  A    between atoms: C_7  and  C_8
REMARK    3  A    between atoms: C_11  and  C_12
REMARK    4  A    between atoms: C_16  and  N_17
REMARK    5  A    between atoms: C_18  and  C_20
REMARK                            x       y       z     vdW  Elec       q    Type
REMARK                         _______ _______ _______ _____ _____    ______ ____
ROOT
ATOM      1  C   UNL     1       2.176   7.010  20.059  0.00  0.00    +0.000 A 
ATOM      2  N   UNL     1       2.074   5.798  20.631  0.00  0.00    +0.000 NA
ATOM      3  O   UNL     1       3.119   5.078  20.061  0.00  0.00    +0.000 OA
ATOM      4  C   UNL     1       3.755   5.923  19.198  0.00  0.00    +0.000 A 
ATOM      5  N   UNL     1       3.201   7.114  19.146  0.00  0.00    +0.000 NA
ENDROOT
BRANCH   1  12
ATOM      6  C   UNL     1      -1.781  12.055  22.043  0.00  0.00    +0.000 C 
ATOM      7  N   UNL     1      -0.960  11.491  21.005  0.00  0.00    +0.000 N 
ATOM      8  N   UNL     1      -0.747  12.165  19.861  0.00  0.00    +0.000 NA
ATOM      9  N   UNL     1       0.069  11.431  19.115  0.00  0.00    +0.000 NA
ATOM     10  C   UNL     1       0.365  10.287  19.806  0.00  0.00    +0.000 A 
ATOM     11  C   UNL     1       1.183   9.200  19.469  0.00  0.00    +0.000 A 
ATOM     12  C   UNL     1       1.311   8.138  20.384  0.00  0.00    +0.000 A 
ATOM     13  C   UNL     1       0.621   8.181  21.609  0.00  0.00    +0.000 A 
ATOM     14  C   UNL     1      -0.197   9.261  21.959  0.00  0.00    +0.000 A 
ATOM     15  C   UNL     1      -0.295  10.296  21.028  0.00  0.00    +0.000 A 
ENDBRANCH   1  12
BRANCH   4  16
ATOM     16  C   UNL     1       4.940   5.417  18.521  0.00  0.00    +0.000 A 
ATOM     17  C   UNL     1       6.204   5.476  19.123  0.00  0.00    +0.000 A 
ATOM     18  C   UNL     1       7.330   5.028  18.439  0.00  0.00    +0.000 A 
ATOM     19  C   UNL     1       7.203   4.502  17.153  0.00  0.00    +0.000 A 
ATOM     20  C   UNL     1       5.953   4.408  16.538  0.00  0.00    +0.000 A 
ATOM     21  C   UNL     1       4.828   4.882  17.223  0.00  0.00    +0.000 A 
BRANCH  20  22
ATOM     22  N   UNL     1       5.770   3.871  15.245  0.00  0.00    +0.000 N 
ATOM     23  C   UNL     1       6.345   4.328  14.070  0.00  0.00    +0.000 C 
ATOM     24  O   UNL     1       7.142   5.259  13.991  0.00  0.00    +0.000 OA
ATOM     25  H   UNL     1       5.213   3.028  15.156  0.00  0.00    +0.000 HD
BRANCH  23  26
ATOM     26  C   UNL     1       5.955   3.579  12.893  0.00  0.00    +0.000 A 
ATOM     27  C   UNL     1       6.709   2.762  12.066  0.00  0.00    +0.000 A 
ATOM     28  C   UNL     1       5.833   2.265  11.076  0.00  0.00    +0.000 A 
ATOM     29  C   UNL     1       4.601   2.816  11.347  0.00  0.00    +0.000 A 
ATOM     30  O   UNL     1       4.660   3.612  12.447  0.00  0.00    +0.000 OA
ENDBRANCH  23  26
ENDBRANCH  20  22
ENDBRANCH   4  16
TORSDOF 4
ENDMDL
MODEL 9
REMARK VINA RESULT:      -8.4      2.808      3.796
REMARK  Name = 
REMARK  5 active torsions:
REMARK  status: ('A' for Active; 'I' for Inactive)
REMARK    1  A    between atoms: C_1  and  N_2
REMARK    2  A    between atoms: C_7  and  C_8
REMARK    3  A    between atoms: C_11  and  C_12
REMARK    4  A    between atoms: C_16  and  N_17
REMARK    5  A    between atoms: C_18  and  C_20
REMARK                            x       y       z     vdW  Elec       q    Type
REMARK                         _______ _______ _______ _____ _____    ______ ____
ROOT
ATOM      1  C   UNL     1       0.809   9.748  18.273  0.00  0.00    +0.000 A 
ATOM      2  N   UNL     1       1.855  10.364  17.699  0.00  0.00    +0.000 NA
ATOM      3  O   UNL     1       2.840   9.382  17.673  0.00  0.00    +0.000 OA
ATOM      4  C   UNL     1       2.295   8.264  18.236  0.00  0.00    +0.000 A 
ATOM      5  N   UNL     1       1.058   8.444  18.638  0.00  0.00    +0.000 NA
ENDROOT
BRANCH   1  12
ATOM      6  C   UNL     1      -4.956  12.961  19.498  0.00  0.00    +0.000 C 
ATOM      7  N   UNL     1      -4.242  12.013  18.684  0.00  0.00    +0.000 N 
ATOM      8  N   UNL     1      -4.835  11.447  17.618  0.00  0.00    +0.000 NA
ATOM      9  N   UNL     1      -3.938  10.656  17.040  0.00  0.00    +0.000 NA
ATOM     10  C   UNL     1      -2.776  10.733  17.759  0.00  0.00    +0.000 A 
ATOM     11  C   UNL     1      -1.537  10.108  17.565  0.00  0.00    +0.000 A 
ATOM     12  C   UNL     1      -0.494  10.372  18.473  0.00  0.00    +0.000 A 
ATOM     13  C   UNL     1      -0.709  11.248  19.552  0.00  0.00    +0.000 A 
ATOM     14  C   UNL     1      -1.941  11.881  19.757  0.00  0.00    +0.000 A 
ATOM     15  C   UNL     1      -2.948  11.596  18.833  0.00  0.00    +0.000 A 
ENDBRANCH   1  12
BRANCH   4  16
ATOM     16  C   UNL     1       3.118   7.063  18.263  0.00  0.00    +0.000 A 
ATOM     17  C   UNL     1       3.339   6.357  19.453  0.00  0.00    +0.000 A 
ATOM     18  C   UNL     1       4.166   5.238  19.463  0.00  0.00    +0.000 A 
ATOM     19  C   UNL     1       4.769   4.804  18.283  0.00  0.00    +0.000 A 
ATOM     20  C   UNL     1       4.549   5.474  17.078  0.00  0.00    +0.000 A 
ATOM     21  C   UNL     1       3.733   6.612  17.079  0.00  0.00    +0.000 A 
BRANCH  20  22
ATOM     22  N   UNL     1       5.124   5.066  15.854  0.00  0.00    +0.000 N 
ATOM     23  C   UNL     1       6.406   5.344  15.409  0.00  0.00    +0.000 C 
ATOM     24  O   UNL     1       7.255   5.964  16.047  0.00  0.00    +0.000 OA
ATOM     25  H   UNL     1       4.580   4.456  15.254  0.00  0.00    +0.000 HD
BRANCH  23  26
ATOM     26  C   UNL     1       6.707   4.801  14.100  0.00  0.00    +0.000 A 
ATOM     27  C   UNL     1       6.169   3.706  13.445  0.00  0.00    +0.000 A 
ATOM     28  C   UNL     1       6.806   3.630  12.187  0.00  0.00    +0.000 A 
ATOM     29  C   UNL     1       7.702   4.674  12.152  0.00  0.00    +0.000 A 
ATOM     30  O   UNL     1       7.651   5.393  13.304  0.00  0.00    +0.000 OA
ENDBRANCH  23  26
ENDBRANCH  20  22
ENDBRANCH   4  16
TORSDOF 4
ENDMDL
