MODEL 1
REMARK VINA RESULT:      -7.7      0.000      0.000
REMARK  Name = 
REMARK  8 active torsions:
REMARK  status: ('A' for Active; 'I' for Inactive)
REMARK    1  A    between atoms: C_1  and  C_2
REMARK    2  A    between atoms: C_2  and  C_3
REMARK    3  A    between atoms: C_3  and  C_4
REMARK    4  A    between atoms: C_3  and  C_6
REMARK    5  A    between atoms: C_4  and  C_5
REMARK    6  A    between atoms: C_6  and  N_7
REMARK    7  A    between atoms: C_12  and  N_13
REMARK    8  A    between atoms: C_14  and  C_16
REMARK                            x       y       z     vdW  Elec       q    Type
REMARK                         _______ _______ _______ _____ _____    ______ ____
ROOT
ATOM      1  N   UNL     1       3.322   3.115  17.930  0.00  0.00    +0.000 NA
ATOM      2  C   UNL     1       2.373   2.393  18.789  0.00  0.00    +0.000 C 
ATOM      3  C   UNL     1       1.304   3.381  19.271  0.00  0.00    +0.000 C 
ATOM      4  C   UNL     1       1.229   3.561  20.780  0.00  0.00    +0.000 C 
ATOM      5  C   UNL     1       2.353   4.536  21.098  0.00  0.00    +0.000 C 
ATOM      6  C   UNL     1       2.383   5.502  19.906  0.00  0.00    +0.000 C 
ATOM      7  C   UNL     1       1.728   4.741  18.728  0.00  0.00    +0.000 C 
ATOM      8  C   UNL     1       2.670   4.389  17.585  0.00  0.00    +0.000 C 
ENDROOT
BRANCH   6   9
ATOM      9  N   UNL     1       1.654   6.729  20.227  0.00  0.00    +0.000 N 
ATOM     10  C   UNL     1       1.868   7.890  19.507  0.00  0.00    +0.000 C 
ATOM     11  O   UNL     1       2.619   7.965  18.545  0.00  0.00    +0.000 OA
ATOM     12  H   UNL     1       1.305   6.829  21.172  0.00  0.00    +0.000 HD
BRANCH  10  13
ATOM     13  C   UNL     1       1.139   9.101  19.975  0.00  0.00    +0.000 A 
ATOM     14  C   UNL     1       0.576   9.086  21.257  0.00  0.00    +0.000 A 
ATOM     15  C   UNL     1      -0.099  10.209  21.729  0.00  0.00    +0.000 A 
ATOM     16 CL   UNL     1      -0.801  10.186  23.300  0.00  0.00    +0.000 Cl
ATOM     17  C   UNL     1      -0.214  11.352  20.942  0.00  0.00    +0.000 A 
ATOM     18  C   UNL     1       0.363  11.370  19.674  0.00  0.00    +0.000 A 
ATOM     19 CL   UNL     1       0.247  12.784  18.701  0.00  0.00    +0.000 Cl
ATOM     20  C   UNL     1       1.041  10.252  19.185  0.00  0.00    +0.000 A 
ENDBRANCH  10  13
ENDBRANCH   6   9
BRANCH   1  21
ATOM     21  C   UNL     1       4.683   3.274  18.469  0.00  0.00    +0.000 C 
BRANCH  21  22
ATOM     22  C   UNL     1       5.418   4.562  17.999  0.00  0.00    +0.000 C 
BRANCH  22  24
ATOM     23  C   UNL     1       7.441   5.956  18.678  0.00  0.00    +0.000 C 
ATOM     24  C   UNL     1       6.170   5.257  19.152  0.00  0.00    +0.000 C 
ENDBRANCH  22  24
BRANCH  22  25
ATOM     25  C   UNL     1       6.300   4.303  16.753  0.00  0.00    +0.000 C 
ATOM     26  C   UNL     1       5.705   4.641  15.394  0.00  0.00    +0.000 C 
ENDBRANCH  22  25
ENDBRANCH  21  22
ENDBRANCH   1  21
TORSDOF 6
ENDMDL
MODEL 2
REMARK VINA RESULT:      -7.6      0.600      1.935
REMARK  Name = 
REMARK  8 active torsions:
REMARK  status: ('A' for Active; 'I' for Inactive)
REMARK    1  A    between atoms: C_1  and  C_2
REMARK    2  A    between atoms: C_2  and  C_3
REMARK    3  A    between atoms: C_3  and  C_4
REMARK    4  A    between atoms: C_3  and  C_6
REMARK    5  A    between atoms: C_4  and  C_5
REMARK    6  A    between atoms: C_6  and  N_7
REMARK    7  A    between atoms: C_12  and  N_13
REMARK    8  A    between atoms: C_14  and  C_16
REMARK                            x       y       z     vdW  Elec       q    Type
REMARK                         _______ _______ _______ _____ _____    ______ ____
ROOT
ATOM      1  N   UNL     1       2.862   2.838  17.725  0.00  0.00    +0.000 NA
ATOM      2  C   UNL     1       2.250   2.159  18.875  0.00  0.00    +0.000 C 
ATOM      3  C   UNL     1       1.292   3.138  19.564  0.00  0.00    +0.000 C 
ATOM      4  C   UNL     1       1.634   3.460  21.012  0.00  0.00    +0.000 C 
ATOM      5  C   UNL     1       2.728   4.512  20.915  0.00  0.00    +0.000 C 
ATOM      6  C   UNL     1       2.350   5.359  19.692  0.00  0.00    +0.000 C 
ATOM      7  C   UNL     1       1.446   4.458  18.816  0.00  0.00    +0.000 C 
ATOM      8  C   UNL     1       2.049   4.041  17.482  0.00  0.00    +0.000 C 
ENDROOT
BRANCH   6   9
ATOM      9  N   UNL     1       1.654   6.575  20.111  0.00  0.00    +0.000 N 
ATOM     10  C   UNL     1       1.887   7.781  19.474  0.00  0.00    +0.000 C 
ATOM     11  O   UNL     1       2.627   7.908  18.509  0.00  0.00    +0.000 OA
ATOM     12  H   UNL     1       1.321   6.615  21.066  0.00  0.00    +0.000 HD
BRANCH  10  13
ATOM     13  C   UNL     1       1.194   8.971  20.038  0.00  0.00    +0.000 A 
ATOM     14  C   UNL     1       1.090  10.120  19.244  0.00  0.00    +0.000 A 
ATOM     15  C   UNL     1       0.435  11.245  19.738  0.00  0.00    +0.000 A 
ATOM     16 CL   UNL     1       0.318  12.661  18.766  0.00  0.00    +0.000 Cl
ATOM     17  C   UNL     1      -0.127  11.238  21.011  0.00  0.00    +0.000 A 
ATOM     18  C   UNL     1      -0.038  10.087  21.792  0.00  0.00    +0.000 A 
ATOM     19 CL   UNL     1      -0.747  10.060  23.358  0.00  0.00    +0.000 Cl
ATOM     20  C   UNL     1       0.618   8.952  21.313  0.00  0.00    +0.000 A 
ENDBRANCH  10  13
ENDBRANCH   6   9
BRANCH   1  21
ATOM     21  C   UNL     1       4.305   3.112  17.835  0.00  0.00    +0.000 C 
BRANCH  21  22
ATOM     22  C   UNL     1       4.819   4.256  16.914  0.00  0.00    +0.000 C 
BRANCH  22  24
ATOM     23  C   UNL     1       5.949   4.997  19.076  0.00  0.00    +0.000 C 
ATOM     24  C   UNL     1       5.400   5.435  17.720  0.00  0.00    +0.000 C 
ENDBRANCH  22  24
BRANCH  22  25
ATOM     25  C   UNL     1       5.771   3.729  15.812  0.00  0.00    +0.000 C 
ATOM     26  C   UNL     1       6.295   4.737  14.801  0.00  0.00    +0.000 C 
ENDBRANCH  22  25
ENDBRANCH  21  22
ENDBRANCH   1  21
TORSDOF 6
ENDMDL
MODEL 3
REMARK VINA RESULT:      -7.2      1.305      2.082
REMARK  Name = 
REMARK  8 active torsions:
REMARK  status: ('A' for Active; 'I' for Inactive)
REMARK    1  A    between atoms: C_1  and  C_2
REMARK    2  A    between atoms: C_2  and  C_3
REMARK    3  A    between atoms: C_3  and  C_4
REMARK    4  A    between atoms: C_3  and  C_6
REMARK    5  A    between atoms: C_4  and  C_5
REMARK    6  A    between atoms: C_6  and  N_7
REMARK    7  A    between atoms: C_12  and  N_13
REMARK    8  A    between atoms: C_14  and  C_16
REMARK                            x       y       z     vdW  Elec       q    Type
REMARK                         _______ _______ _______ _____ _____    ______ ____
ROOT
ATOM      1  N   UNL     1       4.312   4.066  17.969  0.00  0.00    +0.000 NA
ATOM      2  C   UNL     1       3.388   3.202  18.716  0.00  0.00    +0.000 C 
ATOM      3  C   UNL     1       2.089   3.979  18.963  0.00  0.00    +0.000 C 
ATOM      4  C   UNL     1       1.737   4.191  20.429  0.00  0.00    +0.000 C 
ATOM      5  C   UNL     1       2.591   5.375  20.853  0.00  0.00    +0.000 C 
ATOM      6  C   UNL     1       2.635   6.289  19.620  0.00  0.00    +0.000 C 
ATOM      7  C   UNL     1       2.334   5.377  18.407  0.00  0.00    +0.000 C 
ATOM      8  C   UNL     1       3.499   5.176  17.447  0.00  0.00    +0.000 C 
ENDROOT
BRANCH   6   9
ATOM      9  N   UNL     1       1.647   7.360  19.747  0.00  0.00    +0.000 N 
ATOM     10  C   UNL     1       1.754   8.516  18.993  0.00  0.00    +0.000 C 
ATOM     11  O   UNL     1       2.623   8.702  18.153  0.00  0.00    +0.000 OA
ATOM     12  H   UNL     1       1.138   7.424  20.619  0.00  0.00    +0.000 HD
BRANCH  10  13
ATOM     13  C   UNL     1       0.746   9.577  19.265  0.00  0.00    +0.000 A 
ATOM     14  C   UNL     1      -0.103   9.972  18.224  0.00  0.00    +0.000 A 
ATOM     15  C   UNL     1      -1.066  10.953  18.451  0.00  0.00    +0.000 A 
ATOM     16 CL   UNL     1      -2.101  11.445  17.167  0.00  0.00    +0.000 Cl
ATOM     17  C   UNL     1      -1.200  11.540  19.705  0.00  0.00    +0.000 A 
ATOM     18  C   UNL     1      -0.365  11.131  20.744  0.00  0.00    +0.000 A 
ATOM     19 CL   UNL     1      -0.536  11.835  22.304  0.00  0.00    +0.000 Cl
ATOM     20  C   UNL     1       0.607  10.153  20.533  0.00  0.00    +0.000 A 
ENDBRANCH  10  13
ENDBRANCH   6   9
BRANCH   1  21
ATOM     21  C   UNL     1       5.513   4.504  18.699  0.00  0.00    +0.000 C 
BRANCH  21  22
ATOM     22  C   UNL     1       6.547   5.282  17.836  0.00  0.00    +0.000 C 
BRANCH  22  24
ATOM     23  C   UNL     1       7.889   7.428  18.137  0.00  0.00    +0.000 C 
ATOM     24  C   UNL     1       7.570   6.045  18.700  0.00  0.00    +0.000 C 
ENDBRANCH  22  24
BRANCH  22  25
ATOM     25  C   UNL     1       7.197   4.379  16.758  0.00  0.00    +0.000 C 
ATOM     26  C   UNL     1       6.956   4.746  15.301  0.00  0.00    +0.000 C 
ENDBRANCH  22  25
ENDBRANCH  21  22
ENDBRANCH   1  21
TORSDOF 6
ENDMDL
MODEL 4
REMARK VINA RESULT:      -7.2      0.917      1.707
REMARK  Name = 
REMARK  8 active torsions:
REMARK  status: ('A' for Active; 'I' for Inactive)
REMARK    1  A    between atoms: C_1  and  C_2
REMARK    2  A    between atoms: C_2  and  C_3
REMARK    3  A    between atoms: C_3  and  C_4
REMARK    4  A    between atoms: C_3  and  C_6
REMARK    5  A    between atoms: C_4  and  C_5
REMARK    6  A    between atoms: C_6  and  N_7
REMARK    7  A    between atoms: C_12  and  N_13
REMARK    8  A    between atoms: C_14  and  C_16
REMARK                            x       y       z     vdW  Elec       q    Type
REMARK                         _______ _______ _______ _____ _____    ______ ____
ROOT
ATOM      1  N   UNL     1       4.315   4.156  17.384  0.00  0.00    +0.000 NA
ATOM      2  C   UNL     1       3.355   3.211  17.970  0.00  0.00    +0.000 C 
ATOM      3  C   UNL     1       2.115   3.994  18.419  0.00  0.00    +0.000 C 
ATOM      4  C   UNL     1       1.812   3.918  19.908  0.00  0.00    +0.000 C 
ATOM      5  C   UNL     1       2.751   4.936  20.536  0.00  0.00    +0.000 C 
ATOM      6  C   UNL     1       2.824   6.082  19.517  0.00  0.00    +0.000 C 
ATOM      7  C   UNL     1       2.437   5.460  18.153  0.00  0.00    +0.000 C 
ATOM      8  C   UNL     1       3.564   5.397  17.131  0.00  0.00    +0.000 C 
ENDROOT
BRANCH   6   9
ATOM      9  N   UNL     1       1.911   7.159  19.897  0.00  0.00    +0.000 N 
ATOM     10  C   UNL     1       1.863   8.337  19.172  0.00  0.00    +0.000 C 
ATOM     11  O   UNL     1       2.520   8.540  18.162  0.00  0.00    +0.000 OA
ATOM     12  H   UNL     1       1.616   7.200  20.864  0.00  0.00    +0.000 HD
BRANCH  10  13
ATOM     13  C   UNL     1       0.963   9.400  19.698  0.00  0.00    +0.000 A 
ATOM     14  C   UNL     1       0.563   9.330  21.038  0.00  0.00    +0.000 A 
ATOM     15  C   UNL     1      -0.267  10.318  21.564  0.00  0.00    +0.000 A 
ATOM     16 CL   UNL     1      -0.768  10.227  23.208  0.00  0.00    +0.000 Cl
ATOM     17  C   UNL     1      -0.697  11.380  20.773  0.00  0.00    +0.000 A 
ATOM     18  C   UNL     1      -0.282  11.455  19.445  0.00  0.00    +0.000 A 
ATOM     19 CL   UNL     1      -0.789  12.774  18.464  0.00  0.00    +0.000 Cl
ATOM     20  C   UNL     1       0.547  10.472  18.902  0.00  0.00    +0.000 A 
ENDBRANCH  10  13
ENDBRANCH   6   9
BRANCH   1  21
ATOM     21  C   UNL     1       5.559   4.363  18.144  0.00  0.00    +0.000 C 
BRANCH  21  22
ATOM     22  C   UNL     1       6.820   4.608  17.268  0.00  0.00    +0.000 C 
BRANCH  22  24
ATOM     23  C   UNL     1       6.693   5.032  14.757  0.00  0.00    +0.000 C 
ATOM     24  C   UNL     1       6.687   3.982  15.866  0.00  0.00    +0.000 C 
ENDBRANCH  22  24
BRANCH  22  25
ATOM     25  C   UNL     1       7.225   6.103  17.242  0.00  0.00    +0.000 C 
ATOM     26  C   UNL     1       7.761   6.704  18.533  0.00  0.00    +0.000 C 
ENDBRANCH  22  25
ENDBRANCH  21  22
ENDBRANCH   1  21
TORSDOF 6
ENDMDL
MODEL 5
REMARK VINA RESULT:      -7.2      4.429      7.804
REMARK  Name = 
REMARK  8 active torsions:
REMARK  status: ('A' for Active; 'I' for Inactive)
REMARK    1  A    between atoms: C_1  and  C_2
REMARK    2  A    between atoms: C_2  and  C_3
REMARK    3  A    between atoms: C_3  and  C_4
REMARK    4  A    between atoms: C_3  and  C_6
REMARK    5  A    between atoms: C_4  and  C_5
REMARK    6  A    between atoms: C_6  and  N_7
REMARK    7  A    between atoms: C_12  and  N_13
REMARK    8  A    between atoms: C_14  and  C_16
REMARK                            x       y       z     vdW  Elec       q    Type
REMARK                         _______ _______ _______ _____ _____    ______ ____
ROOT
ATOM      1  N   UNL     1       2.918   4.728  20.630  0.00  0.00    +0.000 NA
ATOM      2  C   UNL     1       2.617   3.291  20.581  0.00  0.00    +0.000 C 
ATOM      3  C   UNL     1       3.469   2.655  19.476  0.00  0.00    +0.000 C 
ATOM      4  C   UNL     1       2.679   1.998  18.353  0.00  0.00    +0.000 C 
ATOM      5  C   UNL     1       2.276   3.155  17.452  0.00  0.00    +0.000 C 
ATOM      6  C   UNL     1       3.467   4.122  17.498  0.00  0.00    +0.000 C 
ATOM      7  C   UNL     1       4.215   3.809  18.816  0.00  0.00    +0.000 C 
ATOM      8  C   UNL     1       4.162   4.911  19.865  0.00  0.00    +0.000 C 
ENDROOT
BRANCH   6   9
ATOM      9  N   UNL     1       4.326   3.925  16.331  0.00  0.00    +0.000 N 
ATOM     10  C   UNL     1       5.109   4.957  15.845  0.00  0.00    +0.000 C 
ATOM     11  O   UNL     1       5.180   6.061  16.367  0.00  0.00    +0.000 OA
ATOM     12  H   UNL     1       4.066   3.197  15.678  0.00  0.00    +0.000 HD
BRANCH  10  13
ATOM     13  C   UNL     1       5.877   4.675  14.601  0.00  0.00    +0.000 A 
ATOM     14  C   UNL     1       5.397   3.687  13.732  0.00  0.00    +0.000 A 
ATOM     15  C   UNL     1       6.085   3.410  12.553  0.00  0.00    +0.000 A 
ATOM     16 CL   UNL     1       5.502   2.188  11.491  0.00  0.00    +0.000 Cl
ATOM     17  C   UNL     1       7.242   4.111  12.224  0.00  0.00    +0.000 A 
ATOM     18  C   UNL     1       7.706   5.105  13.082  0.00  0.00    +0.000 A 
ATOM     19 CL   UNL     1       9.122   5.993  12.675  0.00  0.00    +0.000 Cl
ATOM     20  C   UNL     1       7.030   5.394  14.269  0.00  0.00    +0.000 A 
ENDBRANCH  10  13
ENDBRANCH   6   9
BRANCH   1  21
ATOM     21  C   UNL     1       1.829   5.627  20.212  0.00  0.00    +0.000 C 
BRANCH  21  22
ATOM     22  C   UNL     1       2.292   7.049  19.783  0.00  0.00    +0.000 C 
BRANCH  22  24
ATOM     23  C   UNL     1       2.252   8.789  17.920  0.00  0.00    +0.000 C 
ATOM     24  C   UNL     1       2.009   7.328  18.293  0.00  0.00    +0.000 C 
ENDBRANCH  22  24
BRANCH  22  25
ATOM     25  C   UNL     1       1.751   8.146  20.733  0.00  0.00    +0.000 C 
ATOM     26  C   UNL     1       0.294   8.044  21.159  0.00  0.00    +0.000 C 
ENDBRANCH  22  25
ENDBRANCH  21  22
ENDBRANCH   1  21
TORSDOF 6
ENDMDL
MODEL 6
REMARK VINA RESULT:      -7.2      0.989      2.439
REMARK  Name = 
REMARK  8 active torsions:
REMARK  status: ('A' for Active; 'I' for Inactive)
REMARK    1  A    between atoms: C_1  and  C_2
REMARK    2  A    between atoms: C_2  and  C_3
REMARK    3  A    between atoms: C_3  and  C_4
REMARK    4  A    between atoms: C_3  and  C_6
REMARK    5  A    between atoms: C_4  and  C_5
REMARK    6  A    between atoms: C_6  and  N_7
REMARK    7  A    between atoms: C_12  and  N_13
REMARK    8  A    between atoms: C_14  and  C_16
REMARK                            x       y       z     vdW  Elec       q    Type
REMARK                         _______ _______ _______ _____ _____    ______ ____
ROOT
ATOM      1  N   UNL     1       4.389   4.054  17.589  0.00  0.00    +0.000 NA
ATOM      2  C   UNL     1       3.440   3.099  18.179  0.00  0.00    +0.000 C 
ATOM      3  C   UNL     1       2.162   3.856  18.560  0.00  0.00    +0.000 C 
ATOM      4  C   UNL     1       1.813   3.822  20.040  0.00  0.00    +0.000 C 
ATOM      5  C   UNL     1       2.698   4.892  20.660  0.00  0.00    +0.000 C 
ATOM      6  C   UNL     1       2.769   6.003  19.603  0.00  0.00    +0.000 C 
ATOM      7  C   UNL     1       2.446   5.322  18.252  0.00  0.00    +0.000 C 
ATOM      8  C   UNL     1       3.607   5.259  17.269  0.00  0.00    +0.000 C 
ENDROOT
BRANCH   6   9
ATOM      9  N   UNL     1       1.809   7.062  19.915  0.00  0.00    +0.000 N 
ATOM     10  C   UNL     1       1.850   8.274  19.249  0.00  0.00    +0.000 C 
ATOM     11  O   UNL     1       2.630   8.526  18.342  0.00  0.00    +0.000 OA
ATOM     12  H   UNL     1       1.393   7.057  20.838  0.00  0.00    +0.000 HD
BRANCH  10  13
ATOM     13  C   UNL     1       0.886   9.312  19.706  0.00  0.00    +0.000 A 
ATOM     14  C   UNL     1       0.281  10.129  18.743  0.00  0.00    +0.000 A 
ATOM     15  C   UNL     1      -0.637  11.100  19.138  0.00  0.00    +0.000 A 
ATOM     16 CL   UNL     1      -1.372  12.111  17.956  0.00  0.00    +0.000 Cl
ATOM     17  C   UNL     1      -0.966  11.262  20.481  0.00  0.00    +0.000 A 
ATOM     18  C   UNL     1      -0.375  10.435  21.434  0.00  0.00    +0.000 A 
ATOM     19 CL   UNL     1      -0.790  10.612  23.094  0.00  0.00    +0.000 Cl
ATOM     20  C   UNL     1       0.548   9.460  21.056  0.00  0.00    +0.000 A 
ENDBRANCH  10  13
ENDBRANCH   6   9
BRANCH   1  21
ATOM     21  C   UNL     1       5.599   4.328  18.381  0.00  0.00    +0.000 C 
BRANCH  21  22
ATOM     22  C   UNL     1       6.839   4.752  17.542  0.00  0.00    +0.000 C 
BRANCH  22  24
ATOM     23  C   UNL     1       6.629   5.134  15.031  0.00  0.00    +0.000 C 
ATOM     24  C   UNL     1       6.843   4.108  16.142  0.00  0.00    +0.000 C 
ENDBRANCH  22  24
BRANCH  22  25
ATOM     25  C   UNL     1       7.022   6.290  17.518  0.00  0.00    +0.000 C 
ATOM     26  C   UNL     1       8.007   6.892  18.509  0.00  0.00    +0.000 C 
ENDBRANCH  22  25
ENDBRANCH  21  22
ENDBRANCH   1  21
TORSDOF 6
ENDMDL
MODEL 7
REMARK VINA RESULT:      -7.1      4.344      7.898
REMARK  Name = 
REMARK  8 active torsions:
REMARK  status: ('A' for Active; 'I' for Inactive)
REMARK    1  A    between atoms: C_1  and  C_2
REMARK    2  A    between atoms: C_2  and  C_3
REMARK    3  A    between atoms: C_3  and  C_4
REMARK    4  A    between atoms: C_3  and  C_6
REMARK    5  A    between atoms: C_4  and  C_5
REMARK    6  A    between atoms: C_6  and  N_7
REMARK    7  A    between atoms: C_12  and  N_13
REMARK    8  A    between atoms: C_14  and  C_16
REMARK                            x       y       z     vdW  Elec       q    Type
REMARK                         _______ _______ _______ _____ _____    ______ ____
ROOT
ATOM      1  N   UNL     1       2.980   4.767  20.575  0.00  0.00    +0.000 NA
ATOM      2  C   UNL     1       2.747   3.317  20.597  0.00  0.00    +0.000 C 
ATOM      3  C   UNL     1       3.600   2.671  19.498  0.00  0.00    +0.000 C 
ATOM      4  C   UNL     1       2.813   1.928  18.428  0.00  0.00    +0.000 C 
ATOM      5  C   UNL     1       2.331   3.022  17.488  0.00  0.00    +0.000 C 
ATOM      6  C   UNL     1       3.475   4.045  17.458  0.00  0.00    +0.000 C 
ATOM      7  C   UNL     1       4.272   3.828  18.767  0.00  0.00    +0.000 C 
ATOM      8  C   UNL     1       4.193   4.973  19.767  0.00  0.00    +0.000 C 
ENDROOT
BRANCH   6   9
ATOM      9  N   UNL     1       4.312   3.836  16.276  0.00  0.00    +0.000 N 
ATOM     10  C   UNL     1       5.012   4.885  15.709  0.00  0.00    +0.000 C 
ATOM     11  O   UNL     1       5.027   6.019  16.166  0.00  0.00    +0.000 OA
ATOM     12  H   UNL     1       4.081   3.056  15.674  0.00  0.00    +0.000 HD
BRANCH  10  13
ATOM     13  C   UNL     1       5.761   4.581  14.459  0.00  0.00    +0.000 A 
ATOM     14  C   UNL     1       6.922   5.312  14.184  0.00  0.00    +0.000 A 
ATOM     15  C   UNL     1       7.653   5.041  13.029  0.00  0.00    +0.000 A 
ATOM     16 CL   UNL     1       9.075   5.948  12.685  0.00  0.00    +0.000 Cl
ATOM     17  C   UNL     1       7.246   4.043  12.149  0.00  0.00    +0.000 A 
ATOM     18  C   UNL     1       6.100   3.304  12.435  0.00  0.00    +0.000 A 
ATOM     19 CL   UNL     1       5.599   2.054  11.365  0.00  0.00    +0.000 Cl
ATOM     20  C   UNL     1       5.354   3.566  13.586  0.00  0.00    +0.000 A 
ENDBRANCH  10  13
ENDBRANCH   6   9
BRANCH   1  21
ATOM     21  C   UNL     1       1.839   5.594  20.148  0.00  0.00    +0.000 C 
BRANCH  21  22
ATOM     22  C   UNL     1       2.169   7.101  19.950  0.00  0.00    +0.000 C 
BRANCH  22  24
ATOM     23  C   UNL     1       3.125   8.029  17.777  0.00  0.00    +0.000 C 
ATOM     24  C   UNL     1       1.867   7.581  18.517  0.00  0.00    +0.000 C 
ENDBRANCH  22  24
BRANCH  22  25
ATOM     25  C   UNL     1       1.525   7.984  21.048  0.00  0.00    +0.000 C 
ATOM     26  C   UNL     1       0.522   9.037  20.598  0.00  0.00    +0.000 C 
ENDBRANCH  22  25
ENDBRANCH  21  22
ENDBRANCH   1  21
TORSDOF 6
ENDMDL
MODEL 8
REMARK VINA RESULT:      -7.1      0.865      2.026
REMARK  Name = 
REMARK  8 active torsions:
REMARK  status: ('A' for Active; 'I' for Inactive)
REMARK    1  A    between atoms: C_1  and  C_2
REMARK    2  A    between atoms: C_2  and  C_3
REMARK    3  A    between atoms: C_3  and  C_4
REMARK    4  A    between atoms: C_3  and  C_6
REMARK    5  A    between atoms: C_4  and  C_5
REMARK    6  A    between atoms: C_6  and  N_7
REMARK    7  A    between atoms: C_12  and  N_13
REMARK    8  A    between atoms: C_14  and  C_16
REMARK                            x       y       z     vdW  Elec       q    Type
REMARK                         _______ _______ _______ _____ _____    ______ ____
ROOT
ATOM      1  N   UNL     1       4.218   4.013  17.459  0.00  0.00    +0.000 NA
ATOM      2  C   UNL     1       3.355   3.077  18.192  0.00  0.00    +0.000 C 
ATOM      3  C   UNL     1       2.137   3.847  18.715  0.00  0.00    +0.000 C 
ATOM      4  C   UNL     1       1.982   3.854  20.229  0.00  0.00    +0.000 C 
ATOM      5  C   UNL     1       2.939   4.939  20.699  0.00  0.00    +0.000 C 
ATOM      6  C   UNL     1       2.871   6.020  19.612  0.00  0.00    +0.000 C 
ATOM      7  C   UNL     1       2.376   5.303  18.332  0.00  0.00    +0.000 C 
ATOM      8  C   UNL     1       3.400   5.211  17.209  0.00  0.00    +0.000 C 
ENDROOT
BRANCH   6   9
ATOM      9  N   UNL     1       1.959   7.090  20.016  0.00  0.00    +0.000 N 
ATOM     10  C   UNL     1       1.878   8.265  19.290  0.00  0.00    +0.000 C 
ATOM     11  O   UNL     1       2.502   8.472  18.260  0.00  0.00    +0.000 OA
ATOM     12  H   UNL     1       1.693   7.132  20.992  0.00  0.00    +0.000 HD
BRANCH  10  13
ATOM     13  C   UNL     1       0.985   9.321  19.840  0.00  0.00    +0.000 A 
ATOM     14  C   UNL     1       0.554  10.342  18.983  0.00  0.00    +0.000 A 
ATOM     15  C   UNL     1      -0.294  11.337  19.464  0.00  0.00    +0.000 A 
ATOM     16 CL   UNL     1      -0.813  12.597  18.414  0.00  0.00    +0.000 Cl
ATOM     17  C   UNL     1      -0.727  11.323  20.787  0.00  0.00    +0.000 A 
ATOM     18  C   UNL     1      -0.311  10.296  21.632  0.00  0.00    +0.000 A 
ATOM     19 CL   UNL     1      -0.856  10.257  23.263  0.00  0.00    +0.000 Cl
ATOM     20  C   UNL     1       0.541   9.293  21.167  0.00  0.00    +0.000 A 
ENDBRANCH  10  13
ENDBRANCH   6   9
BRANCH   1  21
ATOM     21  C   UNL     1       5.521   4.305  18.078  0.00  0.00    +0.000 C 
BRANCH  21  22
ATOM     22  C   UNL     1       6.441   5.239  17.242  0.00  0.00    +0.000 C 
BRANCH  22  24
ATOM     23  C   UNL     1       7.376   5.581  19.589  0.00  0.00    +0.000 C 
ATOM     24  C   UNL     1       7.505   5.940  18.110  0.00  0.00    +0.000 C 
ENDBRANCH  22  24
BRANCH  22  25
ATOM     25  C   UNL     1       7.030   4.515  16.005  0.00  0.00    +0.000 C 
ATOM     26  C   UNL     1       6.330   4.730  14.671  0.00  0.00    +0.000 C 
ENDBRANCH  22  25
ENDBRANCH  21  22
ENDBRANCH   1  21
TORSDOF 6
ENDMDL
MODEL 9
REMARK VINA RESULT:      -7.0      0.400      2.270
REMARK  Name = 
REMARK  8 active torsions:
REMARK  status: ('A' for Active; 'I' for Inactive)
REMARK    1  A    between atoms: C_1  and  C_2
REMARK    2  A    between atoms: C_2  and  C_3
REMARK    3  A    between atoms: C_3  and  C_4
REMARK    4  A    between atoms: C_3  and  C_6
REMARK    5  A    between atoms: C_4  and  C_5
REMARK    6  A    between atoms: C_6  and  N_7
REMARK    7  A    between atoms: C_12  and  N_13
REMARK    8  A    between atoms: C_14  and  C_16
REMARK                            x       y       z     vdW  Elec       q    Type
REMARK                         _______ _______ _______ _____ _____    ______ ____
ROOT
ATOM      1  N   UNL     1       3.218   3.113  18.037  0.00  0.00    +0.000 NA
ATOM      2  C   UNL     1       2.285   2.394  18.914  0.00  0.00    +0.000 C 
ATOM      3  C   UNL     1       1.247   3.392  19.441  0.00  0.00    +0.000 C 
ATOM      4  C   UNL     1       1.220   3.553  20.954  0.00  0.00    +0.000 C 
ATOM      5  C   UNL     1       2.368   4.505  21.251  0.00  0.00    +0.000 C 
ATOM      6  C   UNL     1       2.378   5.487  20.071  0.00  0.00    +0.000 C 
ATOM      7  C   UNL     1       1.675   4.753  18.904  0.00  0.00    +0.000 C 
ATOM      8  C   UNL     1       2.577   4.402  17.728  0.00  0.00    +0.000 C 
ENDROOT
BRANCH   6   9
ATOM      9  N   UNL     1       1.678   6.720  20.431  0.00  0.00    +0.000 N 
ATOM     10  C   UNL     1       1.812   7.862  19.662  0.00  0.00    +0.000 C 
ATOM     11  O   UNL     1       2.463   7.912  18.628  0.00  0.00    +0.000 OA
ATOM     12  H   UNL     1       1.425   6.846  21.403  0.00  0.00    +0.000 HD
BRANCH  10  13
ATOM     13  C   UNL     1       1.128   9.083  20.167  0.00  0.00    +0.000 A 
ATOM     14  C   UNL     1       1.116  10.224  19.355  0.00  0.00    +0.000 A 
ATOM     15  C   UNL     1       0.471  11.379  19.794  0.00  0.00    +0.000 A 
ATOM     16 CL   UNL     1       0.466  12.783  18.800  0.00  0.00    +0.000 Cl
ATOM     17  C   UNL     1      -0.169  11.409  21.029  0.00  0.00    +0.000 A 
ATOM     18  C   UNL     1      -0.171  10.266  21.827  0.00  0.00    +0.000 A 
ATOM     19 CL   UNL     1      -0.977  10.285  23.346  0.00  0.00    +0.000 Cl
ATOM     20  C   UNL     1       0.473   9.102  21.404  0.00  0.00    +0.000 A 
ENDBRANCH  10  13
ENDBRANCH   6   9
BRANCH   1  21
ATOM     21  C   UNL     1       4.597   3.244  18.536  0.00  0.00    +0.000 C 
BRANCH  21  22
ATOM     22  C   UNL     1       5.548   4.052  17.607  0.00  0.00    +0.000 C 
BRANCH  22  24
ATOM     23  C   UNL     1       6.129   4.592  15.184  0.00  0.00    +0.000 C 
ATOM     24  C   UNL     1       5.068   4.055  16.143  0.00  0.00    +0.000 C 
ENDBRANCH  22  24
BRANCH  22  25
ATOM     25  C   UNL     1       5.841   5.466  18.167  0.00  0.00    +0.000 C 
ATOM     26  C   UNL     1       7.133   5.656  18.946  0.00  0.00    +0.000 C 
ENDBRANCH  22  25
ENDBRANCH  21  22
ENDBRANCH   1  21
TORSDOF 6
ENDMDL
