MODEL 1
REMARK VINA RESULT:      -7.5      0.000      0.000
REMARK  Name = 
REMARK  3 active torsions:
REMARK  status: ('A' for Active; 'I' for Inactive)
REMARK    1  A    between atoms: C_4  and  N_5
REMARK    2  A    between atoms: N_5  and  C_6
REMARK    3  A    between atoms: C_6  and  C_7
REMARK                            x       y       z     vdW  Elec       q    Type
REMARK                         _______ _______ _______ _____ _____    ______ ____
ROOT
ATOM      1  O   UNL     1       0.961   4.284  17.126  0.00  0.00    +0.000 OA
ATOM      2  C   UNL     1       2.008   4.010  17.701  0.00  0.00    +0.000 C 
ATOM      3  C   UNL     1       3.298   4.162  17.009  0.00  0.00    +0.000 C 
ATOM      4  C   UNL     1       4.474   3.878  17.580  0.00  0.00    +0.000 C 
ATOM      5  C   UNL     1       4.505   3.417  19.013  0.00  0.00    +0.000 C 
ATOM      6  O   UNL     1       5.579   3.171  19.564  0.00  0.00    +0.000 OA
ATOM      7  C   UNL     1       3.230   3.267  19.734  0.00  0.00    +0.000 A 
ATOM      8  C   UNL     1       3.230   2.848  21.075  0.00  0.00    +0.000 A 
ATOM      9  C   UNL     1       2.024   2.660  21.751  0.00  0.00    +0.000 A 
ATOM     10  C   UNL     1       0.814   2.890  21.094  0.00  0.00    +0.000 A 
ATOM     11  C   UNL     1       0.812   3.328  19.769  0.00  0.00    +0.000 A 
ATOM     12  C   UNL     1       2.023   3.525  19.092  0.00  0.00    +0.000 A 
ENDROOT
BRANCH   4  13
ATOM     13  N   UNL     1       5.712   3.949  16.948  0.00  0.00    +0.000 N 
ATOM     14  H   UNL     1       6.390   3.367  17.463  0.00  0.00    +0.000 HD
BRANCH  13  15
ATOM     15  C   UNL     1       6.328   5.182  16.467  0.00  0.00    +0.000 C 
BRANCH  15  16
ATOM     16  C   UNL     1       6.637   6.164  17.591  0.00  0.00    +0.000 C 
ATOM     17  C   UNL     1       7.723   5.813  18.650  0.00  0.00    +0.000 C 
ATOM     18  C   UNL     1       8.134   7.302  18.613  0.00  0.00    +0.000 C 
ATOM     19  C   UNL     1       7.558   7.348  17.184  0.00  0.00    +0.000 C 
ENDBRANCH  15  16
ENDBRANCH  13  15
ENDBRANCH   4  13
TORSDOF 3
ENDMDL
MODEL 2
REMARK VINA RESULT:      -7.5      1.677      5.568
REMARK  Name = 
REMARK  3 active torsions:
REMARK  status: ('A' for Active; 'I' for Inactive)
REMARK    1  A    between atoms: C_4  and  N_5
REMARK    2  A    between atoms: N_5  and  C_6
REMARK    3  A    between atoms: C_6  and  C_7
REMARK                            x       y       z     vdW  Elec       q    Type
REMARK                         _______ _______ _______ _____ _____    ______ ____
ROOT
ATOM      1  O   UNL     1       5.166   6.776  15.352  0.00  0.00    +0.000 OA
ATOM      2  C   UNL     1       5.178   6.045  16.336  0.00  0.00    +0.000 C 
ATOM      3  C   UNL     1       4.160   4.993  16.494  0.00  0.00    +0.000 C 
ATOM      4  C   UNL     1       4.118   4.166  17.544  0.00  0.00    +0.000 C 
ATOM      5  C   UNL     1       5.176   4.272  18.609  0.00  0.00    +0.000 C 
ATOM      6  O   UNL     1       5.167   3.506  19.573  0.00  0.00    +0.000 OA
ATOM      7  C   UNL     1       6.215   5.308  18.472  0.00  0.00    +0.000 A 
ATOM      8  C   UNL     1       7.220   5.423  19.446  0.00  0.00    +0.000 A 
ATOM      9  C   UNL     1       8.181   6.430  19.345  0.00  0.00    +0.000 A 
ATOM     10  C   UNL     1       8.143   7.325  18.275  0.00  0.00    +0.000 A 
ATOM     11  C   UNL     1       7.158   7.199  17.295  0.00  0.00    +0.000 A 
ATOM     12  C   UNL     1       6.198   6.182  17.389  0.00  0.00    +0.000 A 
ENDROOT
BRANCH   4  13
ATOM     13  N   UNL     1       3.142   3.199  17.766  0.00  0.00    +0.000 N 
ATOM     14  H   UNL     1       3.317   2.392  17.147  0.00  0.00    +0.000 HD
BRANCH  13  15
ATOM     15  C   UNL     1       1.713   3.475  17.886  0.00  0.00    +0.000 C 
BRANCH  15  16
ATOM     16  C   UNL     1       1.192   3.275  19.305  0.00  0.00    +0.000 C 
ATOM     17  C   UNL     1       1.928   2.301  20.270  0.00  0.00    +0.000 C 
ATOM     18  C   UNL     1       1.637   3.317  21.397  0.00  0.00    +0.000 C 
ATOM     19  C   UNL     1       1.580   4.401  20.303  0.00  0.00    +0.000 C 
ENDBRANCH  15  16
ENDBRANCH  13  15
ENDBRANCH   4  13
TORSDOF 3
ENDMDL
MODEL 3
REMARK VINA RESULT:      -7.2      1.621      2.216
REMARK  Name = 
REMARK  3 active torsions:
REMARK  status: ('A' for Active; 'I' for Inactive)
REMARK    1  A    between atoms: C_4  and  N_5
REMARK    2  A    between atoms: N_5  and  C_6
REMARK    3  A    between atoms: C_6  and  C_7
REMARK                            x       y       z     vdW  Elec       q    Type
REMARK                         _______ _______ _______ _____ _____    ______ ____
ROOT
ATOM      1  O   UNL     1       3.641   1.253  18.034  0.00  0.00    +0.000 OA
ATOM      2  C   UNL     1       3.591   2.476  18.003  0.00  0.00    +0.000 C 
ATOM      3  C   UNL     1       4.336   3.226  16.979  0.00  0.00    +0.000 C 
ATOM      4  C   UNL     1       4.324   4.561  16.894  0.00  0.00    +0.000 C 
ATOM      5  C   UNL     1       3.482   5.353  17.858  0.00  0.00    +0.000 C 
ATOM      6  O   UNL     1       3.440   6.582  17.782  0.00  0.00    +0.000 OA
ATOM      7  C   UNL     1       2.716   4.630  18.887  0.00  0.00    +0.000 A 
ATOM      8  C   UNL     1       1.914   5.343  19.793  0.00  0.00    +0.000 A 
ATOM      9  C   UNL     1       1.220   4.667  20.798  0.00  0.00    +0.000 A 
ATOM     10  C   UNL     1       1.323   3.280  20.903  0.00  0.00    +0.000 A 
ATOM     11  C   UNL     1       2.102   2.566  19.990  0.00  0.00    +0.000 A 
ATOM     12  C   UNL     1       2.791   3.243  18.975  0.00  0.00    +0.000 A 
ENDROOT
BRANCH   4  13
ATOM     13  N   UNL     1       5.058   5.314  15.983  0.00  0.00    +0.000 N 
ATOM     14  H   UNL     1       4.488   5.477  15.139  0.00  0.00    +0.000 HD
BRANCH  13  15
ATOM     15  C   UNL     1       6.456   5.069  15.639  0.00  0.00    +0.000 C 
BRANCH  15  16
ATOM     16  C   UNL     1       7.427   5.709  16.625  0.00  0.00    +0.000 C 
ATOM     17  C   UNL     1       6.974   6.935  17.472  0.00  0.00    +0.000 C 
ATOM     18  C   UNL     1       7.779   6.328  18.643  0.00  0.00    +0.000 C 
ATOM     19  C   UNL     1       7.571   4.954  17.976  0.00  0.00    +0.000 C 
ENDBRANCH  15  16
ENDBRANCH  13  15
ENDBRANCH   4  13
TORSDOF 3
ENDMDL
MODEL 4
REMARK VINA RESULT:      -7.2      1.680      2.643
REMARK  Name = 
REMARK  3 active torsions:
REMARK  status: ('A' for Active; 'I' for Inactive)
REMARK    1  A    between atoms: C_4  and  N_5
REMARK    2  A    between atoms: N_5  and  C_6
REMARK    3  A    between atoms: C_6  and  C_7
REMARK                            x       y       z     vdW  Elec       q    Type
REMARK                         _______ _______ _______ _____ _____    ______ ____
ROOT
ATOM      1  O   UNL     1       0.970   4.017  17.101  0.00  0.00    +0.000 OA
ATOM      2  C   UNL     1       2.047   3.873  17.667  0.00  0.00    +0.000 C 
ATOM      3  C   UNL     1       3.307   4.095  16.939  0.00  0.00    +0.000 C 
ATOM      4  C   UNL     1       4.513   3.953  17.500  0.00  0.00    +0.000 C 
ATOM      5  C   UNL     1       4.610   3.587  18.956  0.00  0.00    +0.000 C 
ATOM      6  O   UNL     1       5.711   3.472  19.497  0.00  0.00    +0.000 OA
ATOM      7  C   UNL     1       3.365   3.369  19.715  0.00  0.00    +0.000 A 
ATOM      8  C   UNL     1       3.426   3.036  21.077  0.00  0.00    +0.000 A 
ATOM      9  C   UNL     1       2.253   2.785  21.791  0.00  0.00    +0.000 A 
ATOM     10  C   UNL     1       1.017   2.865  21.148  0.00  0.00    +0.000 A 
ATOM     11  C   UNL     1       0.953   3.218  19.799  0.00  0.00    +0.000 A 
ATOM     12  C   UNL     1       2.129   3.479  19.085  0.00  0.00    +0.000 A 
ENDROOT
BRANCH   4  13
ATOM     13  N   UNL     1       5.728   4.093  16.837  0.00  0.00    +0.000 N 
ATOM     14  H   UNL     1       6.477   4.250  17.529  0.00  0.00    +0.000 HD
BRANCH  13  15
ATOM     15  C   UNL     1       5.932   4.908  15.642  0.00  0.00    +0.000 C 
BRANCH  15  16
ATOM     16  C   UNL     1       6.489   4.106  14.471  0.00  0.00    +0.000 C 
ATOM     17  C   UNL     1       5.546   3.674  13.310  0.00  0.00    +0.000 C 
ATOM     18  C   UNL     1       6.720   3.965  12.348  0.00  0.00    +0.000 C 
ATOM     19  C   UNL     1       7.247   4.951  13.409  0.00  0.00    +0.000 C 
ENDBRANCH  15  16
ENDBRANCH  13  15
ENDBRANCH   4  13
TORSDOF 3
ENDMDL
MODEL 5
REMARK VINA RESULT:      -7.0      1.966      2.225
REMARK  Name = 
REMARK  3 active torsions:
REMARK  status: ('A' for Active; 'I' for Inactive)
REMARK    1  A    between atoms: C_4  and  N_5
REMARK    2  A    between atoms: N_5  and  C_6
REMARK    3  A    between atoms: C_6  and  C_7
REMARK                            x       y       z     vdW  Elec       q    Type
REMARK                         _______ _______ _______ _____ _____    ______ ____
ROOT
ATOM      1  O   UNL     1       2.235   7.491  19.834  0.00  0.00    +0.000 OA
ATOM      2  C   UNL     1       2.675   6.576  19.148  0.00  0.00    +0.000 C 
ATOM      3  C   UNL     1       3.601   6.857  18.039  0.00  0.00    +0.000 C 
ATOM      4  C   UNL     1       4.114   5.904  17.253  0.00  0.00    +0.000 C 
ATOM      5  C   UNL     1       3.772   4.464  17.522  0.00  0.00    +0.000 C 
ATOM      6  O   UNL     1       4.251   3.569  16.823  0.00  0.00    +0.000 OA
ATOM      7  C   UNL     1       2.856   4.150  18.633  0.00  0.00    +0.000 A 
ATOM      8  C   UNL     1       2.528   2.814  18.912  0.00  0.00    +0.000 A 
ATOM      9  C   UNL     1       1.626   2.513  19.935  0.00  0.00    +0.000 A 
ATOM     10  C   UNL     1       1.050   3.542  20.681  0.00  0.00    +0.000 A 
ATOM     11  C   UNL     1       1.392   4.870  20.419  0.00  0.00    +0.000 A 
ATOM     12  C   UNL     1       2.304   5.173  19.399  0.00  0.00    +0.000 A 
ENDROOT
BRANCH   4  13
ATOM     13  N   UNL     1       4.943   6.127  16.158  0.00  0.00    +0.000 N 
ATOM     14  H   UNL     1       4.368   6.209  15.306  0.00  0.00    +0.000 HD
BRANCH  13  15
ATOM     15  C   UNL     1       6.181   5.399  15.893  0.00  0.00    +0.000 C 
BRANCH  15  16
ATOM     16  C   UNL     1       7.343   5.878  16.756  0.00  0.00    +0.000 C 
ATOM     17  C   UNL     1       7.271   7.271  17.447  0.00  0.00    +0.000 C 
ATOM     18  C   UNL     1       7.969   6.621  18.662  0.00  0.00    +0.000 C 
ATOM     19  C   UNL     1       7.377   5.279  18.189  0.00  0.00    +0.000 C 
ENDBRANCH  15  16
ENDBRANCH  13  15
ENDBRANCH   4  13
TORSDOF 3
ENDMDL
MODEL 6
REMARK VINA RESULT:      -7.0      1.777      2.480
REMARK  Name = 
REMARK  3 active torsions:
REMARK  status: ('A' for Active; 'I' for Inactive)
REMARK    1  A    between atoms: C_4  and  N_5
REMARK    2  A    between atoms: N_5  and  C_6
REMARK    3  A    between atoms: C_6  and  C_7
REMARK                            x       y       z     vdW  Elec       q    Type
REMARK                         _______ _______ _______ _____ _____    ______ ____
ROOT
ATOM      1  O   UNL     1       2.852   7.013  18.863  0.00  0.00    +0.000 OA
ATOM      2  C   UNL     1       3.376   5.919  19.039  0.00  0.00    +0.000 C 
ATOM      3  C   UNL     1       4.747   5.666  18.565  0.00  0.00    +0.000 C 
ATOM      4  C   UNL     1       5.372   4.495  18.725  0.00  0.00    +0.000 C 
ATOM      5  C   UNL     1       4.675   3.380  19.456  0.00  0.00    +0.000 C 
ATOM      6  O   UNL     1       5.242   2.300  19.632  0.00  0.00    +0.000 OA
ATOM      7  C   UNL     1       3.306   3.608  19.952  0.00  0.00    +0.000 A 
ATOM      8  C   UNL     1       2.635   2.588  20.647  0.00  0.00    +0.000 A 
ATOM      9  C   UNL     1       1.323   2.782  21.080  0.00  0.00    +0.000 A 
ATOM     10  C   UNL     1       0.676   3.991  20.823  0.00  0.00    +0.000 A 
ATOM     11  C   UNL     1       1.348   5.014  20.152  0.00  0.00    +0.000 A 
ATOM     12  C   UNL     1       2.669   4.824  19.725  0.00  0.00    +0.000 A 
ENDROOT
BRANCH   4  13
ATOM     13  N   UNL     1       6.642   4.190  18.242  0.00  0.00    +0.000 N 
ATOM     14  H   UNL     1       7.237   3.879  19.025  0.00  0.00    +0.000 HD
BRANCH  13  15
ATOM     15  C   UNL     1       7.392   5.018  17.302  0.00  0.00    +0.000 C 
BRANCH  15  16
ATOM     16  C   UNL     1       7.078   4.689  15.846  0.00  0.00    +0.000 C 
ATOM     17  C   UNL     1       6.122   3.508  15.508  0.00  0.00    +0.000 C 
ATOM     18  C   UNL     1       5.562   4.386  14.368  0.00  0.00    +0.000 C 
ATOM     19  C   UNL     1       6.013   5.610  15.189  0.00  0.00    +0.000 C 
ENDBRANCH  15  16
ENDBRANCH  13  15
ENDBRANCH   4  13
TORSDOF 3
ENDMDL
MODEL 7
REMARK VINA RESULT:      -7.0      2.393      3.408
REMARK  Name = 
REMARK  3 active torsions:
REMARK  status: ('A' for Active; 'I' for Inactive)
REMARK    1  A    between atoms: C_4  and  N_5
REMARK    2  A    between atoms: N_5  and  C_6
REMARK    3  A    between atoms: C_6  and  C_7
REMARK                            x       y       z     vdW  Elec       q    Type
REMARK                         _______ _______ _______ _____ _____    ______ ____
ROOT
ATOM      1  O   UNL     1       3.599   1.594  18.079  0.00  0.00    +0.000 OA
ATOM      2  C   UNL     1       3.644   2.815  17.994  0.00  0.00    +0.000 C 
ATOM      3  C   UNL     1       4.391   3.459  16.901  0.00  0.00    +0.000 C 
ATOM      4  C   UNL     1       4.480   4.785  16.756  0.00  0.00    +0.000 C 
ATOM      5  C   UNL     1       3.756   5.683  17.723  0.00  0.00    +0.000 C 
ATOM      6  O   UNL     1       3.808   6.907  17.593  0.00  0.00    +0.000 OA
ATOM      7  C   UNL     1       2.991   5.068  18.821  0.00  0.00    +0.000 A 
ATOM      8  C   UNL     1       2.298   5.881  19.731  0.00  0.00    +0.000 A 
ATOM      9  C   UNL     1       1.607   5.307  20.800  0.00  0.00    +0.000 A 
ATOM     10  C   UNL     1       1.605   3.921  20.963  0.00  0.00    +0.000 A 
ATOM     11  C   UNL     1       2.275   3.109  20.047  0.00  0.00    +0.000 A 
ATOM     12  C   UNL     1       2.961   3.684  18.969  0.00  0.00    +0.000 A 
ENDROOT
BRANCH   4  13
ATOM     13  N   UNL     1       5.223   5.438  15.776  0.00  0.00    +0.000 N 
ATOM     14  H   UNL     1       4.693   5.435  14.891  0.00  0.00    +0.000 HD
BRANCH  13  15
ATOM     15  C   UNL     1       6.649   5.232  15.541  0.00  0.00    +0.000 C 
BRANCH  15  16
ATOM     16  C   UNL     1       6.925   4.290  14.375  0.00  0.00    +0.000 C 
ATOM     17  C   UNL     1       5.753   3.825  13.461  0.00  0.00    +0.000 C 
ATOM     18  C   UNL     1       6.732   3.941  12.273  0.00  0.00    +0.000 C 
ATOM     19  C   UNL     1       7.507   4.978  13.109  0.00  0.00    +0.000 C 
ENDBRANCH  15  16
ENDBRANCH  13  15
ENDBRANCH   4  13
TORSDOF 3
ENDMDL
MODEL 8
REMARK VINA RESULT:      -6.9      2.325      3.099
REMARK  Name = 
REMARK  3 active torsions:
REMARK  status: ('A' for Active; 'I' for Inactive)
REMARK    1  A    between atoms: C_4  and  N_5
REMARK    2  A    between atoms: N_5  and  C_6
REMARK    3  A    between atoms: C_6  and  C_7
REMARK                            x       y       z     vdW  Elec       q    Type
REMARK                         _______ _______ _______ _____ _____    ______ ____
ROOT
ATOM      1  O   UNL     1       2.448   7.418  19.679  0.00  0.00    +0.000 OA
ATOM      2  C   UNL     1       2.831   6.433  19.060  0.00  0.00    +0.000 C 
ATOM      3  C   UNL     1       3.711   6.584  17.890  0.00  0.00    +0.000 C 
ATOM      4  C   UNL     1       4.160   5.549  17.172  0.00  0.00    +0.000 C 
ATOM      5  C   UNL     1       3.793   4.149  17.586  0.00  0.00    +0.000 C 
ATOM      6  O   UNL     1       4.215   3.182  16.951  0.00  0.00    +0.000 OA
ATOM      7  C   UNL     1       2.923   3.966  18.761  0.00  0.00    +0.000 A 
ATOM      8  C   UNL     1       2.572   2.671  19.175  0.00  0.00    +0.000 A 
ATOM      9  C   UNL     1       1.712   2.491  20.260  0.00  0.00    +0.000 A 
ATOM     10  C   UNL     1       1.199   3.600  20.934  0.00  0.00    +0.000 A 
ATOM     11  C   UNL     1       1.564   4.888  20.536  0.00  0.00    +0.000 A 
ATOM     12  C   UNL     1       2.435   5.069  19.454  0.00  0.00    +0.000 A 
ENDROOT
BRANCH   4  13
ATOM     13  N   UNL     1       4.944   5.647  16.026  0.00  0.00    +0.000 N 
ATOM     14  H   UNL     1       4.465   5.171  15.245  0.00  0.00    +0.000 HD
BRANCH  13  15
ATOM     15  C   UNL     1       6.385   5.415  15.984  0.00  0.00    +0.000 C 
BRANCH  15  16
ATOM     16  C   UNL     1       6.793   4.437  14.887  0.00  0.00    +0.000 C 
ATOM     17  C   UNL     1       5.720   3.883  13.905  0.00  0.00    +0.000 C 
ATOM     18  C   UNL     1       6.788   3.993  12.794  0.00  0.00    +0.000 C 
ATOM     19  C   UNL     1       7.449   5.097  13.642  0.00  0.00    +0.000 C 
ENDBRANCH  15  16
ENDBRANCH  13  15
ENDBRANCH   4  13
TORSDOF 3
ENDMDL
MODEL 9
REMARK VINA RESULT:      -6.9      2.323      6.300
REMARK  Name = 
REMARK  3 active torsions:
REMARK  status: ('A' for Active; 'I' for Inactive)
REMARK    1  A    between atoms: C_4  and  N_5
REMARK    2  A    between atoms: N_5  and  C_6
REMARK    3  A    between atoms: C_6  and  C_7
REMARK                            x       y       z     vdW  Elec       q    Type
REMARK                         _______ _______ _______ _____ _____    ______ ____
ROOT
ATOM      1  O   UNL     1       7.726   6.922  16.788  0.00  0.00    +0.000 OA
ATOM      2  C   UNL     1       6.821   6.096  16.792  0.00  0.00    +0.000 C 
ATOM      3  C   UNL     1       5.980   5.920  17.987  0.00  0.00    +0.000 C 
ATOM      4  C   UNL     1       4.979   5.035  18.055  0.00  0.00    +0.000 C 
ATOM      5  C   UNL     1       4.655   4.195  16.849  0.00  0.00    +0.000 C 
ATOM      6  O   UNL     1       3.723   3.389  16.885  0.00  0.00    +0.000 OA
ATOM      7  C   UNL     1       5.472   4.357  15.635  0.00  0.00    +0.000 A 
ATOM      8  C   UNL     1       5.186   3.593  14.492  0.00  0.00    +0.000 A 
ATOM      9  C   UNL     1       5.984   3.709  13.352  0.00  0.00    +0.000 A 
ATOM     10  C   UNL     1       7.069   4.587  13.349  0.00  0.00    +0.000 A 
ATOM     11  C   UNL     1       7.343   5.363  14.476  0.00  0.00    +0.000 A 
ATOM     12  C   UNL     1       6.536   5.254  15.617  0.00  0.00    +0.000 A 
ENDROOT
BRANCH   4  13
ATOM     13  N   UNL     1       4.197   4.792  19.180  0.00  0.00    +0.000 N 
ATOM     14  H   UNL     1       3.829   3.829  19.138  0.00  0.00    +0.000 HD
BRANCH  13  15
ATOM     15  C   UNL     1       3.201   5.717  19.714  0.00  0.00    +0.000 C 
BRANCH  15  16
ATOM     16  C   UNL     1       1.925   5.014  20.163  0.00  0.00    +0.000 C 
ATOM     17  C   UNL     1       1.356   3.833  19.324  0.00  0.00    +0.000 C 
ATOM     18  C   UNL     1       0.986   3.159  20.664  0.00  0.00    +0.000 C 
ATOM     19  C   UNL     1       2.122   3.979  21.305  0.00  0.00    +0.000 C 
ENDBRANCH  15  16
ENDBRANCH  13  15
ENDBRANCH   4  13
TORSDOF 3
ENDMDL
