MODEL 1
REMARK VINA RESULT:      -7.7      0.000      0.000
REMARK  Name = 
REMARK  12 active torsions:
REMARK  status: ('A' for Active; 'I' for Inactive)
REMARK    1  A    between atoms: C_1  and  C_2
REMARK    2  A    between atoms: C_2  and  O_3
REMARK    3  A    between atoms: O_3  and  C_4
REMARK    4  A    between atoms: C_4  and  C_6
REMARK    5  A    between atoms: C_6  and  C_7
REMARK    6  A    between atoms: C_7  and  C_8
REMARK    7  A    between atoms: C_8  and  C_9
REMARK    8  A    between atoms: C_9  and  C_10
REMARK    9  A    between atoms: C_10  and  O_11
REMARK   10  A    between atoms: O_11  and  C_12
REMARK   11  A    between atoms: C_17  and  C_18
REMARK   12  A    between atoms: C_18  and  C_19
REMARK                            x       y       z     vdW  Elec       q    Type
REMARK                         _______ _______ _______ _____ _____    ______ ____
ROOT
ATOM      1  C   UNL     1       6.940   6.814  16.851  0.00  0.00    +0.000 A 
ATOM      2  C   UNL     1       7.102   5.599  16.189  0.00  0.00    +0.000 A 
ATOM      3  C   UNL     1       6.068   4.656  16.190  0.00  0.00    +0.000 A 
ATOM      4  C   UNL     1       4.854   4.917  16.848  0.00  0.00    +0.000 A 
ATOM      5  C   UNL     1       3.807   3.977  16.893  0.00  0.00    +0.000 A 
ATOM      6  C   UNL     1       2.597   4.270  17.546  0.00  0.00    +0.000 A 
ATOM      7  C   UNL     1       2.438   5.527  18.141  0.00  0.00    +0.000 A 
ATOM      8  C   UNL     1       3.474   6.460  18.119  0.00  0.00    +0.000 A 
ATOM      9  C   UNL     1       4.685   6.164  17.486  0.00  0.00    +0.000 A 
ATOM     10  C   UNL     1       5.730   7.094  17.483  0.00  0.00    +0.000 A 
ENDROOT
BRANCH   1  11
ATOM     11  O   UNL     1       7.869   7.808  16.958  0.00  0.00    +0.000 OA
BRANCH  11  12
ATOM     12  C   UNL     1       7.741   8.685  18.071  0.00  0.00    +0.000 C 
BRANCH  12  13
ATOM     13  C   UNL     1       8.703   9.842  17.852  0.00  0.00    +0.000 C 
BRANCH  13  14
ATOM     14  C   UNL     1       9.324  10.289  19.169  0.00  0.00    +0.000 C 
BRANCH  14  15
ATOM     15  C   UNL     1      10.027  11.627  18.993  0.00  0.00    +0.000 C 
BRANCH  15  16
ATOM     16  C   UNL     1      10.993  11.603  17.817  0.00  0.00    +0.000 C 
BRANCH  16  17
ATOM     17  C   UNL     1      11.235  13.000  17.309  0.00  0.00    +0.000 C 
ATOM     18  O   UNL     1      12.233  13.371  16.708  0.00  0.00    +0.000 OA
BRANCH  17  19
ATOM     19  O   UNL     1      10.216  13.807  17.719  0.00  0.00    +0.000 OA
BRANCH  19  21
ATOM     20  C   UNL     1       9.488  16.069  17.569  0.00  0.00    +0.000 C 
ATOM     21  C   UNL     1      10.611  15.150  18.018  0.00  0.00    +0.000 C 
ENDBRANCH  19  21
ENDBRANCH  17  19
ENDBRANCH  16  17
ENDBRANCH  15  16
ENDBRANCH  14  15
ENDBRANCH  13  14
ENDBRANCH  12  13
ENDBRANCH  11  12
ENDBRANCH   1  11
BRANCH   6  22
ATOM     22  C   UNL     1       1.479   3.254  17.614  0.00  0.00    +0.000 C 
BRANCH  22  23
ATOM     23  C   UNL     1       1.425   2.378  18.872  0.00  0.00    +0.000 C 
ATOM     24  S   UNL     1       0.770   3.210  20.360  0.00  0.00    +0.000 S 
ATOM     25  C   UNL     1       2.273   3.029  21.227  0.00  0.00    +0.000 C 
ATOM     26  O   UNL     1       2.521   3.581  22.285  0.00  0.00    +0.000 OA
ATOM     27  N   UNL     1       3.106   2.208  20.554  0.00  0.00    +0.000 N 
ATOM     28  C   UNL     1       2.793   1.874  19.273  0.00  0.00    +0.000 C 
ATOM     29  O   UNL     1       3.550   1.250  18.537  0.00  0.00    +0.000 OA
ATOM     30  H   UNL     1       4.025   2.009  20.923  0.00  0.00    +0.000 HD
ENDBRANCH  22  23
ENDBRANCH   6  22
TORSDOF 11
ENDMDL
MODEL 2
REMARK VINA RESULT:      -7.7      5.642      9.798
REMARK  Name = 
REMARK  12 active torsions:
REMARK  status: ('A' for Active; 'I' for Inactive)
REMARK    1  A    between atoms: C_1  and  C_2
REMARK    2  A    between atoms: C_2  and  O_3
REMARK    3  A    between atoms: O_3  and  C_4
REMARK    4  A    between atoms: C_4  and  C_6
REMARK    5  A    between atoms: C_6  and  C_7
REMARK    6  A    between atoms: C_7  and  C_8
REMARK    7  A    between atoms: C_8  and  C_9
REMARK    8  A    between atoms: C_9  and  C_10
REMARK    9  A    between atoms: C_10  and  O_11
REMARK   10  A    between atoms: O_11  and  C_12
REMARK   11  A    between atoms: C_17  and  C_18
REMARK   12  A    between atoms: C_18  and  C_19
REMARK                            x       y       z     vdW  Elec       q    Type
REMARK                         _______ _______ _______ _____ _____    ______ ____
ROOT
ATOM      1  C   UNL     1       3.475   6.551  18.888  0.00  0.00    +0.000 A 
ATOM      2  C   UNL     1       3.425   7.362  17.756  0.00  0.00    +0.000 A 
ATOM      3  C   UNL     1       2.528   8.434  17.701  0.00  0.00    +0.000 A 
ATOM      4  C   UNL     1       1.672   8.715  18.780  0.00  0.00    +0.000 A 
ATOM      5  C   UNL     1       0.738   9.768  18.742  0.00  0.00    +0.000 A 
ATOM      6  C   UNL     1      -0.097  10.036  19.841  0.00  0.00    +0.000 A 
ATOM      7  C   UNL     1       0.027   9.248  20.991  0.00  0.00    +0.000 A 
ATOM      8  C   UNL     1       0.936   8.192  21.034  0.00  0.00    +0.000 A 
ATOM      9  C   UNL     1       1.754   7.911  19.936  0.00  0.00    +0.000 A 
ATOM     10  C   UNL     1       2.651   6.838  19.974  0.00  0.00    +0.000 A 
ENDROOT
BRANCH   1  11
ATOM     11  O   UNL     1       4.274   5.460  19.067  0.00  0.00    +0.000 OA
BRANCH  11  12
ATOM     12  C   UNL     1       5.312   5.265  18.113  0.00  0.00    +0.000 C 
BRANCH  12  13
ATOM     13  C   UNL     1       4.858   4.166  17.166  0.00  0.00    +0.000 C 
BRANCH  13  14
ATOM     14  C   UNL     1       3.910   3.201  17.866  0.00  0.00    +0.000 C 
BRANCH  14  15
ATOM     15  C   UNL     1       2.585   3.130  17.120  0.00  0.00    +0.000 C 
BRANCH  15  16
ATOM     16  C   UNL     1       1.494   3.911  17.840  0.00  0.00    +0.000 C 
BRANCH  16  17
ATOM     17  C   UNL     1       0.767   3.018  18.812  0.00  0.00    +0.000 C 
ATOM     18  O   UNL     1       0.242   1.949  18.535  0.00  0.00    +0.000 OA
BRANCH  17  19
ATOM     19  O   UNL     1       0.696   3.641  20.022  0.00  0.00    +0.000 OA
BRANCH  19  21
ATOM     20  C   UNL     1       2.619   3.287  21.379  0.00  0.00    +0.000 C 
ATOM     21  C   UNL     1       1.186   2.860  21.117  0.00  0.00    +0.000 C 
ENDBRANCH  19  21
ENDBRANCH  17  19
ENDBRANCH  16  17
ENDBRANCH  15  16
ENDBRANCH  14  15
ENDBRANCH  13  14
ENDBRANCH  12  13
ENDBRANCH  11  12
ENDBRANCH   1  11
BRANCH   6  22
ATOM     22  C   UNL     1      -1.116  11.153  19.795  0.00  0.00    +0.000 C 
BRANCH  22  23
ATOM     23  C   UNL     1      -0.579  12.579  19.964  0.00  0.00    +0.000 C 
ATOM     24  S   UNL     1       0.449  13.181  18.578  0.00  0.00    +0.000 S 
ATOM     25  C   UNL     1       1.862  13.348  19.589  0.00  0.00    +0.000 C 
ATOM     26  O   UNL     1       2.984  13.559  19.161  0.00  0.00    +0.000 OA
ATOM     27  N   UNL     1       1.530  13.199  20.888  0.00  0.00    +0.000 N 
ATOM     28  C   UNL     1       0.294  12.717  21.190  0.00  0.00    +0.000 C 
ATOM     29  O   UNL     1      -0.050  12.417  22.329  0.00  0.00    +0.000 OA
ATOM     30  H   UNL     1       2.243  13.258  21.601  0.00  0.00    +0.000 HD
ENDBRANCH  22  23
ENDBRANCH   6  22
TORSDOF 11
ENDMDL
MODEL 3
REMARK VINA RESULT:      -7.7      5.021      8.259
REMARK  Name = 
REMARK  12 active torsions:
REMARK  status: ('A' for Active; 'I' for Inactive)
REMARK    1  A    between atoms: C_1  and  C_2
REMARK    2  A    between atoms: C_2  and  O_3
REMARK    3  A    between atoms: O_3  and  C_4
REMARK    4  A    between atoms: C_4  and  C_6
REMARK    5  A    between atoms: C_6  and  C_7
REMARK    6  A    between atoms: C_7  and  C_8
REMARK    7  A    between atoms: C_8  and  C_9
REMARK    8  A    between atoms: C_9  and  C_10
REMARK    9  A    between atoms: C_10  and  O_11
REMARK   10  A    between atoms: O_11  and  C_12
REMARK   11  A    between atoms: C_17  and  C_18
REMARK   12  A    between atoms: C_18  and  C_19
REMARK                            x       y       z     vdW  Elec       q    Type
REMARK                         _______ _______ _______ _____ _____    ______ ____
ROOT
ATOM      1  C   UNL     1       2.492   5.173  19.368  0.00  0.00    +0.000 A 
ATOM      2  C   UNL     1       1.954   5.418  20.630  0.00  0.00    +0.000 A 
ATOM      3  C   UNL     1       1.501   6.700  20.961  0.00  0.00    +0.000 A 
ATOM      4  C   UNL     1       1.573   7.753  20.034  0.00  0.00    +0.000 A 
ATOM      5  C   UNL     1       1.154   9.060  20.348  0.00  0.00    +0.000 A 
ATOM      6  C   UNL     1       1.222  10.092  19.396  0.00  0.00    +0.000 A 
ATOM      7  C   UNL     1       1.701   9.797  18.114  0.00  0.00    +0.000 A 
ATOM      8  C   UNL     1       2.136   8.511  17.796  0.00  0.00    +0.000 A 
ATOM      9  C   UNL     1       2.085   7.487  18.747  0.00  0.00    +0.000 A 
ATOM     10  C   UNL     1       2.542   6.203  18.431  0.00  0.00    +0.000 A 
ENDROOT
BRANCH   1  11
ATOM     11  O   UNL     1       2.997   3.987  18.920  0.00  0.00    +0.000 OA
BRANCH  11  12
ATOM     12  C   UNL     1       2.733   3.652  17.563  0.00  0.00    +0.000 C 
BRANCH  12  13
ATOM     13  C   UNL     1       3.948   2.907  17.033  0.00  0.00    +0.000 C 
BRANCH  13  14
ATOM     14  C   UNL     1       5.187   3.793  17.069  0.00  0.00    +0.000 C 
BRANCH  14  15
ATOM     15  C   UNL     1       5.861   3.812  15.704  0.00  0.00    +0.000 C 
BRANCH  15  16
ATOM     16  C   UNL     1       5.731   5.172  15.033  0.00  0.00    +0.000 C 
BRANCH  16  17
ATOM     17  C   UNL     1       5.953   6.274  16.037  0.00  0.00    +0.000 C 
ATOM     18  O   UNL     1       5.100   7.057  16.427  0.00  0.00    +0.000 OA
BRANCH  17  19
ATOM     19  O   UNL     1       7.276   6.325  16.359  0.00  0.00    +0.000 OA
BRANCH  19  21
ATOM     20  C   UNL     1       7.699   6.144  18.695  0.00  0.00    +0.000 C 
ATOM     21  C   UNL     1       7.571   7.102  17.524  0.00  0.00    +0.000 C 
ENDBRANCH  19  21
ENDBRANCH  17  19
ENDBRANCH  16  17
ENDBRANCH  15  16
ENDBRANCH  14  15
ENDBRANCH  13  14
ENDBRANCH  12  13
ENDBRANCH  11  12
ENDBRANCH   1  11
BRANCH   6  22
ATOM     22  C   UNL     1       0.793  11.501  19.737  0.00  0.00    +0.000 C 
BRANCH  22  23
ATOM     23  C   UNL     1      -0.649  11.883  19.382  0.00  0.00    +0.000 C 
ATOM     24  S   UNL     1      -1.682  10.503  18.775  0.00  0.00    +0.000 S 
ATOM     25  C   UNL     1      -1.910  11.249  17.215  0.00  0.00    +0.000 C 
ATOM     26  O   UNL     1      -2.401  10.682  16.253  0.00  0.00    +0.000 OA
ATOM     27  N   UNL     1      -1.459  12.520  17.232  0.00  0.00    +0.000 N 
ATOM     28  C   UNL     1      -0.709  12.928  18.291  0.00  0.00    +0.000 C 
ATOM     29  O   UNL     1      -0.141  14.014  18.334  0.00  0.00    +0.000 OA
ATOM     30  H   UNL     1      -1.511  13.085  16.396  0.00  0.00    +0.000 HD
ENDBRANCH  22  23
ENDBRANCH   6  22
TORSDOF 11
ENDMDL
MODEL 4
REMARK VINA RESULT:      -7.6      5.980      9.146
REMARK  Name = 
REMARK  12 active torsions:
REMARK  status: ('A' for Active; 'I' for Inactive)
REMARK    1  A    between atoms: C_1  and  C_2
REMARK    2  A    between atoms: C_2  and  O_3
REMARK    3  A    between atoms: O_3  and  C_4
REMARK    4  A    between atoms: C_4  and  C_6
REMARK    5  A    between atoms: C_6  and  C_7
REMARK    6  A    between atoms: C_7  and  C_8
REMARK    7  A    between atoms: C_8  and  C_9
REMARK    8  A    between atoms: C_9  and  C_10
REMARK    9  A    between atoms: C_10  and  O_11
REMARK   10  A    between atoms: O_11  and  C_12
REMARK   11  A    between atoms: C_17  and  C_18
REMARK   12  A    between atoms: C_18  and  C_19
REMARK                            x       y       z     vdW  Elec       q    Type
REMARK                         _______ _______ _______ _____ _____    ______ ____
ROOT
ATOM      1  C   UNL     1       2.499   6.823  18.824  0.00  0.00    +0.000 A 
ATOM      2  C   UNL     1       2.643   7.781  17.823  0.00  0.00    +0.000 A 
ATOM      3  C   UNL     1       2.153   9.077  18.016  0.00  0.00    +0.000 A 
ATOM      4  C   UNL     1       1.517   9.436  19.216  0.00  0.00    +0.000 A 
ATOM      5  C   UNL     1       0.986  10.722  19.429  0.00  0.00    +0.000 A 
ATOM      6  C   UNL     1       0.367  11.060  20.645  0.00  0.00    +0.000 A 
ATOM      7  C   UNL     1       0.301  10.097  21.658  0.00  0.00    +0.000 A 
ATOM      8  C   UNL     1       0.807   8.814  21.454  0.00  0.00    +0.000 A 
ATOM      9  C   UNL     1       1.407   8.470  20.238  0.00  0.00    +0.000 A 
ATOM     10  C   UNL     1       1.895   7.176  20.029  0.00  0.00    +0.000 A 
ENDROOT
BRANCH   1  11
ATOM     11  O   UNL     1       2.899   5.520  18.762  0.00  0.00    +0.000 OA
BRANCH  11  12
ATOM     12  C   UNL     1       2.108   4.646  17.965  0.00  0.00    +0.000 C 
BRANCH  12  13
ATOM     13  C   UNL     1       2.849   3.322  17.867  0.00  0.00    +0.000 C 
BRANCH  13  14
ATOM     14  C   UNL     1       4.351   3.548  17.752  0.00  0.00    +0.000 C 
BRANCH  14  15
ATOM     15  C   UNL     1       4.718   3.940  16.328  0.00  0.00    +0.000 C 
BRANCH  15  16
ATOM     16  C   UNL     1       5.856   4.951  16.300  0.00  0.00    +0.000 C 
BRANCH  16  17
ATOM     17  C   UNL     1       6.735   4.716  15.099  0.00  0.00    +0.000 C 
ATOM     18  O   UNL     1       7.764   5.326  14.846  0.00  0.00    +0.000 OA
BRANCH  17  19
ATOM     19  O   UNL     1       6.146   3.793  14.289  0.00  0.00    +0.000 OA
BRANCH  19  21
ATOM     20  C   UNL     1       5.425   3.138  12.116  0.00  0.00    +0.000 C 
ATOM     21  C   UNL     1       6.436   3.960  12.896  0.00  0.00    +0.000 C 
ENDBRANCH  19  21
ENDBRANCH  17  19
ENDBRANCH  16  17
ENDBRANCH  15  16
ENDBRANCH  14  15
ENDBRANCH  13  14
ENDBRANCH  12  13
ENDBRANCH  11  12
ENDBRANCH   1  11
BRANCH   6  22
ATOM     22  C   UNL     1      -0.223  12.435  20.868  0.00  0.00    +0.000 C 
BRANCH  22  23
ATOM     23  C   UNL     1      -1.279  12.899  19.858  0.00  0.00    +0.000 C 
ATOM     24  S   UNL     1      -2.410  11.588  19.273  0.00  0.00    +0.000 S 
ATOM     25  C   UNL     1      -1.869  11.743  17.621  0.00  0.00    +0.000 C 
ATOM     26  O   UNL     1      -2.154  10.957  16.734  0.00  0.00    +0.000 OA
ATOM     27  N   UNL     1      -1.093  12.838  17.482  0.00  0.00    +0.000 N 
ATOM     28  C   UNL     1      -0.657  13.470  18.605  0.00  0.00    +0.000 C 
ATOM     29  O   UNL     1       0.161  14.385  18.586  0.00  0.00    +0.000 OA
ATOM     30  H   UNL     1      -0.691  13.061  16.582  0.00  0.00    +0.000 HD
ENDBRANCH  22  23
ENDBRANCH   6  22
TORSDOF 11
ENDMDL
MODEL 5
REMARK VINA RESULT:      -7.6      6.580      8.912
REMARK  Name = 
REMARK  12 active torsions:
REMARK  status: ('A' for Active; 'I' for Inactive)
REMARK    1  A    between atoms: C_1  and  C_2
REMARK    2  A    between atoms: C_2  and  O_3
REMARK    3  A    between atoms: O_3  and  C_4
REMARK    4  A    between atoms: C_4  and  C_6
REMARK    5  A    between atoms: C_6  and  C_7
REMARK    6  A    between atoms: C_7  and  C_8
REMARK    7  A    between atoms: C_8  and  C_9
REMARK    8  A    between atoms: C_9  and  C_10
REMARK    9  A    between atoms: C_10  and  O_11
REMARK   10  A    between atoms: O_11  and  C_12
REMARK   11  A    between atoms: C_17  and  C_18
REMARK   12  A    between atoms: C_18  and  C_19
REMARK                            x       y       z     vdW  Elec       q    Type
REMARK                         _______ _______ _______ _____ _____    ______ ____
ROOT
ATOM      1  C   UNL     1       1.247   8.943  19.863  0.00  0.00    +0.000 A 
ATOM      2  C   UNL     1       1.598   9.268  18.554  0.00  0.00    +0.000 A 
ATOM      3  C   UNL     1       2.365   8.379  17.793  0.00  0.00    +0.000 A 
ATOM      4  C   UNL     1       2.787   7.150  18.328  0.00  0.00    +0.000 A 
ATOM      5  C   UNL     1       3.586   6.248  17.599  0.00  0.00    +0.000 A 
ATOM      6  C   UNL     1       3.982   5.018  18.152  0.00  0.00    +0.000 A 
ATOM      7  C   UNL     1       3.554   4.691  19.444  0.00  0.00    +0.000 A 
ATOM      8  C   UNL     1       2.778   5.582  20.183  0.00  0.00    +0.000 A 
ATOM      9  C   UNL     1       2.398   6.814  19.641  0.00  0.00    +0.000 A 
ATOM     10  C   UNL     1       1.637   7.715  20.393  0.00  0.00    +0.000 A 
ENDROOT
BRANCH   1  11
ATOM     11  O   UNL     1       0.532   9.723  20.726  0.00  0.00    +0.000 OA
BRANCH  11  12
ATOM     12  C   UNL     1       0.855   9.607  22.107  0.00  0.00    +0.000 C 
BRANCH  12  13
ATOM     13  C   UNL     1      -0.411   9.900  22.896  0.00  0.00    +0.000 C 
BRANCH  13  14
ATOM     14  C   UNL     1      -0.836  11.353  22.724  0.00  0.00    +0.000 C 
BRANCH  14  15
ATOM     15  C   UNL     1      -2.231  11.565  23.294  0.00  0.00    +0.000 C 
BRANCH  15  16
ATOM     16  C   UNL     1      -3.013  12.596  22.491  0.00  0.00    +0.000 C 
BRANCH  16  17
ATOM     17  C   UNL     1      -2.439  13.972  22.705  0.00  0.00    +0.000 C 
ATOM     18  O   UNL     1      -1.948  14.677  21.835  0.00  0.00    +0.000 OA
BRANCH  17  19
ATOM     19  O   UNL     1      -2.457  14.261  24.037  0.00  0.00    +0.000 OA
BRANCH  19  21
ATOM     20  C   UNL     1      -1.622  15.493  25.895  0.00  0.00    +0.000 C 
ATOM     21  C   UNL     1      -1.310  14.983  24.499  0.00  0.00    +0.000 C 
ENDBRANCH  19  21
ENDBRANCH  17  19
ENDBRANCH  16  17
ENDBRANCH  15  16
ENDBRANCH  14  15
ENDBRANCH  13  14
ENDBRANCH  12  13
ENDBRANCH  11  12
ENDBRANCH   1  11
BRANCH   6  22
ATOM     22  C   UNL     1       4.857   4.057  17.379  0.00  0.00    +0.000 C 
BRANCH  22  23
ATOM     23  C   UNL     1       6.356   4.378  17.336  0.00  0.00    +0.000 C 
ATOM     24  S   UNL     1       6.885   5.725  18.452  0.00  0.00    +0.000 S 
ATOM     25  C   UNL     1       7.412   6.730  17.126  0.00  0.00    +0.000 C 
ATOM     26  O   UNL     1       7.719   7.904  17.241  0.00  0.00    +0.000 OA
ATOM     27  N   UNL     1       7.416   6.024  15.975  0.00  0.00    +0.000 N 
ATOM     28  C   UNL     1       6.808   4.808  15.959  0.00  0.00    +0.000 C 
ATOM     29  O   UNL     1       6.638   4.155  14.934  0.00  0.00    +0.000 OA
ATOM     30  H   UNL     1       7.688   6.471  15.111  0.00  0.00    +0.000 HD
ENDBRANCH  22  23
ENDBRANCH   6  22
TORSDOF 11
ENDMDL
MODEL 6
REMARK VINA RESULT:      -7.5      6.057      9.046
REMARK  Name = 
REMARK  12 active torsions:
REMARK  status: ('A' for Active; 'I' for Inactive)
REMARK    1  A    between atoms: C_1  and  C_2
REMARK    2  A    between atoms: C_2  and  O_3
REMARK    3  A    between atoms: O_3  and  C_4
REMARK    4  A    between atoms: C_4  and  C_6
REMARK    5  A    between atoms: C_6  and  C_7
REMARK    6  A    between atoms: C_7  and  C_8
REMARK    7  A    between atoms: C_8  and  C_9
REMARK    8  A    between atoms: C_9  and  C_10
REMARK    9  A    between atoms: C_10  and  O_11
REMARK   10  A    between atoms: O_11  and  C_12
REMARK   11  A    between atoms: C_17  and  C_18
REMARK   12  A    between atoms: C_18  and  C_19
REMARK                            x       y       z     vdW  Elec       q    Type
REMARK                         _______ _______ _______ _____ _____    ______ ____
ROOT
ATOM      1  C   UNL     1       2.783   6.350  19.219  0.00  0.00    +0.000 A 
ATOM      2  C   UNL     1       2.860   7.149  18.080  0.00  0.00    +0.000 A 
ATOM      3  C   UNL     1       2.278   8.421  18.076  0.00  0.00    +0.000 A 
ATOM      4  C   UNL     1       1.615   8.916  19.213  0.00  0.00    +0.000 A 
ATOM      5  C   UNL     1       0.993  10.178  19.230  0.00  0.00    +0.000 A 
ATOM      6  C   UNL     1       0.350  10.655  20.385  0.00  0.00    +0.000 A 
ATOM      7  C   UNL     1       0.352   9.858  21.536  0.00  0.00    +0.000 A 
ATOM      8  C   UNL     1       0.949   8.598  21.527  0.00  0.00    +0.000 A 
ATOM      9  C   UNL     1       1.573   8.114  20.373  0.00  0.00    +0.000 A 
ATOM     10  C   UNL     1       2.153   6.841  20.361  0.00  0.00    +0.000 A 
ENDROOT
BRANCH   1  11
ATOM     11  O   UNL     1       3.276   5.084  19.355  0.00  0.00    +0.000 OA
BRANCH  11  12
ATOM     12  C   UNL     1       2.367   4.016  19.116  0.00  0.00    +0.000 C 
BRANCH  12  13
ATOM     13  C   UNL     1       2.639   3.490  17.716  0.00  0.00    +0.000 C 
BRANCH  13  14
ATOM     14  C   UNL     1       4.136   3.338  17.474  0.00  0.00    +0.000 C 
BRANCH  14  15
ATOM     15  C   UNL     1       4.563   4.170  16.274  0.00  0.00    +0.000 C 
BRANCH  15  16
ATOM     16  C   UNL     1       5.880   3.678  15.690  0.00  0.00    +0.000 C 
BRANCH  16  17
ATOM     17  C   UNL     1       6.893   4.793  15.671  0.00  0.00    +0.000 C 
ATOM     18  O   UNL     1       6.870   5.756  14.918  0.00  0.00    +0.000 OA
BRANCH  17  19
ATOM     19  O   UNL     1       7.893   4.503  16.549  0.00  0.00    +0.000 OA
BRANCH  19  21
ATOM     20  C   UNL     1       7.641   6.165  18.235  0.00  0.00    +0.000 C 
ATOM     21  C   UNL     1       7.540   4.682  17.925  0.00  0.00    +0.000 C 
ENDBRANCH  19  21
ENDBRANCH  17  19
ENDBRANCH  16  17
ENDBRANCH  15  16
ENDBRANCH  14  15
ENDBRANCH  13  14
ENDBRANCH  12  13
ENDBRANCH  11  12
ENDBRANCH   1  11
BRANCH   6  22
ATOM     22  C   UNL     1      -0.337  12.002  20.399  0.00  0.00    +0.000 C 
BRANCH  22  23
ATOM     23  C   UNL     1      -1.595  12.121  21.269  0.00  0.00    +0.000 C 
ATOM     24  S   UNL     1      -3.081  12.719  20.391  0.00  0.00    +0.000 S 
ATOM     25  C   UNL     1      -3.191  14.152  21.380  0.00  0.00    +0.000 C 
ATOM     26  O   UNL     1      -3.931  15.091  21.140  0.00  0.00    +0.000 OA
ATOM     27  N   UNL     1      -2.341  14.068  22.425  0.00  0.00    +0.000 N 
ATOM     28  C   UNL     1      -1.403  13.083  22.419  0.00  0.00    +0.000 C 
ATOM     29  O   UNL     1      -0.502  13.008  23.248  0.00  0.00    +0.000 OA
ATOM     30  H   UNL     1      -2.279  14.828  23.087  0.00  0.00    +0.000 HD
ENDBRANCH  22  23
ENDBRANCH   6  22
TORSDOF 11
ENDMDL
MODEL 7
REMARK VINA RESULT:      -7.5      6.564      9.328
REMARK  Name = 
REMARK  12 active torsions:
REMARK  status: ('A' for Active; 'I' for Inactive)
REMARK    1  A    between atoms: C_1  and  C_2
REMARK    2  A    between atoms: C_2  and  O_3
REMARK    3  A    between atoms: O_3  and  C_4
REMARK    4  A    between atoms: C_4  and  C_6
REMARK    5  A    between atoms: C_6  and  C_7
REMARK    6  A    between atoms: C_7  and  C_8
REMARK    7  A    between atoms: C_8  and  C_9
REMARK    8  A    between atoms: C_9  and  C_10
REMARK    9  A    between atoms: C_10  and  O_11
REMARK   10  A    between atoms: O_11  and  C_12
REMARK   11  A    between atoms: C_17  and  C_18
REMARK   12  A    between atoms: C_18  and  C_19
REMARK                            x       y       z     vdW  Elec       q    Type
REMARK                         _______ _______ _______ _____ _____    ______ ____
ROOT
ATOM      1  C   UNL     1       2.392   7.293  19.015  0.00  0.00    +0.000 A 
ATOM      2  C   UNL     1       2.155   8.220  18.002  0.00  0.00    +0.000 A 
ATOM      3  C   UNL     1       1.408   9.372  18.268  0.00  0.00    +0.000 A 
ATOM      4  C   UNL     1       0.892   9.617  19.552  0.00  0.00    +0.000 A 
ATOM      5  C   UNL     1       0.111  10.752  19.843  0.00  0.00    +0.000 A 
ATOM      6  C   UNL     1      -0.381  10.980  21.140  0.00  0.00    +0.000 A 
ATOM      7  C   UNL     1      -0.066  10.066  22.152  0.00  0.00    +0.000 A 
ATOM      8  C   UNL     1       0.691   8.930  21.873  0.00  0.00    +0.000 A 
ATOM      9  C   UNL     1       1.166   8.691  20.579  0.00  0.00    +0.000 A 
ATOM     10  C   UNL     1       1.909   7.539  20.298  0.00  0.00    +0.000 A 
ENDROOT
BRANCH   1  11
ATOM     11  O   UNL     1       3.074   6.117  18.892  0.00  0.00    +0.000 OA
BRANCH  11  12
ATOM     12  C   UNL     1       2.334   4.922  19.112  0.00  0.00    +0.000 C 
BRANCH  12  13
ATOM     13  C   UNL     1       2.801   3.901  18.088  0.00  0.00    +0.000 C 
BRANCH  13  14
ATOM     14  C   UNL     1       4.277   4.094  17.763  0.00  0.00    +0.000 C 
BRANCH  14  15
ATOM     15  C   UNL     1       4.475   4.205  16.258  0.00  0.00    +0.000 C 
BRANCH  15  16
ATOM     16  C   UNL     1       5.873   3.768  15.842  0.00  0.00    +0.000 C 
BRANCH  16  17
ATOM     17  C   UNL     1       6.748   4.971  15.606  0.00  0.00    +0.000 C 
ATOM     18  O   UNL     1       6.723   5.680  14.609  0.00  0.00    +0.000 OA
BRANCH  17  19
ATOM     19  O   UNL     1       7.643   5.080  16.627  0.00  0.00    +0.000 OA
BRANCH  19  21
ATOM     20  C   UNL     1       7.517   5.672  18.930  0.00  0.00    +0.000 C 
ATOM     21  C   UNL     1       7.404   6.186  17.506  0.00  0.00    +0.000 C 
ENDBRANCH  19  21
ENDBRANCH  17  19
ENDBRANCH  16  17
ENDBRANCH  15  16
ENDBRANCH  14  15
ENDBRANCH  13  14
ENDBRANCH  12  13
ENDBRANCH  11  12
ENDBRANCH   1  11
BRANCH   6  22
ATOM     22  C   UNL     1      -1.239  12.187  21.451  0.00  0.00    +0.000 C 
BRANCH  22  23
ATOM     23  C   UNL     1      -1.389  12.558  22.931  0.00  0.00    +0.000 C 
ATOM     24  S   UNL     1      -3.083  12.392  23.596  0.00  0.00    +0.000 S 
ATOM     25  C   UNL     1      -3.204  14.097  23.945  0.00  0.00    +0.000 C 
ATOM     26  O   UNL     1      -4.240  14.656  24.262  0.00  0.00    +0.000 OA
ATOM     27  N   UNL     1      -2.001  14.692  23.803  0.00  0.00    +0.000 N 
ATOM     28  C   UNL     1      -1.001  13.994  23.200  0.00  0.00    +0.000 C 
ATOM     29  O   UNL     1       0.080  14.492  22.901  0.00  0.00    +0.000 OA
ATOM     30  H   UNL     1      -1.908  15.685  23.960  0.00  0.00    +0.000 HD
ENDBRANCH  22  23
ENDBRANCH   6  22
TORSDOF 11
ENDMDL
MODEL 8
REMARK VINA RESULT:      -7.5      6.652     10.654
REMARK  Name = 
REMARK  12 active torsions:
REMARK  status: ('A' for Active; 'I' for Inactive)
REMARK    1  A    between atoms: C_1  and  C_2
REMARK    2  A    between atoms: C_2  and  O_3
REMARK    3  A    between atoms: O_3  and  C_4
REMARK    4  A    between atoms: C_4  and  C_6
REMARK    5  A    between atoms: C_6  and  C_7
REMARK    6  A    between atoms: C_7  and  C_8
REMARK    7  A    between atoms: C_8  and  C_9
REMARK    8  A    between atoms: C_9  and  C_10
REMARK    9  A    between atoms: C_10  and  O_11
REMARK   10  A    between atoms: O_11  and  C_12
REMARK   11  A    between atoms: C_17  and  C_18
REMARK   12  A    between atoms: C_18  and  C_19
REMARK                            x       y       z     vdW  Elec       q    Type
REMARK                         _______ _______ _______ _____ _____    ______ ____
ROOT
ATOM      1  C   UNL     1       2.339   7.578  18.925  0.00  0.00    +0.000 A 
ATOM      2  C   UNL     1       2.074   8.433  17.857  0.00  0.00    +0.000 A 
ATOM      3  C   UNL     1       1.248   9.547  18.040  0.00  0.00    +0.000 A 
ATOM      4  C   UNL     1       0.680   9.826  19.296  0.00  0.00    +0.000 A 
ATOM      5  C   UNL     1      -0.179  10.922  19.504  0.00  0.00    +0.000 A 
ATOM      6  C   UNL     1      -0.721  11.187  20.774  0.00  0.00    +0.000 A 
ATOM      7  C   UNL     1      -0.378  10.350  21.842  0.00  0.00    +0.000 A 
ATOM      8  C   UNL     1       0.458   9.252  21.645  0.00  0.00    +0.000 A 
ATOM      9  C   UNL     1       0.984   8.976  20.379  0.00  0.00    +0.000 A 
ATOM     10  C   UNL     1       1.805   7.861  20.180  0.00  0.00    +0.000 A 
ENDROOT
BRANCH   1  11
ATOM     11  O   UNL     1       3.098   6.444  18.884  0.00  0.00    +0.000 OA
BRANCH  11  12
ATOM     12  C   UNL     1       4.303   6.508  18.130  0.00  0.00    +0.000 C 
BRANCH  12  13
ATOM     13  C   UNL     1       4.245   5.405  17.085  0.00  0.00    +0.000 C 
BRANCH  13  14
ATOM     14  C   UNL     1       4.022   4.047  17.741  0.00  0.00    +0.000 C 
BRANCH  14  15
ATOM     15  C   UNL     1       2.688   3.463  17.300  0.00  0.00    +0.000 C 
BRANCH  15  16
ATOM     16  C   UNL     1       2.460   2.078  17.891  0.00  0.00    +0.000 C 
BRANCH  16  17
ATOM     17  C   UNL     1       1.392   2.131  18.952  0.00  0.00    +0.000 C 
ATOM     18  O   UNL     1       0.202   2.324  18.749  0.00  0.00    +0.000 OA
BRANCH  17  19
ATOM     19  O   UNL     1       1.977   2.037  20.179  0.00  0.00    +0.000 OA
BRANCH  19  21
ATOM     20  C   UNL     1       2.051   4.175  21.223  0.00  0.00    +0.000 C 
ATOM     21  C   UNL     1       1.350   2.828  21.194  0.00  0.00    +0.000 C 
ENDBRANCH  19  21
ENDBRANCH  17  19
ENDBRANCH  16  17
ENDBRANCH  15  16
ENDBRANCH  14  15
ENDBRANCH  13  14
ENDBRANCH  12  13
ENDBRANCH  11  12
ENDBRANCH   1  11
BRANCH   6  22
ATOM     22  C   UNL     1      -1.661  12.351  20.996  0.00  0.00    +0.000 C 
BRANCH  22  23
ATOM     23  C   UNL     1      -2.390  12.395  22.345  0.00  0.00    +0.000 C 
ATOM     24  S   UNL     1      -4.175  12.769  22.241  0.00  0.00    +0.000 S 
ATOM     25  C   UNL     1      -4.004  14.248  23.151  0.00  0.00    +0.000 C 
ATOM     26  O   UNL     1      -4.885  15.083  23.265  0.00  0.00    +0.000 OA
ATOM     27  N   UNL     1      -2.769  14.328  23.688  0.00  0.00    +0.000 N 
ATOM     28  C   UNL     1      -1.820  13.451  23.265  0.00  0.00    +0.000 C 
ATOM     29  O   UNL     1      -0.639  13.531  23.588  0.00  0.00    +0.000 OA
ATOM     30  H   UNL     1      -2.510  15.135  24.238  0.00  0.00    +0.000 HD
ENDBRANCH  22  23
ENDBRANCH   6  22
TORSDOF 11
ENDMDL
MODEL 9
REMARK VINA RESULT:      -7.5      5.564      8.820
REMARK  Name = 
REMARK  12 active torsions:
REMARK  status: ('A' for Active; 'I' for Inactive)
REMARK    1  A    between atoms: C_1  and  C_2
REMARK    2  A    between atoms: C_2  and  O_3
REMARK    3  A    between atoms: O_3  and  C_4
REMARK    4  A    between atoms: C_4  and  C_6
REMARK    5  A    between atoms: C_6  and  C_7
REMARK    6  A    between atoms: C_7  and  C_8
REMARK    7  A    between atoms: C_8  and  C_9
REMARK    8  A    between atoms: C_9  and  C_10
REMARK    9  A    between atoms: C_10  and  O_11
REMARK   10  A    between atoms: O_11  and  C_12
REMARK   11  A    between atoms: C_17  and  C_18
REMARK   12  A    between atoms: C_18  and  C_19
REMARK                            x       y       z     vdW  Elec       q    Type
REMARK                         _______ _______ _______ _____ _____    ______ ____
ROOT
ATOM      1  C   UNL     1       2.330   6.756  19.119  0.00  0.00    +0.000 A 
ATOM      2  C   UNL     1       2.502   7.662  18.075  0.00  0.00    +0.000 A 
ATOM      3  C   UNL     1       2.058   8.982  18.211  0.00  0.00    +0.000 A 
ATOM      4  C   UNL     1       1.441   9.416  19.397  0.00  0.00    +0.000 A 
ATOM      5  C   UNL     1       0.956  10.729  19.553  0.00  0.00    +0.000 A 
ATOM      6  C   UNL     1       0.356  11.142  20.755  0.00  0.00    +0.000 A 
ATOM      7  C   UNL     1       0.261  10.228  21.811  0.00  0.00    +0.000 A 
ATOM      8  C   UNL     1       0.721   8.920  21.663  0.00  0.00    +0.000 A 
ATOM      9  C   UNL     1       1.303   8.502  20.461  0.00  0.00    +0.000 A 
ATOM     10  C   UNL     1       1.745   7.183  20.308  0.00  0.00    +0.000 A 
ENDROOT
BRANCH   1  11
ATOM     11  O   UNL     1       2.685   5.438  19.113  0.00  0.00    +0.000 OA
BRANCH  11  12
ATOM     12  C   UNL     1       1.839   4.552  18.389  0.00  0.00    +0.000 C 
BRANCH  12  13
ATOM     13  C   UNL     1       2.718   3.453  17.812  0.00  0.00    +0.000 C 
BRANCH  13  14
ATOM     14  C   UNL     1       4.135   3.960  17.574  0.00  0.00    +0.000 C 
BRANCH  14  15
ATOM     15  C   UNL     1       4.477   3.894  16.092  0.00  0.00    +0.000 C 
BRANCH  15  16
ATOM     16  C   UNL     1       5.977   4.000  15.857  0.00  0.00    +0.000 C 
BRANCH  16  17
ATOM     17  C   UNL     1       6.433   5.426  16.030  0.00  0.00    +0.000 C 
ATOM     18  O   UNL     1       5.845   6.412  15.610  0.00  0.00    +0.000 OA
BRANCH  17  19
ATOM     19  O   UNL     1       7.655   5.434  16.633  0.00  0.00    +0.000 OA
BRANCH  19  21
ATOM     20  C   UNL     1       7.568   5.748  18.991  0.00  0.00    +0.000 C 
ATOM     21  C   UNL     1       7.705   4.726  17.876  0.00  0.00    +0.000 C 
ENDBRANCH  19  21
ENDBRANCH  17  19
ENDBRANCH  16  17
ENDBRANCH  15  16
ENDBRANCH  14  15
ENDBRANCH  13  14
ENDBRANCH  12  13
ENDBRANCH  11  12
ENDBRANCH   1  11
BRANCH   6  22
ATOM     22  C   UNL     1      -0.185  12.545  20.919  0.00  0.00    +0.000 C 
BRANCH  22  23
ATOM     23  C   UNL     1      -1.217  13.006  19.882  0.00  0.00    +0.000 C 
ATOM     24  S   UNL     1      -2.415  11.726  19.369  0.00  0.00    +0.000 S 
ATOM     25  C   UNL     1      -1.868  11.759  17.712  0.00  0.00    +0.000 C 
ATOM     26  O   UNL     1      -2.195  10.940  16.870  0.00  0.00    +0.000 OA
ATOM     27  N   UNL     1      -1.036  12.802  17.514  0.00  0.00    +0.000 N 
ATOM     28  C   UNL     1      -0.566  13.473  18.600  0.00  0.00    +0.000 C 
ATOM     29  O   UNL     1       0.298  14.341  18.532  0.00  0.00    +0.000 OA
ATOM     30  H   UNL     1      -0.624  12.953  16.604  0.00  0.00    +0.000 HD
ENDBRANCH  22  23
ENDBRANCH   6  22
TORSDOF 11
ENDMDL
