MODEL 1
REMARK VINA RESULT:      -8.9      0.000      0.000
REMARK  Name = 
REMARK  3 active torsions:
REMARK  status: ('A' for Active; 'I' for Inactive)
REMARK    1  A    between atoms: C_7  and  C_8
REMARK    2  A    between atoms: N_20  and  C_21
REMARK    3  A    between atoms: C_24  and  O_25
REMARK                            x       y       z     vdW  Elec       q    Type
REMARK                         _______ _______ _______ _____ _____    ______ ____
ROOT
ATOM      1  O   UNL     1       4.948   1.595  19.587  0.00  0.00    +0.000 OA
ATOM      2  C   UNL     1       4.224   2.569  19.690  0.00  0.00    +0.000 A 
ATOM      3  N   UNL     1       3.265   2.765  20.698  0.00  0.00    +0.000 N 
ATOM      4  C   UNL     1       2.707   4.021  20.520  0.00  0.00    +0.000 A 
ATOM      5  C   UNL     1       1.830   4.759  21.247  0.00  0.00    +0.000 A 
ATOM      6  N   UNL     1       1.515   6.017  20.865  0.00  0.00    +0.000 NA
ATOM      7  C   UNL     1       2.092   6.478  19.725  0.00  0.00    +0.000 A 
ATOM      8  N   UNL     1       2.965   5.823  18.947  0.00  0.00    +0.000 NA
ATOM      9  C   UNL     1       3.249   4.608  19.395  0.00  0.00    +0.000 A 
ATOM     10  N   UNL     1       4.201   3.726  18.884  0.00  0.00    +0.000 N 
ATOM     11  H   UNL     1       3.114   2.110  21.451  0.00  0.00    +0.000 HD
ENDROOT
BRANCH   7  12
ATOM     12  C   UNL     1       1.841   7.852  19.373  0.00  0.00    +0.000 A 
ATOM     13  C   UNL     1       2.079   8.505  18.179  0.00  0.00    +0.000 A 
ATOM     14  N   UNL     1       1.676   9.811  18.221  0.00  0.00    +0.000 NA
ATOM     15  C   UNL     1       1.202   9.985  19.434  0.00  0.00    +0.000 A 
ATOM     16  C   UNL     1       0.672  11.149  20.063  0.00  0.00    +0.000 A 
ATOM     17  C   UNL     1       0.253  11.088  21.341  0.00  0.00    +0.000 A 
ATOM     18  C   UNL     1       0.319   9.850  22.085  0.00  0.00    +0.000 A 
ATOM     19  F   UNL     1      -0.118   9.835  23.359  0.00  0.00    +0.000 F 
ATOM     20  C   UNL     1       0.816   8.745  21.513  0.00  0.00    +0.000 A 
ATOM     21  N   UNL     1       1.262   8.809  20.189  0.00  0.00    +0.000 N 
ENDBRANCH   7  12
BRANCH  10  22
ATOM     22  C   UNL     1       5.156   4.026  17.849  0.00  0.00    +0.000 C 
ATOM     23  C   UNL     1       4.547   4.669  16.600  0.00  0.00    +0.000 C 
ATOM     24  C   UNL     1       5.571   4.563  15.471  0.00  0.00    +0.000 C 
ATOM     25  C   UNL     1       6.914   5.209  15.838  0.00  0.00    +0.000 C 
ATOM     26  C   UNL     1       7.437   4.837  17.231  0.00  0.00    +0.000 C 
ATOM     27  C   UNL     1       6.352   4.878  18.304  0.00  0.00    +0.000 C 
BRANCH  25  28
ATOM     28  O   UNL     1       7.888   4.831  14.867  0.00  0.00    +0.000 OA
ATOM     29  H   UNL     1       8.433   5.613  14.669  0.00  0.00    +0.000 HD
ENDBRANCH  25  28
ENDBRANCH  10  22
TORSDOF 3
ENDMDL
MODEL 2
REMARK VINA RESULT:      -8.8      0.589      1.118
REMARK  Name = 
REMARK  3 active torsions:
REMARK  status: ('A' for Active; 'I' for Inactive)
REMARK    1  A    between atoms: C_7  and  C_8
REMARK    2  A    between atoms: N_20  and  C_21
REMARK    3  A    between atoms: C_24  and  O_25
REMARK                            x       y       z     vdW  Elec       q    Type
REMARK                         _______ _______ _______ _____ _____    ______ ____
ROOT
ATOM      1  O   UNL     1       4.877   2.141  19.321  0.00  0.00    +0.000 OA
ATOM      2  C   UNL     1       4.153   3.111  19.454  0.00  0.00    +0.000 A 
ATOM      3  N   UNL     1       3.217   3.289  20.487  0.00  0.00    +0.000 N 
ATOM      4  C   UNL     1       2.651   4.546  20.338  0.00  0.00    +0.000 A 
ATOM      5  C   UNL     1       1.787   5.270  21.094  0.00  0.00    +0.000 A 
ATOM      6  N   UNL     1       1.459   6.532  20.737  0.00  0.00    +0.000 NA
ATOM      7  C   UNL     1       2.009   7.011  19.592  0.00  0.00    +0.000 A 
ATOM      8  N   UNL     1       2.866   6.370  18.785  0.00  0.00    +0.000 NA
ATOM      9  C   UNL     1       3.164   5.149  19.210  0.00  0.00    +0.000 A 
ATOM     10  N   UNL     1       4.107   4.279  18.665  0.00  0.00    +0.000 N 
ATOM     11  H   UNL     1       3.085   2.623  21.234  0.00  0.00    +0.000 HD
ENDROOT
BRANCH   7  12
ATOM     12  C   UNL     1       1.746   8.389  19.264  0.00  0.00    +0.000 A 
ATOM     13  C   UNL     1       2.009   9.074  18.093  0.00  0.00    +0.000 A 
ATOM     14  N   UNL     1       1.582  10.372  18.153  0.00  0.00    +0.000 NA
ATOM     15  C   UNL     1       1.068  10.508  19.354  0.00  0.00    +0.000 A 
ATOM     16  C   UNL     1       0.500  11.649  19.994  0.00  0.00    +0.000 A 
ATOM     17  C   UNL     1       0.043  11.551  21.257  0.00  0.00    +0.000 A 
ATOM     18  C   UNL     1       0.107  10.296  21.973  0.00  0.00    +0.000 A 
ATOM     19  F   UNL     1      -0.368  10.244  23.232  0.00  0.00    +0.000 F 
ATOM     20  C   UNL     1       0.641   9.213  21.391  0.00  0.00    +0.000 A 
ATOM     21  N   UNL     1       1.125   9.316  20.084  0.00  0.00    +0.000 N 
ENDBRANCH   7  12
BRANCH  10  22
ATOM     22  C   UNL     1       5.038   4.596  17.613  0.00  0.00    +0.000 C 
ATOM     23  C   UNL     1       6.500   4.652  18.064  0.00  0.00    +0.000 C 
ATOM     24  C   UNL     1       7.300   5.367  16.977  0.00  0.00    +0.000 C 
ATOM     25  C   UNL     1       7.160   4.689  15.607  0.00  0.00    +0.000 C 
ATOM     26  C   UNL     1       5.720   4.323  15.225  0.00  0.00    +0.000 C 
ATOM     27  C   UNL     1       4.943   3.689  16.374  0.00  0.00    +0.000 C 
BRANCH  25  28
ATOM     28  O   UNL     1       7.692   5.556  14.608  0.00  0.00    +0.000 OA
ATOM     29  H   UNL     1       7.802   6.439  15.004  0.00  0.00    +0.000 HD
ENDBRANCH  25  28
ENDBRANCH  10  22
TORSDOF 3
ENDMDL
MODEL 3
REMARK VINA RESULT:      -7.8      2.582      4.818
REMARK  Name = 
REMARK  3 active torsions:
REMARK  status: ('A' for Active; 'I' for Inactive)
REMARK    1  A    between atoms: C_7  and  C_8
REMARK    2  A    between atoms: N_20  and  C_21
REMARK    3  A    between atoms: C_24  and  O_25
REMARK                            x       y       z     vdW  Elec       q    Type
REMARK                         _______ _______ _______ _____ _____    ______ ____
ROOT
ATOM      1  O   UNL     1       3.803   5.343  17.046  0.00  0.00    +0.000 OA
ATOM      2  C   UNL     1       3.329   6.284  17.658  0.00  0.00    +0.000 A 
ATOM      3  N   UNL     1       3.091   7.562  17.124  0.00  0.00    +0.000 N 
ATOM      4  C   UNL     1       2.473   8.326  18.102  0.00  0.00    +0.000 A 
ATOM      5  C   UNL     1       1.933   9.570  18.104  0.00  0.00    +0.000 A 
ATOM      6  N   UNL     1       1.310  10.043  19.207  0.00  0.00    +0.000 NA
ATOM      7  C   UNL     1       1.282   9.230  20.295  0.00  0.00    +0.000 A 
ATOM      8  N   UNL     1       1.788   7.992  20.384  0.00  0.00    +0.000 NA
ATOM      9  C   UNL     1       2.359   7.583  19.259  0.00  0.00    +0.000 A 
ATOM     10  N   UNL     1       2.868   6.314  18.990  0.00  0.00    +0.000 N 
ATOM     11  H   UNL     1       3.275   7.801  16.161  0.00  0.00    +0.000 HD
ENDROOT
BRANCH   7  12
ATOM     12  C   UNL     1       0.530   9.687  21.436  0.00  0.00    +0.000 A 
ATOM     13  C   UNL     1       0.630   9.302  22.759  0.00  0.00    +0.000 A 
ATOM     14  N   UNL     1      -0.242   9.989  23.558  0.00  0.00    +0.000 NA
ATOM     15  C   UNL     1      -0.895  10.789  22.746  0.00  0.00    +0.000 A 
ATOM     16  C   UNL     1      -1.948  11.714  23.005  0.00  0.00    +0.000 A 
ATOM     17  C   UNL     1      -2.479  12.426  21.994  0.00  0.00    +0.000 A 
ATOM     18  C   UNL     1      -1.987  12.275  20.642  0.00  0.00    +0.000 A 
ATOM     19  F   UNL     1      -2.545  13.013  19.664  0.00  0.00    +0.000 F 
ATOM     20  C   UNL     1      -1.001  11.408  20.376  0.00  0.00    +0.000 A 
ATOM     21  N   UNL     1      -0.455  10.661  21.424  0.00  0.00    +0.000 N 
ENDBRANCH   7  12
BRANCH  10  22
ATOM     22  C   UNL     1       2.747   5.160  19.843  0.00  0.00    +0.000 C 
ATOM     23  C   UNL     1       1.355   4.524  19.845  0.00  0.00    +0.000 C 
ATOM     24  C   UNL     1       1.265   3.593  21.054  0.00  0.00    +0.000 C 
ATOM     25  C   UNL     1       2.369   2.528  21.053  0.00  0.00    +0.000 C 
ATOM     26  C   UNL     1       3.772   3.068  20.747  0.00  0.00    +0.000 C 
ATOM     27  C   UNL     1       3.788   4.057  19.585  0.00  0.00    +0.000 C 
BRANCH  25  28
ATOM     28  O   UNL     1       2.393   1.889  22.328  0.00  0.00    +0.000 OA
ATOM     29  H   UNL     1       1.478   1.847  22.660  0.00  0.00    +0.000 HD
ENDBRANCH  25  28
ENDBRANCH  10  22
TORSDOF 3
ENDMDL
MODEL 4
REMARK VINA RESULT:      -7.7      4.095      7.544
REMARK  Name = 
REMARK  3 active torsions:
REMARK  status: ('A' for Active; 'I' for Inactive)
REMARK    1  A    between atoms: C_7  and  C_8
REMARK    2  A    between atoms: N_20  and  C_21
REMARK    3  A    between atoms: C_24  and  O_25
REMARK                            x       y       z     vdW  Elec       q    Type
REMARK                         _______ _______ _______ _____ _____    ______ ____
ROOT
ATOM      1  O   UNL     1       0.326   3.949  20.251  0.00  0.00    +0.000 OA
ATOM      2  C   UNL     1       1.351   3.809  19.606  0.00  0.00    +0.000 A 
ATOM      3  N   UNL     1       1.896   2.577  19.206  0.00  0.00    +0.000 N 
ATOM      4  C   UNL     1       3.012   2.836  18.426  0.00  0.00    +0.000 A 
ATOM      5  C   UNL     1       3.843   2.044  17.704  0.00  0.00    +0.000 A 
ATOM      6  N   UNL     1       4.829   2.590  16.956  0.00  0.00    +0.000 NA
ATOM      7  C   UNL     1       4.952   3.942  16.992  0.00  0.00    +0.000 A 
ATOM      8  N   UNL     1       4.181   4.800  17.674  0.00  0.00    +0.000 NA
ATOM      9  C   UNL     1       3.220   4.198  18.362  0.00  0.00    +0.000 A 
ATOM     10  N   UNL     1       2.188   4.811  19.073  0.00  0.00    +0.000 N 
ATOM     11  H   UNL     1       1.458   1.690  19.405  0.00  0.00    +0.000 HD
ENDROOT
BRANCH   7  12
ATOM     12  C   UNL     1       5.932   4.534  16.117  0.00  0.00    +0.000 A 
ATOM     13  C   UNL     1       6.923   5.452  16.409  0.00  0.00    +0.000 A 
ATOM     14  N   UNL     1       7.680   5.754  15.310  0.00  0.00    +0.000 NA
ATOM     15  C   UNL     1       7.162   5.046  14.332  0.00  0.00    +0.000 A 
ATOM     16  C   UNL     1       7.513   4.978  12.952  0.00  0.00    +0.000 A 
ATOM     17  C   UNL     1       6.818   4.177  12.123  0.00  0.00    +0.000 A 
ATOM     18  C   UNL     1       5.723   3.370  12.615  0.00  0.00    +0.000 A 
ATOM     19  F   UNL     1       5.061   2.579  11.749  0.00  0.00    +0.000 F 
ATOM     20  C   UNL     1       5.375   3.422  13.908  0.00  0.00    +0.000 A 
ATOM     21  N   UNL     1       6.090   4.261  14.768  0.00  0.00    +0.000 N 
ENDBRANCH   7  12
BRANCH  10  22
ATOM     22  C   UNL     1       1.892   6.220  19.082  0.00  0.00    +0.000 C 
ATOM     23  C   UNL     1       2.159   6.908  20.423  0.00  0.00    +0.000 C 
ATOM     24  C   UNL     1       1.446   8.260  20.407  0.00  0.00    +0.000 C 
ATOM     25  C   UNL     1       1.885   9.137  19.227  0.00  0.00    +0.000 C 
ATOM     26  C   UNL     1       1.934   8.409  17.878  0.00  0.00    +0.000 C 
ATOM     27  C   UNL     1       2.580   7.030  17.970  0.00  0.00    +0.000 C 
BRANCH  25  28
ATOM     28  O   UNL     1       0.991  10.243  19.118  0.00  0.00    +0.000 OA
ATOM     29  H   UNL     1       0.405  10.081  18.356  0.00  0.00    +0.000 HD
ENDBRANCH  25  28
ENDBRANCH  10  22
TORSDOF 3
ENDMDL
MODEL 5
REMARK VINA RESULT:      -7.6      4.080      7.553
REMARK  Name = 
REMARK  3 active torsions:
REMARK  status: ('A' for Active; 'I' for Inactive)
REMARK    1  A    between atoms: C_7  and  C_8
REMARK    2  A    between atoms: N_20  and  C_21
REMARK    3  A    between atoms: C_24  and  O_25
REMARK                            x       y       z     vdW  Elec       q    Type
REMARK                         _______ _______ _______ _____ _____    ______ ____
ROOT
ATOM      1  O   UNL     1       0.530   4.397  20.450  0.00  0.00    +0.000 OA
ATOM      2  C   UNL     1       1.516   4.192  19.763  0.00  0.00    +0.000 A 
ATOM      3  N   UNL     1       1.945   2.932  19.315  0.00  0.00    +0.000 N 
ATOM      4  C   UNL     1       3.050   3.122  18.500  0.00  0.00    +0.000 A 
ATOM      5  C   UNL     1       3.788   2.285  17.728  0.00  0.00    +0.000 A 
ATOM      6  N   UNL     1       4.787   2.770  16.957  0.00  0.00    +0.000 NA
ATOM      7  C   UNL     1       5.020   4.106  17.019  0.00  0.00    +0.000 A 
ATOM      8  N   UNL     1       4.346   5.005  17.749  0.00  0.00    +0.000 NA
ATOM      9  C   UNL     1       3.364   4.464  18.459  0.00  0.00    +0.000 A 
ATOM     10  N   UNL     1       2.412   5.138  19.222  0.00  0.00    +0.000 N 
ATOM     11  H   UNL     1       1.445   2.077  19.510  0.00  0.00    +0.000 HD
ENDROOT
BRANCH   7  12
ATOM     12  C   UNL     1       6.012   4.641  16.121  0.00  0.00    +0.000 A 
ATOM     13  C   UNL     1       7.049   5.516  16.385  0.00  0.00    +0.000 A 
ATOM     14  N   UNL     1       7.801   5.768  15.271  0.00  0.00    +0.000 NA
ATOM     15  C   UNL     1       7.237   5.072  14.311  0.00  0.00    +0.000 A 
ATOM     16  C   UNL     1       7.563   4.969  12.927  0.00  0.00    +0.000 A 
ATOM     17  C   UNL     1       6.819   4.190  12.119  0.00  0.00    +0.000 A 
ATOM     18  C   UNL     1       5.697   3.441  12.639  0.00  0.00    +0.000 A 
ATOM     19  F   UNL     1       4.986   2.670  11.794  0.00  0.00    +0.000 F 
ATOM     20  C   UNL     1       5.371   3.526  13.936  0.00  0.00    +0.000 A 
ATOM     21  N   UNL     1       6.137   4.343  14.774  0.00  0.00    +0.000 N 
ENDBRANCH   7  12
BRANCH  10  22
ATOM     22  C   UNL     1       2.230   6.565  19.275  0.00  0.00    +0.000 C 
ATOM     23  C   UNL     1       1.661   7.173  17.991  0.00  0.00    +0.000 C 
ATOM     24  C   UNL     1       1.893   8.682  18.043  0.00  0.00    +0.000 C 
ATOM     25  C   UNL     1       1.274   9.325  19.291  0.00  0.00    +0.000 C 
ATOM     26  C   UNL     1       1.560   8.575  20.599  0.00  0.00    +0.000 C 
ATOM     27  C   UNL     1       1.394   7.064  20.465  0.00  0.00    +0.000 C 
BRANCH  25  28
ATOM     28  O   UNL     1       1.764  10.659  19.413  0.00  0.00    +0.000 OA
ATOM     29  H   UNL     1       1.214  11.233  18.850  0.00  0.00    +0.000 HD
ENDBRANCH  25  28
ENDBRANCH  10  22
TORSDOF 3
ENDMDL
MODEL 6
REMARK VINA RESULT:      -7.6      1.320      1.887
REMARK  Name = 
REMARK  3 active torsions:
REMARK  status: ('A' for Active; 'I' for Inactive)
REMARK    1  A    between atoms: C_7  and  C_8
REMARK    2  A    between atoms: N_20  and  C_21
REMARK    3  A    between atoms: C_24  and  O_25
REMARK                            x       y       z     vdW  Elec       q    Type
REMARK                         _______ _______ _______ _____ _____    ______ ____
ROOT
ATOM      1  O   UNL     1       4.076   2.988  19.774  0.00  0.00    +0.000 OA
ATOM      2  C   UNL     1       3.454   4.035  19.792  0.00  0.00    +0.000 A 
ATOM      3  N   UNL     1       2.477   4.382  20.740  0.00  0.00    +0.000 N 
ATOM      4  C   UNL     1       2.063   5.678  20.473  0.00  0.00    +0.000 A 
ATOM      5  C   UNL     1       1.236   6.539  21.117  0.00  0.00    +0.000 A 
ATOM      6  N   UNL     1       1.071   7.800  20.658  0.00  0.00    +0.000 NA
ATOM      7  C   UNL     1       1.744   8.137  19.528  0.00  0.00    +0.000 A 
ATOM      8  N   UNL     1       2.578   7.356  18.827  0.00  0.00    +0.000 NA
ATOM      9  C   UNL     1       2.712   6.143  19.349  0.00  0.00    +0.000 A 
ATOM     10  N   UNL     1       3.589   5.143  18.930  0.00  0.00    +0.000 N 
ATOM     11  H   UNL     1       2.225   3.788  21.516  0.00  0.00    +0.000 HD
ENDROOT
BRANCH   7  12
ATOM     12  C   UNL     1       1.655   9.509  19.095  0.00  0.00    +0.000 A 
ATOM     13  C   UNL     1       2.286  10.134  18.037  0.00  0.00    +0.000 A 
ATOM     14  N   UNL     1       1.921  11.448  17.929  0.00  0.00    +0.000 NA
ATOM     15  C   UNL     1       1.081  11.653  18.917  0.00  0.00    +0.000 A 
ATOM     16  C   UNL     1       0.402  12.839  19.324  0.00  0.00    +0.000 A 
ATOM     17  C   UNL     1      -0.413  12.811  20.395  0.00  0.00    +0.000 A 
ATOM     18  C   UNL     1      -0.624  11.586  21.135  0.00  0.00    +0.000 A 
ATOM     19  F   UNL     1      -1.453  11.604  22.195  0.00  0.00    +0.000 F 
ATOM     20  C   UNL     1       0.008  10.461  20.771  0.00  0.00    +0.000 A 
ATOM     21  N   UNL     1       0.863  10.492  19.665  0.00  0.00    +0.000 N 
ENDBRANCH   7  12
BRANCH  10  22
ATOM     22  C   UNL     1       4.615   5.286  17.931  0.00  0.00    +0.000 C 
ATOM     23  C   UNL     1       6.042   5.237  18.485  0.00  0.00    +0.000 C 
ATOM     24  C   UNL     1       6.981   5.786  17.413  0.00  0.00    +0.000 C 
ATOM     25  C   UNL     1       6.866   5.020  16.088  0.00  0.00    +0.000 C 
ATOM     26  C   UNL     1       5.426   4.765  15.626  0.00  0.00    +0.000 C 
ATOM     27  C   UNL     1       4.513   4.300  16.756  0.00  0.00    +0.000 C 
BRANCH  25  28
ATOM     28  O   UNL     1       7.550   5.751  15.072  0.00  0.00    +0.000 OA
ATOM     29  H   UNL     1       6.887   6.253  14.566  0.00  0.00    +0.000 HD
ENDBRANCH  25  28
ENDBRANCH  10  22
TORSDOF 3
ENDMDL
MODEL 7
REMARK VINA RESULT:      -7.5      6.848     10.045
REMARK  Name = 
REMARK  3 active torsions:
REMARK  status: ('A' for Active; 'I' for Inactive)
REMARK    1  A    between atoms: C_7  and  C_8
REMARK    2  A    between atoms: N_20  and  C_21
REMARK    3  A    between atoms: C_24  and  O_25
REMARK                            x       y       z     vdW  Elec       q    Type
REMARK                         _______ _______ _______ _____ _____    ______ ____
ROOT
ATOM      1  O   UNL     1       1.548  14.388  22.120  0.00  0.00    +0.000 OA
ATOM      2  C   UNL     1       0.331  14.354  22.140  0.00  0.00    +0.000 A 
ATOM      3  N   UNL     1      -0.512  15.479  22.131  0.00  0.00    +0.000 N 
ATOM      4  C   UNL     1      -1.822  15.031  22.077  0.00  0.00    +0.000 A 
ATOM      5  C   UNL     1      -3.015  15.664  21.943  0.00  0.00    +0.000 A 
ATOM      6  N   UNL     1      -4.159  14.951  21.839  0.00  0.00    +0.000 NA
ATOM      7  C   UNL     1      -4.051  13.599  21.903  0.00  0.00    +0.000 A 
ATOM      8  N   UNL     1      -2.921  12.891  22.034  0.00  0.00    +0.000 NA
ATOM      9  C   UNL     1      -1.836  13.652  22.103  0.00  0.00    +0.000 A 
ATOM     10  N   UNL     1      -0.510  13.222  22.124  0.00  0.00    +0.000 N 
ATOM     11  H   UNL     1      -0.167  16.426  22.081  0.00  0.00    +0.000 HD
ENDROOT
BRANCH   7  12
ATOM     12  C   UNL     1      -5.252  12.834  21.687  0.00  0.00    +0.000 A 
ATOM     13  C   UNL     1      -6.299  12.588  22.554  0.00  0.00    +0.000 A 
ATOM     14  N   UNL     1      -7.282  11.837  21.970  0.00  0.00    +0.000 NA
ATOM     15  C   UNL     1      -6.852  11.600  20.751  0.00  0.00    +0.000 A 
ATOM     16  C   UNL     1      -7.437  10.841  19.695  0.00  0.00    +0.000 A 
ATOM     17  C   UNL     1      -6.795  10.725  18.518  0.00  0.00    +0.000 A 
ATOM     18  C   UNL     1      -5.520  11.373  18.302  0.00  0.00    +0.000 A 
ATOM     19  F   UNL     1      -4.917  11.234  17.105  0.00  0.00    +0.000 F 
ATOM     20  C   UNL     1      -4.951  12.088  19.283  0.00  0.00    +0.000 A 
ATOM     21  N   UNL     1      -5.613  12.200  20.509  0.00  0.00    +0.000 N 
ENDBRANCH   7  12
BRANCH  10  22
ATOM     22  C   UNL     1      -0.060  11.868  21.936  0.00  0.00    +0.000 C 
ATOM     23  C   UNL     1      -0.731  10.850  22.862  0.00  0.00    +0.000 C 
ATOM     24  C   UNL     1       0.102   9.569  22.833  0.00  0.00    +0.000 C 
ATOM     25  C   UNL     1       0.269   9.013  21.413  0.00  0.00    +0.000 C 
ATOM     26  C   UNL     1       0.648  10.062  20.361  0.00  0.00    +0.000 C 
ATOM     27  C   UNL     1      -0.157  11.352  20.490  0.00  0.00    +0.000 C 
BRANCH  25  28
ATOM     28  O   UNL     1       1.272   7.999  21.430  0.00  0.00    +0.000 OA
ATOM     29  H   UNL     1       1.489   7.807  22.360  0.00  0.00    +0.000 HD
ENDBRANCH  25  28
ENDBRANCH  10  22
TORSDOF 3
ENDMDL
MODEL 8
REMARK VINA RESULT:      -7.5      7.668     11.333
REMARK  Name = 
REMARK  3 active torsions:
REMARK  status: ('A' for Active; 'I' for Inactive)
REMARK    1  A    between atoms: C_7  and  C_8
REMARK    2  A    between atoms: N_20  and  C_21
REMARK    3  A    between atoms: C_24  and  O_25
REMARK                            x       y       z     vdW  Elec       q    Type
REMARK                         _______ _______ _______ _____ _____    ______ ____
ROOT
ATOM      1  O   UNL     1      -7.824  12.841  18.380  0.00  0.00    +0.000 OA
ATOM      2  C   UNL     1      -6.696  12.428  18.178  0.00  0.00    +0.000 A 
ATOM      3  N   UNL     1      -6.220  11.935  16.951  0.00  0.00    +0.000 N 
ATOM      4  C   UNL     1      -4.874  11.641  17.102  0.00  0.00    +0.000 A 
ATOM      5  C   UNL     1      -3.907  11.246  16.235  0.00  0.00    +0.000 A 
ATOM      6  N   UNL     1      -2.629  11.106  16.654  0.00  0.00    +0.000 NA
ATOM      7  C   UNL     1      -2.381  11.351  17.966  0.00  0.00    +0.000 A 
ATOM      8  N   UNL     1      -3.268  11.743  18.891  0.00  0.00    +0.000 NA
ATOM      9  C   UNL     1      -4.494  11.886  18.405  0.00  0.00    +0.000 A 
ATOM     10  N   UNL     1      -5.608  12.390  19.075  0.00  0.00    +0.000 N 
ATOM     11  H   UNL     1      -6.781  11.907  16.112  0.00  0.00    +0.000 HD
ENDROOT
BRANCH   7  12
ATOM     12  C   UNL     1      -1.005  11.306  18.393  0.00  0.00    +0.000 A 
ATOM     13  C   UNL     1      -0.205  10.208  18.646  0.00  0.00    +0.000 A 
ATOM     14  N   UNL     1       1.064  10.573  19.005  0.00  0.00    +0.000 NA
ATOM     15  C   UNL     1       1.059  11.886  18.993  0.00  0.00    +0.000 A 
ATOM     16  C   UNL     1       2.089  12.819  19.314  0.00  0.00    +0.000 A 
ATOM     17  C   UNL     1       1.843  14.140  19.241  0.00  0.00    +0.000 A 
ATOM     18  C   UNL     1       0.548  14.632  18.826  0.00  0.00    +0.000 A 
ATOM     19  F   UNL     1       0.350  15.962  18.762  0.00  0.00    +0.000 F 
ATOM     20  C   UNL     1      -0.435  13.772  18.524  0.00  0.00    +0.000 A 
ATOM     21  N   UNL     1      -0.184  12.399  18.609  0.00  0.00    +0.000 N 
ENDBRANCH   7  12
BRANCH  10  22
ATOM     22  C   UNL     1      -5.606  12.980  20.388  0.00  0.00    +0.000 C 
ATOM     23  C   UNL     1      -5.778  14.501  20.392  0.00  0.00    +0.000 C 
ATOM     24  C   UNL     1      -5.366  15.016  21.771  0.00  0.00    +0.000 C 
ATOM     25  C   UNL     1      -6.166  14.357  22.903  0.00  0.00    +0.000 C 
ATOM     26  C   UNL     1      -6.292  12.833  22.786  0.00  0.00    +0.000 C 
ATOM     27  C   UNL     1      -6.621  12.370  21.370  0.00  0.00    +0.000 C 
BRANCH  25  28
ATOM     28  O   UNL     1      -5.545  14.671  24.148  0.00  0.00    +0.000 OA
ATOM     29  H   UNL     1      -6.059  14.243  24.856  0.00  0.00    +0.000 HD
ENDBRANCH  25  28
ENDBRANCH  10  22
TORSDOF 3
ENDMDL
MODEL 9
REMARK VINA RESULT:      -7.5      4.405      7.876
REMARK  Name = 
REMARK  3 active torsions:
REMARK  status: ('A' for Active; 'I' for Inactive)
REMARK    1  A    between atoms: C_7  and  C_8
REMARK    2  A    between atoms: N_20  and  C_21
REMARK    3  A    between atoms: C_24  and  O_25
REMARK                            x       y       z     vdW  Elec       q    Type
REMARK                         _______ _______ _______ _____ _____    ______ ____
ROOT
ATOM      1  O   UNL     1      -2.123  12.140  20.910  0.00  0.00    +0.000 OA
ATOM      2  C   UNL     1      -1.223  11.322  20.848  0.00  0.00    +0.000 A 
ATOM      3  N   UNL     1      -0.446  10.887  21.935  0.00  0.00    +0.000 N 
ATOM      4  C   UNL     1       0.413   9.899  21.478  0.00  0.00    +0.000 A 
ATOM      5  C   UNL     1       1.290   9.072  22.100  0.00  0.00    +0.000 A 
ATOM      6  N   UNL     1       1.955   8.127  21.398  0.00  0.00    +0.000 NA
ATOM      7  C   UNL     1       1.719   8.074  20.061  0.00  0.00    +0.000 A 
ATOM      8  N   UNL     1       0.874   8.847  19.365  0.00  0.00    +0.000 NA
ATOM      9  C   UNL     1       0.238   9.732  20.120  0.00  0.00    +0.000 A 
ATOM     10  N   UNL     1      -0.784  10.593  19.723  0.00  0.00    +0.000 N 
ATOM     11  H   UNL     1      -0.592  11.207  22.881  0.00  0.00    +0.000 HD
ENDROOT
BRANCH   7  12
ATOM     12  C   UNL     1       2.343   7.003  19.327  0.00  0.00    +0.000 A 
ATOM     13  C   UNL     1       3.184   7.068  18.233  0.00  0.00    +0.000 A 
ATOM     14  N   UNL     1       3.600   5.827  17.833  0.00  0.00    +0.000 NA
ATOM     15  C   UNL     1       3.015   4.988  18.658  0.00  0.00    +0.000 A 
ATOM     16  C   UNL     1       3.048   3.563  18.706  0.00  0.00    +0.000 A 
ATOM     17  C   UNL     1       2.346   2.908  19.649  0.00  0.00    +0.000 A 
ATOM     18  C   UNL     1       1.565   3.632  20.628  0.00  0.00    +0.000 A 
ATOM     19  F   UNL     1       0.884   2.934  21.557  0.00  0.00    +0.000 F 
ATOM     20  C   UNL     1       1.517   4.970  20.598  0.00  0.00    +0.000 A 
ATOM     21  N   UNL     1       2.238   5.652  19.613  0.00  0.00    +0.000 N 
ENDBRANCH   7  12
BRANCH  10  22
ATOM     22  C   UNL     1      -1.438  10.590  18.440  0.00  0.00    +0.000 C 
ATOM     23  C   UNL     1      -2.737   9.780  18.401  0.00  0.00    +0.000 C 
ATOM     24  C   UNL     1      -3.095   9.539  16.934  0.00  0.00    +0.000 C 
ATOM     25  C   UNL     1      -3.223  10.847  16.142  0.00  0.00    +0.000 C 
ATOM     26  C   UNL     1      -2.085  11.848  16.381  0.00  0.00    +0.000 C 
ATOM     27  C   UNL     1      -1.713  11.985  17.854  0.00  0.00    +0.000 C 
BRANCH  25  28
ATOM     28  O   UNL     1      -3.277  10.539  14.751  0.00  0.00    +0.000 OA
ATOM     29  H   UNL     1      -4.016   9.920  14.609  0.00  0.00    +0.000 HD
ENDBRANCH  25  28
ENDBRANCH  10  22
TORSDOF 3
ENDMDL
