MODEL 1
REMARK VINA RESULT:      -8.9      0.000      0.000
REMARK  Name = 
REMARK  6 active torsions:
REMARK  status: ('A' for Active; 'I' for Inactive)
REMARK    1  A    between atoms: C_2  and  C_3
REMARK    2  A    between atoms: C_4  and  C_5
REMARK    3  A    between atoms: N_15  and  C_16
REMARK    4  A    between atoms: C_16  and  C_17
REMARK    5  A    between atoms: N_19  and  C_20
REMARK    6  A    between atoms: C_20  and  C_21
REMARK                            x       y       z     vdW  Elec       q    Type
REMARK                         _______ _______ _______ _____ _____    ______ ____
ROOT
ATOM      1  O   UNL     1       7.920   6.569  18.549  0.00  0.00    +0.000 OA
ATOM      2  C   UNL     1       7.578   7.495  17.827  0.00  0.00    +0.000 C 
ATOM      3  N   UNL     1       6.597   7.409  16.874  0.00  0.00    +0.000 N 
ATOM      4  H   UNL     1       6.443   8.173  16.226  0.00  0.00    +0.000 HD
ENDROOT
BRANCH   2   5
ATOM      5  C   UNL     1       8.189   8.848  17.889  0.00  0.00    +0.000 C 
ATOM      6  C   UNL     1       8.902   9.247  18.955  0.00  0.00    +0.000 C 
BRANCH   6   7
ATOM      7  C   UNL     1       9.531  10.575  19.053  0.00  0.00    +0.000 A 
ATOM      8  C   UNL     1       9.723  11.151  20.318  0.00  0.00    +0.000 A 
ATOM      9  C   UNL     1      10.338  12.401  20.450  0.00  0.00    +0.000 A 
ATOM     10  C   UNL     1      10.755  13.096  19.316  0.00  0.00    +0.000 A 
ATOM     11  C   UNL     1      10.560  12.538  18.052  0.00  0.00    +0.000 A 
ATOM     12  C   UNL     1       9.929  11.300  17.919  0.00  0.00    +0.000 A 
ATOM     13  O   UNL     1      10.959  13.149  16.891  0.00  0.00    +0.000 OA
ATOM     14  C   UNL     1      11.915  14.181  17.151  0.00  0.00    +0.000 C 
ATOM     15  C   UNL     1      11.455  15.061  18.301  0.00  0.00    +0.000 C 
ATOM     16  O   UNL     1      11.358  14.310  19.518  0.00  0.00    +0.000 OA
ENDBRANCH   6   7
ENDBRANCH   2   5
BRANCH   3  17
ATOM     17  C   UNL     1       5.903   6.166  16.608  0.00  0.00    +0.000 C 
BRANCH  17  18
ATOM     18  C   UNL     1       4.480   6.275  17.157  0.00  0.00    +0.000 C 
ATOM     19  O   UNL     1       3.984   7.362  17.451  0.00  0.00    +0.000 OA
ATOM     20  N   UNL     1       3.833   5.078  17.358  0.00  0.00    +0.000 N 
ATOM     21  H   UNL     1       4.332   4.209  17.213  0.00  0.00    +0.000 HD
BRANCH  20  22
ATOM     22  C   UNL     1       2.494   5.010  17.901  0.00  0.00    +0.000 C 
BRANCH  22  23
ATOM     23  C   UNL     1       2.438   4.174  19.146  0.00  0.00    +0.000 A 
ATOM     24  C   UNL     1       1.322   4.180  19.988  0.00  0.00    +0.000 A 
ATOM     25  C   UNL     1       1.325   3.398  21.141  0.00  0.00    +0.000 A 
ATOM     26  C   UNL     1       2.441   2.626  21.410  0.00  0.00    +0.000 A 
ATOM     27  N   UNL     1       3.529   2.581  20.612  0.00  0.00    +0.000 NA
ATOM     28  C   UNL     1       3.504   3.353  19.501  0.00  0.00    +0.000 A 
ENDBRANCH  22  23
ENDBRANCH  20  22
ENDBRANCH  17  18
ENDBRANCH   3  17
TORSDOF 6
ENDMDL
MODEL 2
REMARK VINA RESULT:      -8.8      1.510      1.601
REMARK  Name = 
REMARK  6 active torsions:
REMARK  status: ('A' for Active; 'I' for Inactive)
REMARK    1  A    between atoms: C_2  and  C_3
REMARK    2  A    between atoms: C_4  and  C_5
REMARK    3  A    between atoms: N_15  and  C_16
REMARK    4  A    between atoms: C_16  and  C_17
REMARK    5  A    between atoms: N_19  and  C_20
REMARK    6  A    between atoms: C_20  and  C_21
REMARK                            x       y       z     vdW  Elec       q    Type
REMARK                         _______ _______ _______ _____ _____    ______ ____
ROOT
ATOM      1  O   UNL     1       7.638   6.655  16.281  0.00  0.00    +0.000 OA
ATOM      2  C   UNL     1       7.584   7.148  17.399  0.00  0.00    +0.000 C 
ATOM      3  N   UNL     1       7.180   6.473  18.521  0.00  0.00    +0.000 N 
ATOM      4  H   UNL     1       7.041   6.967  19.394  0.00  0.00    +0.000 HD
ENDROOT
BRANCH   2   5
ATOM      5  C   UNL     1       7.953   8.557  17.688  0.00  0.00    +0.000 C 
ATOM      6  C   UNL     1       8.778   8.873  18.699  0.00  0.00    +0.000 C 
BRANCH   6   7
ATOM      7  C   UNL     1       9.174  10.256  19.015  0.00  0.00    +0.000 A 
ATOM      8  C   UNL     1       9.341  10.633  20.356  0.00  0.00    +0.000 A 
ATOM      9  C   UNL     1       9.739  11.932  20.690  0.00  0.00    +0.000 A 
ATOM     10  C   UNL     1       9.961  12.873  19.687  0.00  0.00    +0.000 A 
ATOM     11  C   UNL     1       9.788  12.513  18.350  0.00  0.00    +0.000 A 
ATOM     12  C   UNL     1       9.372  11.224  18.017  0.00  0.00    +0.000 A 
ATOM     13  O   UNL     1      10.006  13.375  17.306  0.00  0.00    +0.000 OA
ATOM     14  C   UNL     1      10.785  14.502  17.718  0.00  0.00    +0.000 C 
ATOM     15  C   UNL     1      10.251  15.076  19.020  0.00  0.00    +0.000 C 
ATOM     16  O   UNL     1      10.358  14.123  20.085  0.00  0.00    +0.000 OA
ENDBRANCH   6   7
ENDBRANCH   2   5
BRANCH   3  17
ATOM     17  C   UNL     1       6.726   5.099  18.459  0.00  0.00    +0.000 C 
BRANCH  17  18
ATOM     18  C   UNL     1       5.301   5.082  17.904  0.00  0.00    +0.000 C 
ATOM     19  O   UNL     1       5.016   4.473  16.873  0.00  0.00    +0.000 OA
ATOM     20  N   UNL     1       4.390   5.844  18.598  0.00  0.00    +0.000 N 
ATOM     21  H   UNL     1       4.704   6.421  19.369  0.00  0.00    +0.000 HD
BRANCH  20  22
ATOM     22  C   UNL     1       3.008   5.957  18.184  0.00  0.00    +0.000 C 
BRANCH  22  23
ATOM     23  C   UNL     1       2.173   4.829  18.717  0.00  0.00    +0.000 A 
ATOM     24  C   UNL     1       1.806   4.757  20.064  0.00  0.00    +0.000 A 
ATOM     25  C   UNL     1       1.043   3.682  20.514  0.00  0.00    +0.000 A 
ATOM     26  C   UNL     1       0.661   2.717  19.598  0.00  0.00    +0.000 A 
ATOM     27  N   UNL     1       0.983   2.761  18.288  0.00  0.00    +0.000 NA
ATOM     28  C   UNL     1       1.728   3.814  17.877  0.00  0.00    +0.000 A 
ENDBRANCH  22  23
ENDBRANCH  20  22
ENDBRANCH  17  18
ENDBRANCH   3  17
TORSDOF 6
ENDMDL
MODEL 3
REMARK VINA RESULT:      -8.7      1.674      2.082
REMARK  Name = 
REMARK  6 active torsions:
REMARK  status: ('A' for Active; 'I' for Inactive)
REMARK    1  A    between atoms: C_2  and  C_3
REMARK    2  A    between atoms: C_4  and  C_5
REMARK    3  A    between atoms: N_15  and  C_16
REMARK    4  A    between atoms: C_16  and  C_17
REMARK    5  A    between atoms: N_19  and  C_20
REMARK    6  A    between atoms: C_20  and  C_21
REMARK                            x       y       z     vdW  Elec       q    Type
REMARK                         _______ _______ _______ _____ _____    ______ ____
ROOT
ATOM      1  O   UNL     1       8.221   7.018  18.749  0.00  0.00    +0.000 OA
ATOM      2  C   UNL     1       7.701   7.722  17.895  0.00  0.00    +0.000 C 
ATOM      3  N   UNL     1       6.669   7.321  17.088  0.00  0.00    +0.000 N 
ATOM      4  H   UNL     1       6.362   7.905  16.319  0.00  0.00    +0.000 HD
ENDROOT
BRANCH   2   5
ATOM      5  C   UNL     1       8.126   9.119  17.618  0.00  0.00    +0.000 C 
ATOM      6  C   UNL     1       8.923   9.790  18.464  0.00  0.00    +0.000 C 
BRANCH   6   7
ATOM      7  C   UNL     1       9.373  11.172  18.224  0.00  0.00    +0.000 A 
ATOM      8  C   UNL     1      10.664  11.395  17.724  0.00  0.00    +0.000 A 
ATOM      9  C   UNL     1      11.116  12.694  17.462  0.00  0.00    +0.000 A 
ATOM     10  C   UNL     1      10.285  13.785  17.712  0.00  0.00    +0.000 A 
ATOM     11  C   UNL     1       9.002  13.575  18.219  0.00  0.00    +0.000 A 
ATOM     12  C   UNL     1       8.559  12.282  18.499  0.00  0.00    +0.000 A 
ATOM     13  O   UNL     1       8.119  14.593  18.473  0.00  0.00    +0.000 OA
ATOM     14  C   UNL     1       8.508  15.795  17.801  0.00  0.00    +0.000 C 
ATOM     15  C   UNL     1       9.990  16.067  18.003  0.00  0.00    +0.000 C 
ATOM     16  O   UNL     1      10.787  15.027  17.423  0.00  0.00    +0.000 OA
ENDBRANCH   6   7
ENDBRANCH   2   5
BRANCH   3  17
ATOM     17  C   UNL     1       6.132   5.977  17.153  0.00  0.00    +0.000 C 
BRANCH  17  18
ATOM     18  C   UNL     1       5.136   5.907  18.311  0.00  0.00    +0.000 C 
ATOM     19  O   UNL     1       5.427   5.374  19.381  0.00  0.00    +0.000 OA
ATOM     20  N   UNL     1       3.886   6.418  18.045  0.00  0.00    +0.000 N 
ATOM     21  H   UNL     1       3.665   6.735  17.109  0.00  0.00    +0.000 HD
BRANCH  20  22
ATOM     22  C   UNL     1       2.823   6.399  19.026  0.00  0.00    +0.000 C 
BRANCH  22  23
ATOM     23  C   UNL     1       2.112   5.077  19.051  0.00  0.00    +0.000 A 
ATOM     24  C   UNL     1       1.625   4.526  20.240  0.00  0.00    +0.000 A 
ATOM     25  C   UNL     1       0.986   3.288  20.215  0.00  0.00    +0.000 A 
ATOM     26  C   UNL     1       0.844   2.646  18.997  0.00  0.00    +0.000 A 
ATOM     27  N   UNL     1       1.286   3.154  17.827  0.00  0.00    +0.000 NA
ATOM     28  C   UNL     1       1.907   4.355  17.880  0.00  0.00    +0.000 A 
ENDBRANCH  22  23
ENDBRANCH  20  22
ENDBRANCH  17  18
ENDBRANCH   3  17
TORSDOF 6
ENDMDL
MODEL 4
REMARK VINA RESULT:      -8.7      1.626      2.006
REMARK  Name = 
REMARK  6 active torsions:
REMARK  status: ('A' for Active; 'I' for Inactive)
REMARK    1  A    between atoms: C_2  and  C_3
REMARK    2  A    between atoms: C_4  and  C_5
REMARK    3  A    between atoms: N_15  and  C_16
REMARK    4  A    between atoms: C_16  and  C_17
REMARK    5  A    between atoms: N_19  and  C_20
REMARK    6  A    between atoms: C_20  and  C_21
REMARK                            x       y       z     vdW  Elec       q    Type
REMARK                         _______ _______ _______ _____ _____    ______ ____
ROOT
ATOM      1  O   UNL     1       6.826   7.603  16.698  0.00  0.00    +0.000 OA
ATOM      2  C   UNL     1       7.572   7.407  17.647  0.00  0.00    +0.000 C 
ATOM      3  N   UNL     1       7.758   6.187  18.242  0.00  0.00    +0.000 N 
ATOM      4  H   UNL     1       8.294   6.111  19.099  0.00  0.00    +0.000 HD
ENDROOT
BRANCH   2   5
ATOM      5  C   UNL     1       8.379   8.478  18.286  0.00  0.00    +0.000 C 
ATOM      6  C   UNL     1       8.384   9.732  17.807  0.00  0.00    +0.000 C 
BRANCH   6   7
ATOM      7  C   UNL     1       9.165  10.824  18.415  0.00  0.00    +0.000 A 
ATOM      8  C   UNL     1       9.781  10.618  19.657  0.00  0.00    +0.000 A 
ATOM      9  C   UNL     1      10.549  11.626  20.252  0.00  0.00    +0.000 A 
ATOM     10  C   UNL     1      10.697  12.857  19.616  0.00  0.00    +0.000 A 
ATOM     11  C   UNL     1      10.081  13.077  18.383  0.00  0.00    +0.000 A 
ATOM     12  C   UNL     1       9.299  12.079  17.800  0.00  0.00    +0.000 A 
ATOM     13  O   UNL     1      10.194  14.252  17.685  0.00  0.00    +0.000 OA
ATOM     14  C   UNL     1      11.299  15.030  18.157  0.00  0.00    +0.000 C 
ATOM     15  C   UNL     1      11.297  15.097  19.676  0.00  0.00    +0.000 C 
ATOM     16  O   UNL     1      11.471  13.794  20.249  0.00  0.00    +0.000 OA
ENDBRANCH   6   7
ENDBRANCH   2   5
BRANCH   3  17
ATOM     17  C   UNL     1       7.029   5.012  17.812  0.00  0.00    +0.000 C 
BRANCH  17  18
ATOM     18  C   UNL     1       6.019   4.641  18.899  0.00  0.00    +0.000 C 
ATOM     19  O   UNL     1       5.680   5.444  19.767  0.00  0.00    +0.000 OA
ATOM     20  N   UNL     1       5.578   3.338  18.872  0.00  0.00    +0.000 N 
ATOM     21  H   UNL     1       5.981   2.687  18.210  0.00  0.00    +0.000 HD
BRANCH  20  22
ATOM     22  C   UNL     1       4.645   2.822  19.850  0.00  0.00    +0.000 C 
BRANCH  22  23
ATOM     23  C   UNL     1       3.224   2.941  19.381  0.00  0.00    +0.000 A 
ATOM     24  C   UNL     1       2.145   2.828  20.263  0.00  0.00    +0.000 A 
ATOM     25  C   UNL     1       0.843   2.929  19.777  0.00  0.00    +0.000 A 
ATOM     26  C   UNL     1       0.663   3.152  18.423  0.00  0.00    +0.000 A 
ATOM     27  N   UNL     1       1.678   3.282  17.544  0.00  0.00    +0.000 NA
ATOM     28  C   UNL     1       2.933   3.175  18.041  0.00  0.00    +0.000 A 
ENDBRANCH  22  23
ENDBRANCH  20  22
ENDBRANCH  17  18
ENDBRANCH   3  17
TORSDOF 6
ENDMDL
MODEL 5
REMARK VINA RESULT:      -8.6      1.623      1.916
REMARK  Name = 
REMARK  6 active torsions:
REMARK  status: ('A' for Active; 'I' for Inactive)
REMARK    1  A    between atoms: C_2  and  C_3
REMARK    2  A    between atoms: C_4  and  C_5
REMARK    3  A    between atoms: N_15  and  C_16
REMARK    4  A    between atoms: C_16  and  C_17
REMARK    5  A    between atoms: N_19  and  C_20
REMARK    6  A    between atoms: C_20  and  C_21
REMARK                            x       y       z     vdW  Elec       q    Type
REMARK                         _______ _______ _______ _____ _____    ______ ____
ROOT
ATOM      1  O   UNL     1       7.100   7.664  16.852  0.00  0.00    +0.000 OA
ATOM      2  C   UNL     1       7.757   7.561  17.879  0.00  0.00    +0.000 C 
ATOM      3  N   UNL     1       7.850   6.415  18.624  0.00  0.00    +0.000 N 
ATOM      4  H   UNL     1       8.309   6.425  19.527  0.00  0.00    +0.000 HD
ENDROOT
BRANCH   2   5
ATOM      5  C   UNL     1       8.546   8.678  18.459  0.00  0.00    +0.000 C 
ATOM      6  C   UNL     1       8.541   9.902  17.905  0.00  0.00    +0.000 C 
BRANCH   6   7
ATOM      7  C   UNL     1       9.304  11.038  18.452  0.00  0.00    +0.000 A 
ATOM      8  C   UNL     1      10.072  10.854  19.611  0.00  0.00    +0.000 A 
ATOM      9  C   UNL     1      10.826  11.905  20.144  0.00  0.00    +0.000 A 
ATOM     10  C   UNL     1      10.809  13.157  19.531  0.00  0.00    +0.000 A 
ATOM     11  C   UNL     1      10.041  13.354  18.382  0.00  0.00    +0.000 A 
ATOM     12  C   UNL     1       9.273  12.311  17.862  0.00  0.00    +0.000 A 
ATOM     13  O   UNL     1       9.987  14.548  17.710  0.00  0.00    +0.000 OA
ATOM     14  C   UNL     1      11.078  15.398  18.077  0.00  0.00    +0.000 C 
ATOM     15  C   UNL     1      11.245  15.434  19.587  0.00  0.00    +0.000 C 
ATOM     16  O   UNL     1      11.579  14.138  20.099  0.00  0.00    +0.000 OA
ENDBRANCH   6   7
ENDBRANCH   2   5
BRANCH   3  17
ATOM     17  C   UNL     1       7.118   5.217  18.269  0.00  0.00    +0.000 C 
BRANCH  17  18
ATOM     18  C   UNL     1       5.650   5.412  18.652  0.00  0.00    +0.000 C 
ATOM     19  O   UNL     1       5.273   5.344  19.821  0.00  0.00    +0.000 OA
ATOM     20  N   UNL     1       4.786   5.600  17.597  0.00  0.00    +0.000 N 
ATOM     21  H   UNL     1       5.133   5.527  16.648  0.00  0.00    +0.000 HD
BRANCH  20  22
ATOM     22  C   UNL     1       3.363   5.770  17.790  0.00  0.00    +0.000 C 
BRANCH  22  23
ATOM     23  C   UNL     1       2.684   4.469  18.107  0.00  0.00    +0.000 A 
ATOM     24  C   UNL     1       2.967   3.299  17.397  0.00  0.00    +0.000 A 
ATOM     25  C   UNL     1       2.299   2.119  17.718  0.00  0.00    +0.000 A 
ATOM     26  C   UNL     1       1.376   2.146  18.749  0.00  0.00    +0.000 A 
ATOM     27  N   UNL     1       1.089   3.252  19.467  0.00  0.00    +0.000 NA
ATOM     28  C   UNL     1       1.748   4.386  19.133  0.00  0.00    +0.000 A 
ENDBRANCH  22  23
ENDBRANCH  20  22
ENDBRANCH  17  18
ENDBRANCH   3  17
TORSDOF 6
ENDMDL
MODEL 6
REMARK VINA RESULT:      -8.5      1.545      1.656
REMARK  Name = 
REMARK  6 active torsions:
REMARK  status: ('A' for Active; 'I' for Inactive)
REMARK    1  A    between atoms: C_2  and  C_3
REMARK    2  A    between atoms: C_4  and  C_5
REMARK    3  A    between atoms: N_15  and  C_16
REMARK    4  A    between atoms: C_16  and  C_17
REMARK    5  A    between atoms: N_19  and  C_20
REMARK    6  A    between atoms: C_20  and  C_21
REMARK                            x       y       z     vdW  Elec       q    Type
REMARK                         _______ _______ _______ _____ _____    ______ ____
ROOT
ATOM      1  O   UNL     1       7.550   7.029  16.532  0.00  0.00    +0.000 OA
ATOM      2  C   UNL     1       7.691   7.061  17.747  0.00  0.00    +0.000 C 
ATOM      3  N   UNL     1       7.328   6.046  18.593  0.00  0.00    +0.000 N 
ATOM      4  H   UNL     1       7.358   6.179  19.597  0.00  0.00    +0.000 HD
ENDROOT
BRANCH   2   5
ATOM      5  C   UNL     1       8.282   8.216  18.470  0.00  0.00    +0.000 C 
ATOM      6  C   UNL     1       8.381   9.426  17.896  0.00  0.00    +0.000 C 
BRANCH   6   7
ATOM      7  C   UNL     1       8.952  10.599  18.581  0.00  0.00    +0.000 A 
ATOM      8  C   UNL     1       9.493  10.447  19.866  0.00  0.00    +0.000 A 
ATOM      9  C   UNL     1      10.065  11.535  20.535  0.00  0.00    +0.000 A 
ATOM     10  C   UNL     1      10.089  12.791  19.931  0.00  0.00    +0.000 A 
ATOM     11  C   UNL     1       9.546  12.956  18.656  0.00  0.00    +0.000 A 
ATOM     12  C   UNL     1       8.958  11.876  17.997  0.00  0.00    +0.000 A 
ATOM     13  O   UNL     1       9.548  14.153  17.987  0.00  0.00    +0.000 OA
ATOM     14  C   UNL     1      10.494  15.063  18.558  0.00  0.00    +0.000 C 
ATOM     15  C   UNL     1      10.365  15.090  20.072  0.00  0.00    +0.000 C 
ATOM     16  O   UNL     1      10.673  13.809  20.638  0.00  0.00    +0.000 OA
ENDBRANCH   6   7
ENDBRANCH   2   5
BRANCH   3  17
ATOM     17  C   UNL     1       6.684   4.843  18.104  0.00  0.00    +0.000 C 
BRANCH  17  18
ATOM     18  C   UNL     1       5.174   5.083  18.062  0.00  0.00    +0.000 C 
ATOM     19  O   UNL     1       4.513   4.857  17.049  0.00  0.00    +0.000 OA
ATOM     20  N   UNL     1       4.632   5.627  19.203  0.00  0.00    +0.000 N 
ATOM     21  H   UNL     1       5.241   5.905  19.963  0.00  0.00    +0.000 HD
BRANCH  20  22
ATOM     22  C   UNL     1       3.224   5.941  19.311  0.00  0.00    +0.000 C 
BRANCH  22  23
ATOM     23  C   UNL     1       2.432   4.780  19.839  0.00  0.00    +0.000 A 
ATOM     24  C   UNL     1       1.547   4.063  19.029  0.00  0.00    +0.000 A 
ATOM     25  C   UNL     1       0.823   3.003  19.569  0.00  0.00    +0.000 A 
ATOM     26  C   UNL     1       1.016   2.686  20.903  0.00  0.00    +0.000 A 
ATOM     27  N   UNL     1       1.873   3.345  21.711  0.00  0.00    +0.000 NA
ATOM     28  C   UNL     1       2.561   4.373  21.163  0.00  0.00    +0.000 A 
ENDBRANCH  22  23
ENDBRANCH  20  22
ENDBRANCH  17  18
ENDBRANCH   3  17
TORSDOF 6
ENDMDL
MODEL 7
REMARK VINA RESULT:      -8.5      1.830      2.479
REMARK  Name = 
REMARK  6 active torsions:
REMARK  status: ('A' for Active; 'I' for Inactive)
REMARK    1  A    between atoms: C_2  and  C_3
REMARK    2  A    between atoms: C_4  and  C_5
REMARK    3  A    between atoms: N_15  and  C_16
REMARK    4  A    between atoms: C_16  and  C_17
REMARK    5  A    between atoms: N_19  and  C_20
REMARK    6  A    between atoms: C_20  and  C_21
REMARK                            x       y       z     vdW  Elec       q    Type
REMARK                         _______ _______ _______ _____ _____    ______ ____
ROOT
ATOM      1  O   UNL     1       6.331   7.331  16.853  0.00  0.00    +0.000 OA
ATOM      2  C   UNL     1       7.312   7.025  17.516  0.00  0.00    +0.000 C 
ATOM      3  N   UNL     1       7.718   5.736  17.743  0.00  0.00    +0.000 N 
ATOM      4  H   UNL     1       8.465   5.542  18.399  0.00  0.00    +0.000 HD
ENDROOT
BRANCH   2   5
ATOM      5  C   UNL     1       8.198   8.022  18.170  0.00  0.00    +0.000 C 
ATOM      6  C   UNL     1       8.192   9.313  17.804  0.00  0.00    +0.000 C 
BRANCH   6   7
ATOM      7  C   UNL     1       9.049  10.334  18.431  0.00  0.00    +0.000 A 
ATOM      8  C   UNL     1       9.187  10.351  19.827  0.00  0.00    +0.000 A 
ATOM      9  C   UNL     1      10.012  11.292  20.453  0.00  0.00    +0.000 A 
ATOM     10  C   UNL     1      10.696  12.236  19.691  0.00  0.00    +0.000 A 
ATOM     11  C   UNL     1      10.560  12.236  18.303  0.00  0.00    +0.000 A 
ATOM     12  C   UNL     1       9.722  11.310  17.679  0.00  0.00    +0.000 A 
ATOM     13  O   UNL     1      11.215  13.118  17.482  0.00  0.00    +0.000 OA
ATOM     14  C   UNL     1      12.313  13.737  18.160  0.00  0.00    +0.000 C 
ATOM     15  C   UNL     1      11.889  14.220  19.538  0.00  0.00    +0.000 C 
ATOM     16  O   UNL     1      11.494  13.121  20.369  0.00  0.00    +0.000 OA
ENDBRANCH   6   7
ENDBRANCH   2   5
BRANCH   3  17
ATOM     17  C   UNL     1       6.968   4.604  17.240  0.00  0.00    +0.000 C 
BRANCH  17  18
ATOM     18  C   UNL     1       5.736   4.405  18.125  0.00  0.00    +0.000 C 
ATOM     19  O   UNL     1       5.832   4.016  19.288  0.00  0.00    +0.000 OA
ATOM     20  N   UNL     1       4.526   4.628  17.507  0.00  0.00    +0.000 N 
ATOM     21  H   UNL     1       4.501   4.829  16.516  0.00  0.00    +0.000 HD
BRANCH  20  22
ATOM     22  C   UNL     1       3.268   4.454  18.198  0.00  0.00    +0.000 C 
BRANCH  22  23
ATOM     23  C   UNL     1       2.765   5.745  18.775  0.00  0.00    +0.000 A 
ATOM     24  C   UNL     1       2.229   5.818  20.064  0.00  0.00    +0.000 A 
ATOM     25  C   UNL     1       1.761   7.037  20.548  0.00  0.00    +0.000 A 
ATOM     26  C   UNL     1       1.854   8.150  19.730  0.00  0.00    +0.000 A 
ATOM     27  N   UNL     1       2.379   8.122  18.487  0.00  0.00    +0.000 NA
ATOM     28  C   UNL     1       2.823   6.925  18.038  0.00  0.00    +0.000 A 
ENDBRANCH  22  23
ENDBRANCH  20  22
ENDBRANCH  17  18
ENDBRANCH   3  17
TORSDOF 6
ENDMDL
MODEL 8
REMARK VINA RESULT:      -8.5      1.462      2.025
REMARK  Name = 
REMARK  6 active torsions:
REMARK  status: ('A' for Active; 'I' for Inactive)
REMARK    1  A    between atoms: C_2  and  C_3
REMARK    2  A    between atoms: C_4  and  C_5
REMARK    3  A    between atoms: N_15  and  C_16
REMARK    4  A    between atoms: C_16  and  C_17
REMARK    5  A    between atoms: N_19  and  C_20
REMARK    6  A    between atoms: C_20  and  C_21
REMARK                            x       y       z     vdW  Elec       q    Type
REMARK                         _______ _______ _______ _____ _____    ______ ____
ROOT
ATOM      1  O   UNL     1       6.203   7.494  16.632  0.00  0.00    +0.000 OA
ATOM      2  C   UNL     1       7.229   7.601  17.288  0.00  0.00    +0.000 C 
ATOM      3  N   UNL     1       7.950   6.541  17.773  0.00  0.00    +0.000 N 
ATOM      4  H   UNL     1       8.722   6.694  18.410  0.00  0.00    +0.000 HD
ENDROOT
BRANCH   2   5
ATOM      5  C   UNL     1       7.834   8.909  17.650  0.00  0.00    +0.000 C 
ATOM      6  C   UNL     1       8.715   9.020  18.657  0.00  0.00    +0.000 C 
BRANCH   6   7
ATOM      7  C   UNL     1       9.342  10.295  19.044  0.00  0.00    +0.000 A 
ATOM      8  C   UNL     1       9.465  10.615  20.404  0.00  0.00    +0.000 A 
ATOM      9  C   UNL     1      10.077  11.807  20.807  0.00  0.00    +0.000 A 
ATOM     10  C   UNL     1      10.560  12.700  19.852  0.00  0.00    +0.000 A 
ATOM     11  C   UNL     1      10.435  12.398  18.496  0.00  0.00    +0.000 A 
ATOM     12  C   UNL     1       9.807  11.218  18.094  0.00  0.00    +0.000 A 
ATOM     13  O   UNL     1      10.901  13.214  17.497  0.00  0.00    +0.000 OA
ATOM     14  C   UNL     1      11.846  14.162  18.003  0.00  0.00    +0.000 C 
ATOM     15  C   UNL     1      11.325  14.812  19.274  0.00  0.00    +0.000 C 
ATOM     16  O   UNL     1      11.157  13.843  20.317  0.00  0.00    +0.000 OA
ENDBRANCH   6   7
ENDBRANCH   2   5
BRANCH   3  17
ATOM     17  C   UNL     1       7.512   5.174  17.580  0.00  0.00    +0.000 C 
BRANCH  17  18
ATOM     18  C   UNL     1       6.634   4.773  18.767  0.00  0.00    +0.000 C 
ATOM     19  O   UNL     1       6.707   5.354  19.850  0.00  0.00    +0.000 OA
ATOM     20  N   UNL     1       5.818   3.686  18.555  0.00  0.00    +0.000 N 
ATOM     21  H   UNL     1       5.886   3.172  17.686  0.00  0.00    +0.000 HD
BRANCH  20  22
ATOM     22  C   UNL     1       4.950   3.164  19.587  0.00  0.00    +0.000 C 
BRANCH  22  23
ATOM     23  C   UNL     1       3.501   3.305  19.221  0.00  0.00    +0.000 A 
ATOM     24  C   UNL     1       3.091   4.045  18.109  0.00  0.00    +0.000 A 
ATOM     25  C   UNL     1       1.733   4.160  17.819  0.00  0.00    +0.000 A 
ATOM     26  C   UNL     1       0.828   3.519  18.647  0.00  0.00    +0.000 A 
ATOM     27  N   UNL     1       1.186   2.783  19.720  0.00  0.00    +0.000 NA
ATOM     28  C   UNL     1       2.511   2.691  19.982  0.00  0.00    +0.000 A 
ENDBRANCH  22  23
ENDBRANCH  20  22
ENDBRANCH  17  18
ENDBRANCH   3  17
TORSDOF 6
ENDMDL
MODEL 9
REMARK VINA RESULT:      -8.5      1.585      2.220
REMARK  Name = 
REMARK  6 active torsions:
REMARK  status: ('A' for Active; 'I' for Inactive)
REMARK    1  A    between atoms: C_2  and  C_3
REMARK    2  A    between atoms: C_4  and  C_5
REMARK    3  A    between atoms: N_15  and  C_16
REMARK    4  A    between atoms: C_16  and  C_17
REMARK    5  A    between atoms: N_19  and  C_20
REMARK    6  A    between atoms: C_20  and  C_21
REMARK                            x       y       z     vdW  Elec       q    Type
REMARK                         _______ _______ _______ _____ _____    ______ ____
ROOT
ATOM      1  O   UNL     1       7.258   6.711  16.441  0.00  0.00    +0.000 OA
ATOM      2  C   UNL     1       7.567   7.172  17.531  0.00  0.00    +0.000 C 
ATOM      3  N   UNL     1       7.609   6.444  18.692  0.00  0.00    +0.000 N 
ATOM      4  H   UNL     1       7.753   6.906  19.582  0.00  0.00    +0.000 HD
ENDROOT
BRANCH   2   5
ATOM      5  C   UNL     1       7.941   8.594  17.741  0.00  0.00    +0.000 C 
ATOM      6  C   UNL     1       8.751   8.966  18.745  0.00  0.00    +0.000 C 
BRANCH   6   7
ATOM      7  C   UNL     1       9.151  10.363  18.983  0.00  0.00    +0.000 A 
ATOM      8  C   UNL     1       9.353  11.215  17.888  0.00  0.00    +0.000 A 
ATOM      9  C   UNL     1       9.711  12.555  18.079  0.00  0.00    +0.000 A 
ATOM     10  C   UNL     1       9.885  13.053  19.369  0.00  0.00    +0.000 A 
ATOM     11  C   UNL     1       9.696  12.212  20.466  0.00  0.00    +0.000 A 
ATOM     12  C   UNL     1       9.358  10.871  20.275  0.00  0.00    +0.000 A 
ATOM     13  O   UNL     1       9.829  12.630  21.766  0.00  0.00    +0.000 OA
ATOM     14  C   UNL     1       9.783  14.058  21.856  0.00  0.00    +0.000 C 
ATOM     15  C   UNL     1      10.679  14.691  20.806  0.00  0.00    +0.000 C 
ATOM     16  O   UNL     1      10.226  14.375  19.483  0.00  0.00    +0.000 OA
ENDBRANCH   6   7
ENDBRANCH   2   5
BRANCH   3  17
ATOM     17  C   UNL     1       7.232   5.046  18.726  0.00  0.00    +0.000 C 
BRANCH  17  18
ATOM     18  C   UNL     1       5.716   4.946  18.543  0.00  0.00    +0.000 C 
ATOM     19  O   UNL     1       4.970   5.885  18.819  0.00  0.00    +0.000 OA
ATOM     20  N   UNL     1       5.254   3.722  18.119  0.00  0.00    +0.000 N 
ATOM     21  H   UNL     1       5.901   2.949  18.023  0.00  0.00    +0.000 HD
BRANCH  20  22
ATOM     22  C   UNL     1       3.845   3.457  17.927  0.00  0.00    +0.000 C 
BRANCH  22  23
ATOM     23  C   UNL     1       3.120   3.320  19.234  0.00  0.00    +0.000 A 
ATOM     24  C   UNL     1       1.864   3.896  19.444  0.00  0.00    +0.000 A 
ATOM     25  C   UNL     1       1.239   3.754  20.681  0.00  0.00    +0.000 A 
ATOM     26  C   UNL     1       1.887   3.029  21.666  0.00  0.00    +0.000 A 
ATOM     27  N   UNL     1       3.092   2.445  21.495  0.00  0.00    +0.000 NA
ATOM     28  C   UNL     1       3.680   2.602  20.287  0.00  0.00    +0.000 A 
ENDBRANCH  22  23
ENDBRANCH  20  22
ENDBRANCH  17  18
ENDBRANCH   3  17
TORSDOF 6
ENDMDL
