MODEL 1
REMARK VINA RESULT:      -8.9      0.000      0.000
REMARK  Name = 
REMARK  2 active torsions:
REMARK  status: ('A' for Active; 'I' for Inactive)
REMARK    1  A    between atoms: C_4  and  C_5
REMARK    2  A    between atoms: C_15  and  C_16
REMARK                            x       y       z     vdW  Elec       q    Type
REMARK                         _______ _______ _______ _____ _____    ______ ____
ROOT
ATOM      1  O   UNL     1       1.221   3.674  20.964  0.00  0.00    +0.000 OA
ATOM      2  C   UNL     1       1.746   4.696  20.528  0.00  0.00    +0.000 C 
ATOM      3  C   UNL     1       1.124   6.006  20.820  0.00  0.00    +0.000 C 
ATOM      4  C   UNL     1       1.610   7.168  20.342  0.00  0.00    +0.000 C 
ATOM      5  C   UNL     1       2.835   7.177  19.421  0.00  0.00    +0.000 C 
ATOM      6  C   UNL     1       3.141   5.812  18.779  0.00  0.00    +0.000 C 
ATOM      7  C   UNL     1       3.053   4.675  19.802  0.00  0.00    +0.000 C 
ENDROOT
BRANCH   4   8
ATOM      8  C   UNL     1       0.915   8.360  20.770  0.00  0.00    +0.000 A 
ATOM      9  C   UNL     1       0.235   8.613  21.953  0.00  0.00    +0.000 A 
ATOM     10  C   UNL     1      -0.280   9.946  22.069  0.00  0.00    +0.000 A 
ATOM     11  C   UNL     1      -0.983  10.569  23.125  0.00  0.00    +0.000 A 
ATOM     12  C   UNL     1      -1.391  11.901  23.013  0.00  0.00    +0.000 A 
ATOM     13  C   UNL     1      -1.110  12.622  21.861  0.00  0.00    +0.000 A 
ATOM     14  C   UNL     1      -0.416  12.030  20.802  0.00  0.00    +0.000 A 
ATOM     15  C   UNL     1      -0.006  10.688  20.923  0.00  0.00    +0.000 A 
ATOM     16  S   UNL     1       0.858   9.757  19.765  0.00  0.00    +0.000 S 
ENDBRANCH   4   8
BRANCH   6  17
ATOM     17  C   UNL     1       4.504   5.698  18.110  0.00  0.00    +0.000 A 
ATOM     18  C   UNL     1       5.600   5.109  18.790  0.00  0.00    +0.000 A 
ATOM     19  C   UNL     1       6.751   4.715  18.101  0.00  0.00    +0.000 A 
ATOM     20  C   UNL     1       6.787   4.929  16.742  0.00  0.00    +0.000 A 
ATOM     21  C   UNL     1       5.759   5.555  16.081  0.00  0.00    +0.000 A 
ATOM     22  C   UNL     1       4.615   5.966  16.733  0.00  0.00    +0.000 A 
ATOM     23  O   UNL     1       5.981   5.644  14.742  0.00  0.00    +0.000 OA
ATOM     24  C   UNL     1       7.229   4.928  14.629  0.00  0.00    +0.000 C 
ATOM     25  O   UNL     1       7.778   4.528  15.902  0.00  0.00    +0.000 OA
ENDBRANCH   6  17
TORSDOF 2
ENDMDL
MODEL 2
REMARK VINA RESULT:      -8.6      0.745      1.246
REMARK  Name = 
REMARK  2 active torsions:
REMARK  status: ('A' for Active; 'I' for Inactive)
REMARK    1  A    between atoms: C_4  and  C_5
REMARK    2  A    between atoms: C_15  and  C_16
REMARK                            x       y       z     vdW  Elec       q    Type
REMARK                         _______ _______ _______ _____ _____    ______ ____
ROOT
ATOM      1  O   UNL     1       1.413   3.971  21.182  0.00  0.00    +0.000 OA
ATOM      2  C   UNL     1       1.905   4.969  20.658  0.00  0.00    +0.000 C 
ATOM      3  C   UNL     1       1.260   6.283  20.866  0.00  0.00    +0.000 C 
ATOM      4  C   UNL     1       1.708   7.416  20.289  0.00  0.00    +0.000 C 
ATOM      5  C   UNL     1       2.911   7.381  19.341  0.00  0.00    +0.000 C 
ATOM      6  C   UNL     1       3.233   5.978  18.796  0.00  0.00    +0.000 C 
ATOM      7  C   UNL     1       3.195   4.920  19.903  0.00  0.00    +0.000 C 
ENDROOT
BRANCH   4   8
ATOM      8  C   UNL     1       0.996   8.622  20.644  0.00  0.00    +0.000 A 
ATOM      9  C   UNL     1       0.519   9.642  19.834  0.00  0.00    +0.000 A 
ATOM     10  C   UNL     1      -0.210  10.662  20.528  0.00  0.00    +0.000 A 
ATOM     11  C   UNL     1      -0.863  11.817  20.039  0.00  0.00    +0.000 A 
ATOM     12  C   UNL     1      -1.522  12.681  20.918  0.00  0.00    +0.000 A 
ATOM     13  C   UNL     1      -1.539  12.410  22.280  0.00  0.00    +0.000 A 
ATOM     14  C   UNL     1      -0.902  11.276  22.789  0.00  0.00    +0.000 A 
ATOM     15  C   UNL     1      -0.242  10.409  21.897  0.00  0.00    +0.000 A 
ATOM     16  S   UNL     1       0.599   8.960  22.285  0.00  0.00    +0.000 S 
ENDBRANCH   4   8
BRANCH   6  17
ATOM     17  C   UNL     1       4.583   5.842  18.104  0.00  0.00    +0.000 A 
ATOM     18  C   UNL     1       5.706   5.329  18.799  0.00  0.00    +0.000 A 
ATOM     19  C   UNL     1       6.850   4.909  18.113  0.00  0.00    +0.000 A 
ATOM     20  C   UNL     1       6.851   5.021  16.742  0.00  0.00    +0.000 A 
ATOM     21  C   UNL     1       5.793   5.574  16.061  0.00  0.00    +0.000 A 
ATOM     22  C   UNL     1       4.656   6.009  16.709  0.00  0.00    +0.000 A 
ATOM     23  O   UNL     1       5.983   5.566  14.714  0.00  0.00    +0.000 OA
ATOM     24  C   UNL     1       7.243   4.870  14.624  0.00  0.00    +0.000 C 
ATOM     25  O   UNL     1       7.831   4.579  15.910  0.00  0.00    +0.000 OA
ENDBRANCH   6  17
TORSDOF 2
ENDMDL
MODEL 3
REMARK VINA RESULT:      -8.5      3.021      8.695
REMARK  Name = 
REMARK  2 active torsions:
REMARK  status: ('A' for Active; 'I' for Inactive)
REMARK    1  A    between atoms: C_4  and  C_5
REMARK    2  A    between atoms: C_15  and  C_16
REMARK                            x       y       z     vdW  Elec       q    Type
REMARK                         _______ _______ _______ _____ _____    ______ ____
ROOT
ATOM      1  O   UNL     1       3.407   2.896  20.363  0.00  0.00    +0.000 OA
ATOM      2  C   UNL     1       3.362   3.890  19.639  0.00  0.00    +0.000 C 
ATOM      3  C   UNL     1       4.154   3.907  18.391  0.00  0.00    +0.000 C 
ATOM      4  C   UNL     1       4.196   4.973  17.568  0.00  0.00    +0.000 C 
ATOM      5  C   UNL     1       3.437   6.256  17.919  0.00  0.00    +0.000 C 
ATOM      6  C   UNL     1       3.040   6.357  19.403  0.00  0.00    +0.000 C 
ATOM      7  C   UNL     1       2.450   5.041  19.920  0.00  0.00    +0.000 C 
ENDROOT
BRANCH   4   8
ATOM      8  C   UNL     1       4.974   4.801  16.362  0.00  0.00    +0.000 A 
ATOM      9  C   UNL     1       4.741   3.986  15.264  0.00  0.00    +0.000 A 
ATOM     10  C   UNL     1       5.698   4.124  14.206  0.00  0.00    +0.000 A 
ATOM     11  C   UNL     1       5.764   3.496  12.941  0.00  0.00    +0.000 A 
ATOM     12  C   UNL     1       6.807   3.793  12.060  0.00  0.00    +0.000 A 
ATOM     13  C   UNL     1       7.787   4.708  12.421  0.00  0.00    +0.000 A 
ATOM     14  C   UNL     1       7.744   5.343  13.664  0.00  0.00    +0.000 A 
ATOM     15  C   UNL     1       6.690   5.040  14.547  0.00  0.00    +0.000 A 
ATOM     16  S   UNL     1       6.425   5.694  16.114  0.00  0.00    +0.000 S 
ENDBRANCH   4   8
BRANCH   6  17
ATOM     17  C   UNL     1       2.033   7.450  19.734  0.00  0.00    +0.000 A 
ATOM     18  C   UNL     1       1.479   7.557  21.035  0.00  0.00    +0.000 A 
ATOM     19  C   UNL     1       0.809   8.715  21.442  0.00  0.00    +0.000 A 
ATOM     20  C   UNL     1       0.698   9.742  20.534  0.00  0.00    +0.000 A 
ATOM     21  C   UNL     1       1.175   9.628  19.251  0.00  0.00    +0.000 A 
ATOM     22  C   UNL     1       1.830   8.495  18.814  0.00  0.00    +0.000 A 
ATOM     23  O   UNL     1       0.988  10.763  18.525  0.00  0.00    +0.000 OA
ATOM     24  C   UNL     1       0.413  11.630  19.525  0.00  0.00    +0.000 C 
ATOM     25  O   UNL     1       0.166  10.969  20.783  0.00  0.00    +0.000 OA
ENDBRANCH   6  17
TORSDOF 2
ENDMDL
MODEL 4
REMARK VINA RESULT:      -8.4      0.960      1.110
REMARK  Name = 
REMARK  2 active torsions:
REMARK  status: ('A' for Active; 'I' for Inactive)
REMARK    1  A    between atoms: C_4  and  C_5
REMARK    2  A    between atoms: C_15  and  C_16
REMARK                            x       y       z     vdW  Elec       q    Type
REMARK                         _______ _______ _______ _____ _____    ______ ____
ROOT
ATOM      1  O   UNL     1       1.878   4.099  21.381  0.00  0.00    +0.000 OA
ATOM      2  C   UNL     1       2.095   5.097  20.696  0.00  0.00    +0.000 C 
ATOM      3  C   UNL     1       1.396   6.358  21.021  0.00  0.00    +0.000 C 
ATOM      4  C   UNL     1       1.542   7.482  20.292  0.00  0.00    +0.000 C 
ATOM      5  C   UNL     1       2.431   7.489  19.044  0.00  0.00    +0.000 C 
ATOM      6  C   UNL     1       2.738   6.085  18.492  0.00  0.00    +0.000 C 
ATOM      7  C   UNL     1       3.122   5.111  19.609  0.00  0.00    +0.000 C 
ENDROOT
BRANCH   4   8
ATOM      8  C   UNL     1       0.831   8.641  20.782  0.00  0.00    +0.000 A 
ATOM      9  C   UNL     1       0.095   8.804  21.947  0.00  0.00    +0.000 A 
ATOM     10  C   UNL     1      -0.420  10.126  22.145  0.00  0.00    +0.000 A 
ATOM     11  C   UNL     1      -1.172  10.668  23.213  0.00  0.00    +0.000 A 
ATOM     12  C   UNL     1      -1.569  12.007  23.189  0.00  0.00    +0.000 A 
ATOM     13  C   UNL     1      -1.228  12.817  22.114  0.00  0.00    +0.000 A 
ATOM     14  C   UNL     1      -0.486  12.307  21.046  0.00  0.00    +0.000 A 
ATOM     15  C   UNL     1      -0.087  10.957  21.077  0.00  0.00    +0.000 A 
ATOM     16  S   UNL     1       0.829  10.116  19.892  0.00  0.00    +0.000 S 
ENDBRANCH   4   8
BRANCH   6  17
ATOM     17  C   UNL     1       3.848   6.023  17.452  0.00  0.00    +0.000 A 
ATOM     18  C   UNL     1       4.744   7.109  17.281  0.00  0.00    +0.000 A 
ATOM     19  C   UNL     1       5.938   6.955  16.570  0.00  0.00    +0.000 A 
ATOM     20  C   UNL     1       6.208   5.717  16.033  0.00  0.00    +0.000 A 
ATOM     21  C   UNL     1       5.320   4.674  16.138  0.00  0.00    +0.000 A 
ATOM     22  C   UNL     1       4.128   4.797  16.822  0.00  0.00    +0.000 A 
ATOM     23  O   UNL     1       5.789   3.534  15.563  0.00  0.00    +0.000 OA
ATOM     24  C   UNL     1       7.107   3.960  15.160  0.00  0.00    +0.000 C 
ATOM     25  O   UNL     1       7.355   5.361  15.396  0.00  0.00    +0.000 OA
ENDBRANCH   6  17
TORSDOF 2
ENDMDL
MODEL 5
REMARK VINA RESULT:      -8.4      4.037      9.133
REMARK  Name = 
REMARK  2 active torsions:
REMARK  status: ('A' for Active; 'I' for Inactive)
REMARK    1  A    between atoms: C_4  and  C_5
REMARK    2  A    between atoms: C_15  and  C_16
REMARK                            x       y       z     vdW  Elec       q    Type
REMARK                         _______ _______ _______ _____ _____    ______ ____
ROOT
ATOM      1  O   UNL     1       1.325   8.753  22.247  0.00  0.00    +0.000 OA
ATOM      2  C   UNL     1       1.124   8.752  21.034  0.00  0.00    +0.000 C 
ATOM      3  C   UNL     1       2.018   7.964  20.158  0.00  0.00    +0.000 C 
ATOM      4  C   UNL     1       1.895   7.947  18.816  0.00  0.00    +0.000 C 
ATOM      5  C   UNL     1       0.822   8.793  18.123  0.00  0.00    +0.000 C 
ATOM      6  C   UNL     1       0.257   9.923  19.004  0.00  0.00    +0.000 C 
ATOM      7  C   UNL     1      -0.057   9.432  20.420  0.00  0.00    +0.000 C 
ENDROOT
BRANCH   4   8
ATOM      8  C   UNL     1       2.815   7.080  18.115  0.00  0.00    +0.000 A 
ATOM      9  C   UNL     1       3.935   7.399  17.362  0.00  0.00    +0.000 A 
ATOM     10  C   UNL     1       4.659   6.267  16.865  0.00  0.00    +0.000 A 
ATOM     11  C   UNL     1       5.849   6.200  16.104  0.00  0.00    +0.000 A 
ATOM     12  C   UNL     1       6.379   4.963  15.728  0.00  0.00    +0.000 A 
ATOM     13  C   UNL     1       5.739   3.788  16.100  0.00  0.00    +0.000 A 
ATOM     14  C   UNL     1       4.563   3.826  16.851  0.00  0.00    +0.000 A 
ATOM     15  C   UNL     1       4.035   5.076  17.228  0.00  0.00    +0.000 A 
ATOM     16  S   UNL     1       2.615   5.370  18.151  0.00  0.00    +0.000 S 
ENDBRANCH   4   8
BRANCH   6  17
ATOM     17  C   UNL     1      -1.008  10.587  18.477  0.00  0.00    +0.000 A 
ATOM     18  C   UNL     1      -1.593  10.170  17.255  0.00  0.00    +0.000 A 
ATOM     19  C   UNL     1      -2.898  10.539  16.915  0.00  0.00    +0.000 A 
ATOM     20  C   UNL     1      -3.590  11.330  17.802  0.00  0.00    +0.000 A 
ATOM     21  C   UNL     1      -3.015  11.793  18.961  0.00  0.00    +0.000 A 
ATOM     22  C   UNL     1      -1.726  11.457  19.319  0.00  0.00    +0.000 A 
ATOM     23  O   UNL     1      -3.876  12.534  19.708  0.00  0.00    +0.000 OA
ATOM     24  C   UNL     1      -5.082  12.413  18.926  0.00  0.00    +0.000 C 
ATOM     25  O   UNL     1      -4.892  11.705  17.683  0.00  0.00    +0.000 OA
ENDBRANCH   6  17
TORSDOF 2
ENDMDL
MODEL 6
REMARK VINA RESULT:      -8.2      2.796      8.763
REMARK  Name = 
REMARK  2 active torsions:
REMARK  status: ('A' for Active; 'I' for Inactive)
REMARK    1  A    between atoms: C_4  and  C_5
REMARK    2  A    between atoms: C_15  and  C_16
REMARK                            x       y       z     vdW  Elec       q    Type
REMARK                         _______ _______ _______ _____ _____    ______ ____
ROOT
ATOM      1  O   UNL     1       1.235   3.671  20.795  0.00  0.00    +0.000 OA
ATOM      2  C   UNL     1       1.633   4.691  20.235  0.00  0.00    +0.000 C 
ATOM      3  C   UNL     1       2.642   4.576  19.160  0.00  0.00    +0.000 C 
ATOM      4  C   UNL     1       3.162   5.647  18.529  0.00  0.00    +0.000 C 
ATOM      5  C   UNL     1       2.748   7.064  18.935  0.00  0.00    +0.000 C 
ATOM      6  C   UNL     1       2.092   7.146  20.326  0.00  0.00    +0.000 C 
ATOM      7  C   UNL     1       1.054   6.039  20.526  0.00  0.00    +0.000 C 
ENDROOT
BRANCH   4   8
ATOM      8  C   UNL     1       4.094   5.353  17.465  0.00  0.00    +0.000 A 
ATOM      9  C   UNL     1       4.028   4.390  16.468  0.00  0.00    +0.000 A 
ATOM     10  C   UNL     1       5.110   4.431  15.529  0.00  0.00    +0.000 A 
ATOM     11  C   UNL     1       5.358   3.645  14.380  0.00  0.00    +0.000 A 
ATOM     12  C   UNL     1       6.497   3.870  13.603  0.00  0.00    +0.000 A 
ATOM     13  C   UNL     1       7.395   4.869  13.954  0.00  0.00    +0.000 A 
ATOM     14  C   UNL     1       7.174   5.660  15.084  0.00  0.00    +0.000 A 
ATOM     15  C   UNL     1       6.023   5.429  15.862  0.00  0.00    +0.000 A 
ATOM     16  S   UNL     1       5.539   6.271  17.280  0.00  0.00    +0.000 S 
ENDBRANCH   4   8
BRANCH   6  17
ATOM     17  C   UNL     1       1.397   8.464  20.641  0.00  0.00    +0.000 A 
ATOM     18  C   UNL     1       0.790   9.229  19.613  0.00  0.00    +0.000 A 
ATOM     19  C   UNL     1      -0.107  10.259  19.912  0.00  0.00    +0.000 A 
ATOM     20  C   UNL     1      -0.371  10.511  21.238  0.00  0.00    +0.000 A 
ATOM     21  C   UNL     1       0.257   9.820  22.246  0.00  0.00    +0.000 A 
ATOM     22  C   UNL     1       1.156   8.807  21.984  0.00  0.00    +0.000 A 
ATOM     23  O   UNL     1      -0.165  10.205  23.480  0.00  0.00    +0.000 OA
ATOM     24  C   UNL     1      -1.189  11.158  23.129  0.00  0.00    +0.000 C 
ATOM     25  O   UNL     1      -1.281  11.405  21.710  0.00  0.00    +0.000 OA
ENDBRANCH   6  17
TORSDOF 2
ENDMDL
MODEL 7
REMARK VINA RESULT:      -8.0      1.970      3.518
REMARK  Name = 
REMARK  2 active torsions:
REMARK  status: ('A' for Active; 'I' for Inactive)
REMARK    1  A    between atoms: C_4  and  C_5
REMARK    2  A    between atoms: C_15  and  C_16
REMARK                            x       y       z     vdW  Elec       q    Type
REMARK                         _______ _______ _______ _____ _____    ______ ____
ROOT
ATOM      1  O   UNL     1       4.884   3.136  20.097  0.00  0.00    +0.000 OA
ATOM      2  C   UNL     1       4.739   3.939  19.177  0.00  0.00    +0.000 C 
ATOM      3  C   UNL     1       3.856   5.109  19.377  0.00  0.00    +0.000 C 
ATOM      4  C   UNL     1       3.607   6.009  18.405  0.00  0.00    +0.000 C 
ATOM      5  C   UNL     1       4.212   5.833  17.009  0.00  0.00    +0.000 C 
ATOM      6  C   UNL     1       4.707   4.403  16.722  0.00  0.00    +0.000 C 
ATOM      7  C   UNL     1       5.506   3.835  17.898  0.00  0.00    +0.000 C 
ENDROOT
BRANCH   4   8
ATOM      8  C   UNL     1       2.768   7.122  18.785  0.00  0.00    +0.000 A 
ATOM      9  C   UNL     1       2.425   8.259  18.068  0.00  0.00    +0.000 A 
ATOM     10  C   UNL     1       1.505   9.130  18.739  0.00  0.00    +0.000 A 
ATOM     11  C   UNL     1       0.911  10.341  18.314  0.00  0.00    +0.000 A 
ATOM     12  C   UNL     1       0.029  11.027  19.153  0.00  0.00    +0.000 A 
ATOM     13  C   UNL     1      -0.271  10.524  20.412  0.00  0.00    +0.000 A 
ATOM     14  C   UNL     1       0.302   9.330  20.856  0.00  0.00    +0.000 A 
ATOM     15  C   UNL     1       1.189   8.642  20.005  0.00  0.00    +0.000 A 
ATOM     16  S   UNL     1       2.004   7.164  20.327  0.00  0.00    +0.000 S 
ENDBRANCH   4   8
BRANCH   6  17
ATOM     17  C   UNL     1       5.580   4.253  15.483  0.00  0.00    +0.000 A 
ATOM     18  C   UNL     1       5.109   3.554  14.343  0.00  0.00    +0.000 A 
ATOM     19  C   UNL     1       5.753   3.670  13.107  0.00  0.00    +0.000 A 
ATOM     20  C   UNL     1       6.865   4.477  13.039  0.00  0.00    +0.000 A 
ATOM     21  C   UNL     1       7.368   5.110  14.149  0.00  0.00    +0.000 A 
ATOM     22  C   UNL     1       6.764   5.007  15.385  0.00  0.00    +0.000 A 
ATOM     23  O   UNL     1       8.453   5.879  13.861  0.00  0.00    +0.000 OA
ATOM     24  C   UNL     1       8.521   5.719  12.429  0.00  0.00    +0.000 C 
ATOM     25  O   UNL     1       7.557   4.780  11.909  0.00  0.00    +0.000 OA
ENDBRANCH   6  17
TORSDOF 2
ENDMDL
MODEL 8
REMARK VINA RESULT:      -7.9      2.738      4.310
REMARK  Name = 
REMARK  2 active torsions:
REMARK  status: ('A' for Active; 'I' for Inactive)
REMARK    1  A    between atoms: C_4  and  C_5
REMARK    2  A    between atoms: C_15  and  C_16
REMARK                            x       y       z     vdW  Elec       q    Type
REMARK                         _______ _______ _______ _____ _____    ______ ____
ROOT
ATOM      1  O   UNL     1       2.513   9.748  17.151  0.00  0.00    +0.000 OA
ATOM      2  C   UNL     1       2.007   9.229  18.144  0.00  0.00    +0.000 C 
ATOM      3  C   UNL     1       1.129  10.042  19.013  0.00  0.00    +0.000 C 
ATOM      4  C   UNL     1       0.574   9.563  20.143  0.00  0.00    +0.000 C 
ATOM      5  C   UNL     1       0.868   8.133  20.607  0.00  0.00    +0.000 C 
ATOM      6  C   UNL     1       2.120   7.514  19.959  0.00  0.00    +0.000 C 
ATOM      7  C   UNL     1       2.161   7.773  18.450  0.00  0.00    +0.000 C 
ENDROOT
BRANCH   4   8
ATOM      8  C   UNL     1      -0.303  10.473  20.843  0.00  0.00    +0.000 A 
ATOM      9  C   UNL     1      -1.049  11.536  20.356  0.00  0.00    +0.000 A 
ATOM     10  C   UNL     1      -1.870  12.185  21.336  0.00  0.00    +0.000 A 
ATOM     11  C   UNL     1      -2.777  13.262  21.206  0.00  0.00    +0.000 A 
ATOM     12  C   UNL     1      -3.479  13.733  22.319  0.00  0.00    +0.000 A 
ATOM     13  C   UNL     1      -3.290  13.145  23.562  0.00  0.00    +0.000 A 
ATOM     14  C   UNL     1      -2.401  12.079  23.718  0.00  0.00    +0.000 A 
ATOM     15  C   UNL     1      -1.698  11.608  22.592  0.00  0.00    +0.000 A 
ATOM     16  S   UNL     1      -0.566  10.316  22.538  0.00  0.00    +0.000 S 
ENDBRANCH   4   8
BRANCH   6  17
ATOM     17  C   UNL     1       2.277   6.011  20.151  0.00  0.00    +0.000 A 
ATOM     18  C   UNL     1       1.225   5.235  20.700  0.00  0.00    +0.000 A 
ATOM     19  C   UNL     1       1.225   3.841  20.597  0.00  0.00    +0.000 A 
ATOM     20  C   UNL     1       2.287   3.248  19.954  0.00  0.00    +0.000 A 
ATOM     21  C   UNL     1       3.343   3.983  19.473  0.00  0.00    +0.000 A 
ATOM     22  C   UNL     1       3.379   5.358  19.569  0.00  0.00    +0.000 A 
ATOM     23  O   UNL     1       4.273   3.208  18.850  0.00  0.00    +0.000 OA
ATOM     24  C   UNL     1       3.637   1.915  18.924  0.00  0.00    +0.000 C 
ATOM     25  O   UNL     1       2.408   1.922  19.680  0.00  0.00    +0.000 OA
ENDBRANCH   6  17
TORSDOF 2
ENDMDL
MODEL 9
REMARK VINA RESULT:      -7.9      2.908      8.794
REMARK  Name = 
REMARK  2 active torsions:
REMARK  status: ('A' for Active; 'I' for Inactive)
REMARK    1  A    between atoms: C_4  and  C_5
REMARK    2  A    between atoms: C_15  and  C_16
REMARK                            x       y       z     vdW  Elec       q    Type
REMARK                         _______ _______ _______ _____ _____    ______ ____
ROOT
ATOM      1  O   UNL     1       1.525   3.958  21.345  0.00  0.00    +0.000 OA
ATOM      2  C   UNL     1       1.789   4.940  20.654  0.00  0.00    +0.000 C 
ATOM      3  C   UNL     1       2.691   4.783  19.493  0.00  0.00    +0.000 C 
ATOM      4  C   UNL     1       3.066   5.817  18.715  0.00  0.00    +0.000 C 
ATOM      5  C   UNL     1       2.592   7.239  19.030  0.00  0.00    +0.000 C 
ATOM      6  C   UNL     1       2.075   7.416  20.470  0.00  0.00    +0.000 C 
ATOM      7  C   UNL     1       1.145   6.271  20.881  0.00  0.00    +0.000 C 
ENDROOT
BRANCH   4   8
ATOM      8  C   UNL     1       3.906   5.478  17.588  0.00  0.00    +0.000 A 
ATOM      9  C   UNL     1       4.852   6.246  16.926  0.00  0.00    +0.000 A 
ATOM     10  C   UNL     1       5.554   5.556  15.884  0.00  0.00    +0.000 A 
ATOM     11  C   UNL     1       6.594   5.993  15.032  0.00  0.00    +0.000 A 
ATOM     12  C   UNL     1       7.133   5.130  14.074  0.00  0.00    +0.000 A 
ATOM     13  C   UNL     1       6.650   3.834  13.952  0.00  0.00    +0.000 A 
ATOM     14  C   UNL     1       5.623   3.376  14.782  0.00  0.00    +0.000 A 
ATOM     15  C   UNL     1       5.086   4.251  15.746  0.00  0.00    +0.000 A 
ATOM     16  S   UNL     1       3.833   3.913  16.873  0.00  0.00    +0.000 S 
ENDBRANCH   4   8
BRANCH   6  17
ATOM     17  C   UNL     1       1.320   8.712  20.735  0.00  0.00    +0.000 A 
ATOM     18  C   UNL     1       0.712   9.428  19.673  0.00  0.00    +0.000 A 
ATOM     19  C   UNL     1      -0.233  10.429  19.924  0.00  0.00    +0.000 A 
ATOM     20  C   UNL     1      -0.543  10.701  21.236  0.00  0.00    +0.000 A 
ATOM     21  C   UNL     1       0.084  10.058  22.276  0.00  0.00    +0.000 A 
ATOM     22  C   UNL     1       1.029   9.075  22.063  0.00  0.00    +0.000 A 
ATOM     23  O   UNL     1      -0.386  10.453  23.490  0.00  0.00    +0.000 OA
ATOM     24  C   UNL     1      -1.437  11.357  23.088  0.00  0.00    +0.000 C 
ATOM     25  O   UNL     1      -1.499  11.568  21.663  0.00  0.00    +0.000 OA
ENDBRANCH   6  17
TORSDOF 2
ENDMDL
