MODEL 1
REMARK VINA RESULT:      -7.9      0.000      0.000
REMARK  Name = 
REMARK  14 active torsions:
REMARK  status: ('A' for Active; 'I' for Inactive)
REMARK    1  A    between atoms: C_1  and  O_2
REMARK    2  A    between atoms: O_2  and  C_3
REMARK    3  A    between atoms: C_6  and  O_7
REMARK    4  A    between atoms: O_7  and  C_8
REMARK    5  A    between atoms: C_8  and  C_9
REMARK    6  A    between atoms: C_9  and  N_10
REMARK    7  A    between atoms: N_10  and  C_11
REMARK    8  A    between atoms: N_10  and  C_23
REMARK    9  A    between atoms: C_11  and  C_12
REMARK   10  A    between atoms: N_14  and  C_15
REMARK   11  A    between atoms: C_15  and  C_16
REMARK   12  A    between atoms: C_23  and  C_24
REMARK   13  A    between atoms: C_31  and  O_32
REMARK   14  A    between atoms: O_32  and  C_33
REMARK                            x       y       z     vdW  Elec       q    Type
REMARK                         _______ _______ _______ _____ _____    ______ ____
ROOT
ATOM      1  N   UNL     1       6.614   5.761  16.566  0.00  0.00    +0.000 NA
ENDROOT
BRANCH   1   2
ATOM      2  C   UNL     1       5.784   6.852  17.153  0.00  0.00    +0.000 C 
BRANCH   2   3
ATOM      3  C   UNL     1       4.294   6.683  16.819  0.00  0.00    +0.000 C 
BRANCH   3   4
ATOM      4  O   UNL     1       3.509   6.214  17.921  0.00  0.00    +0.000 OA
BRANCH   4   8
ATOM      5  C   UNL     1       1.280   9.153  19.940  0.00  0.00    +0.000 A 
ATOM      6  C   UNL     1       1.550   7.895  20.503  0.00  0.00    +0.000 A 
ATOM      7  C   UNL     1       2.305   6.937  19.811  0.00  0.00    +0.000 A 
ATOM      8  C   UNL     1       2.770   7.206  18.529  0.00  0.00    +0.000 A 
ATOM      9  C   UNL     1       2.448   8.438  17.951  0.00  0.00    +0.000 A 
ATOM     10  C   UNL     1       1.707   9.414  18.632  0.00  0.00    +0.000 A 
BRANCH   5  12
ATOM     11  C   UNL     1      -0.822  10.186  20.319  0.00  0.00    +0.000 C 
ATOM     12  O   UNL     1       0.571  10.106  20.617  0.00  0.00    +0.000 OA
ENDBRANCH   5  12
BRANCH  10  13
ATOM     13  O   UNL     1       1.526  10.530  17.861  0.00  0.00    +0.000 OA
ATOM     14  C   UNL     1       2.212  11.725  18.188  0.00  0.00    +0.000 C 
ENDBRANCH  10  13
ENDBRANCH   4   8
ENDBRANCH   3   4
ENDBRANCH   2   3
ENDBRANCH   1   2
BRANCH   1  15
ATOM     15  C   UNL     1       7.454   5.083  17.586  0.00  0.00    +0.000 C 
BRANCH  15  16
ATOM     16  C   UNL     1       6.726   4.864  18.911  0.00  0.00    +0.000 C 
ATOM     17  O   UNL     1       6.971   5.508  19.925  0.00  0.00    +0.000 OA
ATOM     18  N   UNL     1       5.746   3.905  18.827  0.00  0.00    +0.000 N 
ATOM     19  H   UNL     1       5.477   3.616  17.897  0.00  0.00    +0.000 HD
BRANCH  18  20
ATOM     20  C   UNL     1       4.798   3.698  19.892  0.00  0.00    +0.000 C 
BRANCH  20  21
ATOM     21  C   UNL     1       3.446   3.231  19.411  0.00  0.00    +0.000 A 
ATOM     22  C   UNL     1       3.239   2.729  18.111  0.00  0.00    +0.000 A 
ATOM     23  C   UNL     1       1.979   2.290  17.694  0.00  0.00    +0.000 A 
ATOM     24  C   UNL     1       0.902   2.337  18.568  0.00  0.00    +0.000 A 
ATOM     25  C   UNL     1       1.081   2.832  19.859  0.00  0.00    +0.000 A 
ATOM     26  C   UNL     1       2.338   3.276  20.277  0.00  0.00    +0.000 A 
ATOM     27 CL   UNL     1       2.472   3.888  21.890  0.00  0.00    +0.000 Cl
ENDBRANCH  20  21
ENDBRANCH  18  20
ENDBRANCH  15  16
ENDBRANCH   1  15
BRANCH   1  28
ATOM     28  C   UNL     1       5.782   4.847  15.759  0.00  0.00    +0.000 C 
BRANCH  28  29
ATOM     29  C   UNL     1       6.289   4.587  14.341  0.00  0.00    +0.000 A 
ATOM     30  C   UNL     1       5.633   3.654  13.519  0.00  0.00    +0.000 A 
ATOM     31  C   UNL     1       6.075   3.415  12.214  0.00  0.00    +0.000 A 
ATOM     32  C   UNL     1       7.173   4.110  11.707  0.00  0.00    +0.000 A 
ATOM     33  C   UNL     1       7.821   5.050  12.504  0.00  0.00    +0.000 A 
ATOM     34  C   UNL     1       7.372   5.298  13.805  0.00  0.00    +0.000 A 
ENDBRANCH  28  29
ENDBRANCH   1  28
TORSDOF 12
ENDMDL
MODEL 2
REMARK VINA RESULT:      -7.7      0.844      1.843
REMARK  Name = 
REMARK  14 active torsions:
REMARK  status: ('A' for Active; 'I' for Inactive)
REMARK    1  A    between atoms: C_1  and  O_2
REMARK    2  A    between atoms: O_2  and  C_3
REMARK    3  A    between atoms: C_6  and  O_7
REMARK    4  A    between atoms: O_7  and  C_8
REMARK    5  A    between atoms: C_8  and  C_9
REMARK    6  A    between atoms: C_9  and  N_10
REMARK    7  A    between atoms: N_10  and  C_11
REMARK    8  A    between atoms: N_10  and  C_23
REMARK    9  A    between atoms: C_11  and  C_12
REMARK   10  A    between atoms: N_14  and  C_15
REMARK   11  A    between atoms: C_15  and  C_16
REMARK   12  A    between atoms: C_23  and  C_24
REMARK   13  A    between atoms: C_31  and  O_32
REMARK   14  A    between atoms: O_32  and  C_33
REMARK                            x       y       z     vdW  Elec       q    Type
REMARK                         _______ _______ _______ _____ _____    ______ ____
ROOT
ATOM      1  N   UNL     1       6.219   6.010  16.724  0.00  0.00    +0.000 NA
ENDROOT
BRANCH   1   2
ATOM      2  C   UNL     1       5.339   6.950  17.475  0.00  0.00    +0.000 C 
BRANCH   2   3
ATOM      3  C   UNL     1       3.852   6.713  17.170  0.00  0.00    +0.000 C 
BRANCH   3   4
ATOM      4  O   UNL     1       3.062   6.449  18.336  0.00  0.00    +0.000 OA
BRANCH   4   8
ATOM      5  C   UNL     1       0.857   9.836  19.497  0.00  0.00    +0.000 A 
ATOM      6  C   UNL     1       1.330   9.659  18.186  0.00  0.00    +0.000 A 
ATOM      7  C   UNL     1       2.053   8.514  17.824  0.00  0.00    +0.000 A 
ATOM      8  C   UNL     1       2.351   7.545  18.775  0.00  0.00    +0.000 A 
ATOM      9  C   UNL     1       1.929   7.756  20.092  0.00  0.00    +0.000 A 
ATOM     10  C   UNL     1       1.191   8.886  20.470  0.00  0.00    +0.000 A 
BRANCH   5  12
ATOM     11  C   UNL     1       0.864  12.062  20.318  0.00  0.00    +0.000 C 
ATOM     12  O   UNL     1       0.124  10.934  19.855  0.00  0.00    +0.000 OA
ENDBRANCH   5  12
BRANCH  10  13
ATOM     13  O   UNL     1       0.894   8.864  21.806  0.00  0.00    +0.000 OA
ATOM     14  C   UNL     1      -0.418   8.536  22.224  0.00  0.00    +0.000 C 
ENDBRANCH  10  13
ENDBRANCH   4   8
ENDBRANCH   3   4
ENDBRANCH   2   3
ENDBRANCH   1   2
BRANCH   1  15
ATOM     15  C   UNL     1       7.232   5.366  17.598  0.00  0.00    +0.000 C 
BRANCH  15  16
ATOM     16  C   UNL     1       6.644   4.838  18.905  0.00  0.00    +0.000 C 
ATOM     17  O   UNL     1       6.975   5.260  20.009  0.00  0.00    +0.000 OA
ATOM     18  N   UNL     1       5.680   3.879  18.706  0.00  0.00    +0.000 N 
ATOM     19  H   UNL     1       5.326   3.786  17.764  0.00  0.00    +0.000 HD
BRANCH  18  20
ATOM     20  C   UNL     1       4.847   3.410  19.784  0.00  0.00    +0.000 C 
BRANCH  20  21
ATOM     21  C   UNL     1       3.436   3.087  19.356  0.00  0.00    +0.000 A 
ATOM     22  C   UNL     1       3.151   2.346  18.192  0.00  0.00    +0.000 A 
ATOM     23  C   UNL     1       1.834   2.049  17.824  0.00  0.00    +0.000 A 
ATOM     24  C   UNL     1       0.778   2.480  18.615  0.00  0.00    +0.000 A 
ATOM     25  C   UNL     1       1.035   3.217  19.770  0.00  0.00    +0.000 A 
ATOM     26  C   UNL     1       2.349   3.520  20.137  0.00  0.00    +0.000 A 
ATOM     27 CL   UNL     1       2.580   4.450  21.577  0.00  0.00    +0.000 Cl
ENDBRANCH  20  21
ENDBRANCH  18  20
ENDBRANCH  15  16
ENDBRANCH   1  15
BRANCH   1  28
ATOM     28  C   UNL     1       5.414   5.063  15.927  0.00  0.00    +0.000 C 
BRANCH  28  29
ATOM     29  C   UNL     1       5.996   4.704  14.560  0.00  0.00    +0.000 A 
ATOM     30  C   UNL     1       7.222   5.256  14.150  0.00  0.00    +0.000 A 
ATOM     31  C   UNL     1       7.775   4.927  12.909  0.00  0.00    +0.000 A 
ATOM     32  C   UNL     1       7.117   4.035  12.062  0.00  0.00    +0.000 A 
ATOM     33  C   UNL     1       5.911   3.467  12.463  0.00  0.00    +0.000 A 
ATOM     34  C   UNL     1       5.363   3.787  13.709  0.00  0.00    +0.000 A 
ENDBRANCH  28  29
ENDBRANCH   1  28
TORSDOF 12
ENDMDL
MODEL 3
REMARK VINA RESULT:      -7.6      4.012      4.977
REMARK  Name = 
REMARK  14 active torsions:
REMARK  status: ('A' for Active; 'I' for Inactive)
REMARK    1  A    between atoms: C_1  and  O_2
REMARK    2  A    between atoms: O_2  and  C_3
REMARK    3  A    between atoms: C_6  and  O_7
REMARK    4  A    between atoms: O_7  and  C_8
REMARK    5  A    between atoms: C_8  and  C_9
REMARK    6  A    between atoms: C_9  and  N_10
REMARK    7  A    between atoms: N_10  and  C_11
REMARK    8  A    between atoms: N_10  and  C_23
REMARK    9  A    between atoms: C_11  and  C_12
REMARK   10  A    between atoms: N_14  and  C_15
REMARK   11  A    between atoms: C_15  and  C_16
REMARK   12  A    between atoms: C_23  and  C_24
REMARK   13  A    between atoms: C_31  and  O_32
REMARK   14  A    between atoms: O_32  and  C_33
REMARK                            x       y       z     vdW  Elec       q    Type
REMARK                         _______ _______ _______ _____ _____    ______ ____
ROOT
ATOM      1  N   UNL     1       7.052   5.991  16.626  0.00  0.00    +0.000 NA
ENDROOT
BRANCH   1   2
ATOM      2  C   UNL     1       6.736   7.219  17.409  0.00  0.00    +0.000 C 
BRANCH   2   3
ATOM      3  C   UNL     1       8.004   8.006  17.781  0.00  0.00    +0.000 C 
BRANCH   3   4
ATOM      4  O   UNL     1       8.040   9.328  17.230  0.00  0.00    +0.000 OA
BRANCH   4   8
ATOM      5  C   UNL     1       9.840  12.025  19.906  0.00  0.00    +0.000 A 
ATOM      6  C   UNL     1       9.725  10.653  20.185  0.00  0.00    +0.000 A 
ATOM      7  C   UNL     1       9.130   9.774  19.269  0.00  0.00    +0.000 A 
ATOM      8  C   UNL     1       8.603  10.258  18.077  0.00  0.00    +0.000 A 
ATOM      9  C   UNL     1       8.668  11.634  17.833  0.00  0.00    +0.000 A 
ATOM     10  C   UNL     1       9.273  12.526  18.729  0.00  0.00    +0.000 A 
BRANCH   5  12
ATOM     11  C   UNL     1       9.623  13.415  21.817  0.00  0.00    +0.000 C 
ATOM     12  O   UNL     1      10.446  12.887  20.779  0.00  0.00    +0.000 OA
ENDBRANCH   5  12
BRANCH  10  13
ATOM     13  O   UNL     1       9.214  13.813  18.267  0.00  0.00    +0.000 OA
ATOM     14  C   UNL     1      10.355  14.392  17.662  0.00  0.00    +0.000 C 
ENDBRANCH  10  13
ENDBRANCH   4   8
ENDBRANCH   3   4
ENDBRANCH   2   3
ENDBRANCH   1   2
BRANCH   1  15
ATOM     15  C   UNL     1       7.579   4.898  17.481  0.00  0.00    +0.000 C 
BRANCH  15  16
ATOM     16  C   UNL     1       6.834   4.765  18.808  0.00  0.00    +0.000 C 
ATOM     17  O   UNL     1       7.202   5.312  19.842  0.00  0.00    +0.000 OA
ATOM     18  N   UNL     1       5.692   4.008  18.703  0.00  0.00    +0.000 N 
ATOM     19  H   UNL     1       5.367   3.811  17.766  0.00  0.00    +0.000 HD
BRANCH  18  20
ATOM     20  C   UNL     1       4.730   3.938  19.773  0.00  0.00    +0.000 C 
BRANCH  20  21
ATOM     21  C   UNL     1       3.396   3.378  19.346  0.00  0.00    +0.000 A 
ATOM     22  C   UNL     1       3.276   2.378  18.361  0.00  0.00    +0.000 A 
ATOM     23  C   UNL     1       2.028   1.866  17.992  0.00  0.00    +0.000 A 
ATOM     24  C   UNL     1       0.876   2.336  18.605  0.00  0.00    +0.000 A 
ATOM     25  C   UNL     1       0.968   3.328  19.582  0.00  0.00    +0.000 A 
ATOM     26  C   UNL     1       2.212   3.845  19.948  0.00  0.00    +0.000 A 
ATOM     27 CL   UNL     1       2.237   5.081  21.158  0.00  0.00    +0.000 Cl
ENDBRANCH  20  21
ENDBRANCH  18  20
ENDBRANCH  15  16
ENDBRANCH   1  15
BRANCH   1  28
ATOM     28  C   UNL     1       5.908   5.601  15.779  0.00  0.00    +0.000 C 
BRANCH  28  29
ATOM     29  C   UNL     1       6.277   4.974  14.435  0.00  0.00    +0.000 A 
ATOM     30  C   UNL     1       7.395   5.440  13.724  0.00  0.00    +0.000 A 
ATOM     31  C   UNL     1       7.755   4.868  12.500  0.00  0.00    +0.000 A 
ATOM     32  C   UNL     1       7.007   3.815  11.971  0.00  0.00    +0.000 A 
ATOM     33  C   UNL     1       5.907   3.332  12.674  0.00  0.00    +0.000 A 
ATOM     34  C   UNL     1       5.554   3.896  13.903  0.00  0.00    +0.000 A 
ENDBRANCH  28  29
ENDBRANCH   1  28
TORSDOF 12
ENDMDL
MODEL 4
REMARK VINA RESULT:      -7.6      0.765      1.163
REMARK  Name = 
REMARK  14 active torsions:
REMARK  status: ('A' for Active; 'I' for Inactive)
REMARK    1  A    between atoms: C_1  and  O_2
REMARK    2  A    between atoms: O_2  and  C_3
REMARK    3  A    between atoms: C_6  and  O_7
REMARK    4  A    between atoms: O_7  and  C_8
REMARK    5  A    between atoms: C_8  and  C_9
REMARK    6  A    between atoms: C_9  and  N_10
REMARK    7  A    between atoms: N_10  and  C_11
REMARK    8  A    between atoms: N_10  and  C_23
REMARK    9  A    between atoms: C_11  and  C_12
REMARK   10  A    between atoms: N_14  and  C_15
REMARK   11  A    between atoms: C_15  and  C_16
REMARK   12  A    between atoms: C_23  and  C_24
REMARK   13  A    between atoms: C_31  and  O_32
REMARK   14  A    between atoms: O_32  and  C_33
REMARK                            x       y       z     vdW  Elec       q    Type
REMARK                         _______ _______ _______ _____ _____    ______ ____
ROOT
ATOM      1  N   UNL     1       6.524   5.740  16.636  0.00  0.00    +0.000 NA
ENDROOT
BRANCH   1   2
ATOM      2  C   UNL     1       5.789   6.852  17.305  0.00  0.00    +0.000 C 
BRANCH   2   3
ATOM      3  C   UNL     1       4.302   6.520  17.504  0.00  0.00    +0.000 C 
BRANCH   3   4
ATOM      4  O   UNL     1       3.417   7.531  17.007  0.00  0.00    +0.000 OA
BRANCH   4   8
ATOM      5  C   UNL     1       1.059   9.113  20.108  0.00  0.00    +0.000 A 
ATOM      6  C   UNL     1       1.696   7.864  20.209  0.00  0.00    +0.000 A 
ATOM      7  C   UNL     1       2.486   7.366  19.163  0.00  0.00    +0.000 A 
ATOM      8  C   UNL     1       2.620   8.089  17.983  0.00  0.00    +0.000 A 
ATOM      9  C   UNL     1       1.935   9.303  17.866  0.00  0.00    +0.000 A 
ATOM     10  C   UNL     1       1.154   9.825  18.907  0.00  0.00    +0.000 A 
BRANCH   5  12
ATOM     11  C   UNL     1      -0.248   8.673  22.039  0.00  0.00    +0.000 C 
ATOM     12  O   UNL     1       0.311   9.623  21.134  0.00  0.00    +0.000 OA
ENDBRANCH   5  12
BRANCH  10  13
ATOM     13  O   UNL     1       0.590  11.021  18.554  0.00  0.00    +0.000 OA
ATOM     14  C   UNL     1       0.283  11.972  19.558  0.00  0.00    +0.000 C 
ENDBRANCH  10  13
ENDBRANCH   4   8
ENDBRANCH   3   4
ENDBRANCH   2   3
ENDBRANCH   1   2
BRANCH   1  15
ATOM     15  C   UNL     1       7.345   4.955  17.590  0.00  0.00    +0.000 C 
BRANCH  15  16
ATOM     16  C   UNL     1       6.645   4.715  18.926  0.00  0.00    +0.000 C 
ATOM     17  O   UNL     1       6.888   5.366  19.938  0.00  0.00    +0.000 OA
ATOM     18  N   UNL     1       5.690   3.730  18.858  0.00  0.00    +0.000 N 
ATOM     19  H   UNL     1       5.414   3.434  17.931  0.00  0.00    +0.000 HD
BRANCH  18  20
ATOM     20  C   UNL     1       4.765   3.496  19.937  0.00  0.00    +0.000 C 
BRANCH  20  21
ATOM     21  C   UNL     1       3.387   3.094  19.471  0.00  0.00    +0.000 A 
ATOM     22  C   UNL     1       3.179   2.312  18.319  0.00  0.00    +0.000 A 
ATOM     23  C   UNL     1       1.892   1.940  17.915  0.00  0.00    +0.000 A 
ATOM     24  C   UNL     1       0.789   2.336  18.659  0.00  0.00    +0.000 A 
ATOM     25  C   UNL     1       0.970   3.113  19.803  0.00  0.00    +0.000 A 
ATOM     26  C   UNL     1       2.254   3.490  20.204  0.00  0.00    +0.000 A 
ATOM     27 CL   UNL     1       2.389   4.466  21.627  0.00  0.00    +0.000 Cl
ENDBRANCH  20  21
ENDBRANCH  18  20
ENDBRANCH  15  16
ENDBRANCH   1  15
BRANCH   1  28
ATOM     28  C   UNL     1       5.607   4.928  15.812  0.00  0.00    +0.000 C 
BRANCH  28  29
ATOM     29  C   UNL     1       6.110   4.603  14.406  0.00  0.00    +0.000 A 
ATOM     30  C   UNL     1       7.291   5.196  13.927  0.00  0.00    +0.000 A 
ATOM     31  C   UNL     1       7.773   4.899  12.648  0.00  0.00    +0.000 A 
ATOM     32  C   UNL     1       7.088   3.998  11.833  0.00  0.00    +0.000 A 
ATOM     33  C   UNL     1       5.927   3.390  12.301  0.00  0.00    +0.000 A 
ATOM     34  C   UNL     1       5.451   3.678  13.584  0.00  0.00    +0.000 A 
ENDBRANCH  28  29
ENDBRANCH   1  28
TORSDOF 12
ENDMDL
MODEL 5
REMARK VINA RESULT:      -7.2      1.447      1.789
REMARK  Name = 
REMARK  14 active torsions:
REMARK  status: ('A' for Active; 'I' for Inactive)
REMARK    1  A    between atoms: C_1  and  O_2
REMARK    2  A    between atoms: O_2  and  C_3
REMARK    3  A    between atoms: C_6  and  O_7
REMARK    4  A    between atoms: O_7  and  C_8
REMARK    5  A    between atoms: C_8  and  C_9
REMARK    6  A    between atoms: C_9  and  N_10
REMARK    7  A    between atoms: N_10  and  C_11
REMARK    8  A    between atoms: N_10  and  C_23
REMARK    9  A    between atoms: C_11  and  C_12
REMARK   10  A    between atoms: N_14  and  C_15
REMARK   11  A    between atoms: C_15  and  C_16
REMARK   12  A    between atoms: C_23  and  C_24
REMARK   13  A    between atoms: C_31  and  O_32
REMARK   14  A    between atoms: O_32  and  C_33
REMARK                            x       y       z     vdW  Elec       q    Type
REMARK                         _______ _______ _______ _____ _____    ______ ____
ROOT
ATOM      1  N   UNL     1       5.224   5.612  16.719  0.00  0.00    +0.000 NA
ENDROOT
BRANCH   1   2
ATOM      2  C   UNL     1       4.059   6.002  17.565  0.00  0.00    +0.000 C 
BRANCH   2   3
ATOM      3  C   UNL     1       3.747   7.502  17.455  0.00  0.00    +0.000 C 
BRANCH   3   4
ATOM      4  O   UNL     1       2.345   7.794  17.414  0.00  0.00    +0.000 OA
BRANCH   4   8
ATOM      5  C   UNL     1       1.039   9.697  20.929  0.00  0.00    +0.000 A 
ATOM      6  C   UNL     1       1.441   8.351  20.907  0.00  0.00    +0.000 A 
ATOM      7  C   UNL     1       1.883   7.745  19.722  0.00  0.00    +0.000 A 
ATOM      8  C   UNL     1       1.892   8.462  18.532  0.00  0.00    +0.000 A 
ATOM      9  C   UNL     1       1.434   9.784  18.549  0.00  0.00    +0.000 A 
ATOM     10  C   UNL     1       1.004  10.412  19.726  0.00  0.00    +0.000 A 
BRANCH   5  12
ATOM     11  C   UNL     1       0.028   9.466  23.063  0.00  0.00    +0.000 C 
ATOM     12  O   UNL     1       0.635  10.307  22.085  0.00  0.00    +0.000 OA
ENDBRANCH   5  12
BRANCH  10  13
ATOM     13  O   UNL     1       0.608  11.700  19.488  0.00  0.00    +0.000 OA
ATOM     14  C   UNL     1      -0.527  11.944  18.678  0.00  0.00    +0.000 C 
ENDBRANCH  10  13
ENDBRANCH   4   8
ENDBRANCH   3   4
ENDBRANCH   2   3
ENDBRANCH   1   2
BRANCH   1  15
ATOM     15  C   UNL     1       6.438   5.337  17.527  0.00  0.00    +0.000 C 
BRANCH  15  16
ATOM     16  C   UNL     1       6.125   4.702  18.881  0.00  0.00    +0.000 C 
ATOM     17  O   UNL     1       6.423   5.223  19.951  0.00  0.00    +0.000 OA
ATOM     18  N   UNL     1       5.440   3.517  18.767  0.00  0.00    +0.000 N 
ATOM     19  H   UNL     1       5.046   3.310  17.860  0.00  0.00    +0.000 HD
BRANCH  18  20
ATOM     20  C   UNL     1       4.857   2.868  19.914  0.00  0.00    +0.000 C 
BRANCH  20  21
ATOM     21  C   UNL     1       3.353   2.980  19.967  0.00  0.00    +0.000 A 
ATOM     22  C   UNL     1       2.683   3.676  20.992  0.00  0.00    +0.000 A 
ATOM     23  C   UNL     1       1.288   3.777  21.011  0.00  0.00    +0.000 A 
ATOM     24  C   UNL     1       0.535   3.191  20.003  0.00  0.00    +0.000 A 
ATOM     25  C   UNL     1       1.175   2.495  18.979  0.00  0.00    +0.000 A 
ATOM     26  C   UNL     1       2.568   2.388  18.960  0.00  0.00    +0.000 A 
ATOM     27 CL   UNL     1       3.282   1.495  17.662  0.00  0.00    +0.000 Cl
ENDBRANCH  20  21
ENDBRANCH  18  20
ENDBRANCH  15  16
ENDBRANCH   1  15
BRANCH   1  28
ATOM     28  C   UNL     1       4.855   4.527  15.788  0.00  0.00    +0.000 C 
BRANCH  28  29
ATOM     29  C   UNL     1       5.717   4.427  14.531  0.00  0.00    +0.000 A 
ATOM     30  C   UNL     1       5.335   3.575  13.481  0.00  0.00    +0.000 A 
ATOM     31  C   UNL     1       6.105   3.482  12.317  0.00  0.00    +0.000 A 
ATOM     32  C   UNL     1       7.264   4.246  12.182  0.00  0.00    +0.000 A 
ATOM     33  C   UNL     1       7.645   5.108  13.206  0.00  0.00    +0.000 A 
ATOM     34  C   UNL     1       6.869   5.209  14.365  0.00  0.00    +0.000 A 
ENDBRANCH  28  29
ENDBRANCH   1  28
TORSDOF 12
ENDMDL
MODEL 6
REMARK VINA RESULT:      -7.2      0.941      1.694
REMARK  Name = 
REMARK  14 active torsions:
REMARK  status: ('A' for Active; 'I' for Inactive)
REMARK    1  A    between atoms: C_1  and  O_2
REMARK    2  A    between atoms: O_2  and  C_3
REMARK    3  A    between atoms: C_6  and  O_7
REMARK    4  A    between atoms: O_7  and  C_8
REMARK    5  A    between atoms: C_8  and  C_9
REMARK    6  A    between atoms: C_9  and  N_10
REMARK    7  A    between atoms: N_10  and  C_11
REMARK    8  A    between atoms: N_10  and  C_23
REMARK    9  A    between atoms: C_11  and  C_12
REMARK   10  A    between atoms: N_14  and  C_15
REMARK   11  A    between atoms: C_15  and  C_16
REMARK   12  A    between atoms: C_23  and  C_24
REMARK   13  A    between atoms: C_31  and  O_32
REMARK   14  A    between atoms: O_32  and  C_33
REMARK                            x       y       z     vdW  Elec       q    Type
REMARK                         _______ _______ _______ _____ _____    ______ ____
ROOT
ATOM      1  N   UNL     1       6.507   6.315  16.514  0.00  0.00    +0.000 NA
ENDROOT
BRANCH   1   2
ATOM      2  C   UNL     1       5.075   6.275  16.100  0.00  0.00    +0.000 C 
BRANCH   2   3
ATOM      3  C   UNL     1       4.245   7.364  16.797  0.00  0.00    +0.000 C 
BRANCH   3   4
ATOM      4  O   UNL     1       3.274   6.846  17.714  0.00  0.00    +0.000 OA
BRANCH   4   8
ATOM      5  C   UNL     1       0.980   9.912  19.451  0.00  0.00    +0.000 A 
ATOM      6  C   UNL     1       1.492  10.003  18.146  0.00  0.00    +0.000 A 
ATOM      7  C   UNL     1       2.245   8.960  17.587  0.00  0.00    +0.000 A 
ATOM      8  C   UNL     1       2.532   7.826  18.338  0.00  0.00    +0.000 A 
ATOM      9  C   UNL     1       2.070   7.768  19.657  0.00  0.00    +0.000 A 
ATOM     10  C   UNL     1       1.303   8.794  20.227  0.00  0.00    +0.000 A 
BRANCH   5  12
ATOM     11  C   UNL     1      -1.127  11.001  19.530  0.00  0.00    +0.000 C 
ATOM     12  O   UNL     1       0.219  10.910  19.994  0.00  0.00    +0.000 OA
ENDBRANCH   5  12
BRANCH  10  13
ATOM     13  O   UNL     1       0.969   8.505  21.523  0.00  0.00    +0.000 OA
ATOM     14  C   UNL     1      -0.383   8.247  21.855  0.00  0.00    +0.000 C 
ENDBRANCH  10  13
ENDBRANCH   4   8
ENDBRANCH   3   4
ENDBRANCH   2   3
ENDBRANCH   1   2
BRANCH   1  15
ATOM     15  C   UNL     1       6.667   6.641  17.953  0.00  0.00    +0.000 C 
BRANCH  15  16
ATOM     16  C   UNL     1       6.458   5.435  18.866  0.00  0.00    +0.000 C 
ATOM     17  O   UNL     1       7.340   4.977  19.586  0.00  0.00    +0.000 OA
ATOM     18  N   UNL     1       5.172   4.953  18.826  0.00  0.00    +0.000 N 
ATOM     19  H   UNL     1       4.482   5.548  18.387  0.00  0.00    +0.000 HD
BRANCH  18  20
ATOM     20  C   UNL     1       4.704   3.967  19.766  0.00  0.00    +0.000 C 
BRANCH  20  21
ATOM     21  C   UNL     1       3.394   3.332  19.369  0.00  0.00    +0.000 A 
ATOM     22  C   UNL     1       3.275   2.483  18.251  0.00  0.00    +0.000 A 
ATOM     23  C   UNL     1       2.052   1.896  17.911  0.00  0.00    +0.000 A 
ATOM     24  C   UNL     1       0.926   2.139  18.685  0.00  0.00    +0.000 A 
ATOM     25  C   UNL     1       1.018   2.978  19.796  0.00  0.00    +0.000 A 
ATOM     26  C   UNL     1       2.237   3.570  20.134  0.00  0.00    +0.000 A 
ATOM     27 CL   UNL     1       2.263   4.608  21.518  0.00  0.00    +0.000 Cl
ENDBRANCH  20  21
ENDBRANCH  18  20
ENDBRANCH  15  16
ENDBRANCH   1  15
BRANCH   1  28
ATOM     28  C   UNL     1       7.210   5.089  16.087  0.00  0.00    +0.000 C 
BRANCH  28  29
ATOM     29  C   UNL     1       6.996   4.692  14.627  0.00  0.00    +0.000 A 
ATOM     30  C   UNL     1       5.973   3.792  14.285  0.00  0.00    +0.000 A 
ATOM     31  C   UNL     1       5.755   3.428  12.952  0.00  0.00    +0.000 A 
ATOM     32  C   UNL     1       6.551   3.965  11.940  0.00  0.00    +0.000 A 
ATOM     33  C   UNL     1       7.557   4.872  12.263  0.00  0.00    +0.000 A 
ATOM     34  C   UNL     1       7.767   5.244  13.594  0.00  0.00    +0.000 A 
ENDBRANCH  28  29
ENDBRANCH   1  28
TORSDOF 12
ENDMDL
MODEL 7
REMARK VINA RESULT:      -7.2      4.236      5.392
REMARK  Name = 
REMARK  14 active torsions:
REMARK  status: ('A' for Active; 'I' for Inactive)
REMARK    1  A    between atoms: C_1  and  O_2
REMARK    2  A    between atoms: O_2  and  C_3
REMARK    3  A    between atoms: C_6  and  O_7
REMARK    4  A    between atoms: O_7  and  C_8
REMARK    5  A    between atoms: C_8  and  C_9
REMARK    6  A    between atoms: C_9  and  N_10
REMARK    7  A    between atoms: N_10  and  C_11
REMARK    8  A    between atoms: N_10  and  C_23
REMARK    9  A    between atoms: C_11  and  C_12
REMARK   10  A    between atoms: N_14  and  C_15
REMARK   11  A    between atoms: C_15  and  C_16
REMARK   12  A    between atoms: C_23  and  C_24
REMARK   13  A    between atoms: C_31  and  O_32
REMARK   14  A    between atoms: O_32  and  C_33
REMARK                            x       y       z     vdW  Elec       q    Type
REMARK                         _______ _______ _______ _____ _____    ______ ____
ROOT
ATOM      1  N   UNL     1       7.176   6.329  16.726  0.00  0.00    +0.000 NA
ENDROOT
BRANCH   1   2
ATOM      2  C   UNL     1       6.930   7.633  17.404  0.00  0.00    +0.000 C 
BRANCH   2   3
ATOM      3  C   UNL     1       8.211   8.476  17.511  0.00  0.00    +0.000 C 
BRANCH   3   4
ATOM      4  O   UNL     1       8.605   8.751  18.860  0.00  0.00    +0.000 OA
BRANCH   4   8
ATOM      5  C   UNL     1      10.202  12.627  19.192  0.00  0.00    +0.000 A 
ATOM      6  C   UNL     1      10.102  11.957  17.961  0.00  0.00    +0.000 A 
ATOM      7  C   UNL     1       9.554  10.669  17.878  0.00  0.00    +0.000 A 
ATOM      8  C   UNL     1       9.136  10.012  19.029  0.00  0.00    +0.000 A 
ATOM      9  C   UNL     1       9.294  10.661  20.258  0.00  0.00    +0.000 A 
ATOM     10  C   UNL     1       9.824  11.955  20.360  0.00  0.00    +0.000 A 
BRANCH   5  12
ATOM     11  C   UNL     1      10.764  14.637  18.064  0.00  0.00    +0.000 C 
ATOM     12  O   UNL     1      10.706  13.895  19.280  0.00  0.00    +0.000 OA
ENDBRANCH   5  12
BRANCH  10  13
ATOM     13  O   UNL     1       9.874  12.372  21.662  0.00  0.00    +0.000 OA
ATOM     14  C   UNL     1       9.468  13.688  21.991  0.00  0.00    +0.000 C 
ENDBRANCH  10  13
ENDBRANCH   4   8
ENDBRANCH   3   4
ENDBRANCH   2   3
ENDBRANCH   1   2
BRANCH   1  15
ATOM     15  C   UNL     1       7.620   5.277  17.674  0.00  0.00    +0.000 C 
BRANCH  15  16
ATOM     16  C   UNL     1       6.741   5.185  18.920  0.00  0.00    +0.000 C 
ATOM     17  O   UNL     1       7.155   5.412  20.052  0.00  0.00    +0.000 OA
ATOM     18  N   UNL     1       5.437   4.866  18.628  0.00  0.00    +0.000 N 
ATOM     19  H   UNL     1       5.162   4.936  17.658  0.00  0.00    +0.000 HD
BRANCH  18  20
ATOM     20  C   UNL     1       4.398   4.943  19.624  0.00  0.00    +0.000 C 
BRANCH  20  21
ATOM     21  C   UNL     1       3.189   4.103  19.297  0.00  0.00    +0.000 A 
ATOM     22  C   UNL     1       2.091   4.608  18.574  0.00  0.00    +0.000 A 
ATOM     23  C   UNL     1       0.987   3.805  18.272  0.00  0.00    +0.000 A 
ATOM     24  C   UNL     1       0.960   2.479  18.680  0.00  0.00    +0.000 A 
ATOM     25  C   UNL     1       2.034   1.955  19.399  0.00  0.00    +0.000 A 
ATOM     26  C   UNL     1       3.136   2.758  19.707  0.00  0.00    +0.000 A 
ATOM     27 CL   UNL     1       4.420   2.035  20.614  0.00  0.00    +0.000 Cl
ENDBRANCH  20  21
ENDBRANCH  18  20
ENDBRANCH  15  16
ENDBRANCH   1  15
BRANCH   1  28
ATOM     28  C   UNL     1       6.020   5.946  15.891  0.00  0.00    +0.000 C 
BRANCH  28  29
ATOM     29  C   UNL     1       6.366   5.204  14.601  0.00  0.00    +0.000 A 
ATOM     30  C   UNL     1       5.507   4.206  14.111  0.00  0.00    +0.000 A 
ATOM     31  C   UNL     1       5.801   3.527  12.925  0.00  0.00    +0.000 A 
ATOM     32  C   UNL     1       6.954   3.842  12.205  0.00  0.00    +0.000 A 
ATOM     33  C   UNL     1       7.805   4.841  12.669  0.00  0.00    +0.000 A 
ATOM     34  C   UNL     1       7.505   5.528  13.849  0.00  0.00    +0.000 A 
ENDBRANCH  28  29
ENDBRANCH   1  28
TORSDOF 12
ENDMDL
MODEL 8
REMARK VINA RESULT:      -7.2      2.406      5.876
REMARK  Name = 
REMARK  14 active torsions:
REMARK  status: ('A' for Active; 'I' for Inactive)
REMARK    1  A    between atoms: C_1  and  O_2
REMARK    2  A    between atoms: O_2  and  C_3
REMARK    3  A    between atoms: C_6  and  O_7
REMARK    4  A    between atoms: O_7  and  C_8
REMARK    5  A    between atoms: C_8  and  C_9
REMARK    6  A    between atoms: C_9  and  N_10
REMARK    7  A    between atoms: N_10  and  C_11
REMARK    8  A    between atoms: N_10  and  C_23
REMARK    9  A    between atoms: C_11  and  C_12
REMARK   10  A    between atoms: N_14  and  C_15
REMARK   11  A    between atoms: C_15  and  C_16
REMARK   12  A    between atoms: C_23  and  C_24
REMARK   13  A    between atoms: C_31  and  O_32
REMARK   14  A    between atoms: O_32  and  C_33
REMARK                            x       y       z     vdW  Elec       q    Type
REMARK                         _______ _______ _______ _____ _____    ______ ____
ROOT
ATOM      1  N   UNL     1       3.991   4.542  17.623  0.00  0.00    +0.000 NA
ENDROOT
BRANCH   1   2
ATOM      2  C   UNL     1       2.885   5.539  17.686  0.00  0.00    +0.000 C 
BRANCH   2   3
ATOM      3  C   UNL     1       3.336   6.857  18.336  0.00  0.00    +0.000 C 
BRANCH   3   4
ATOM      4  O   UNL     1       2.735   8.019  17.752  0.00  0.00    +0.000 OA
BRANCH   4   8
ATOM      5  C   UNL     1       0.087   9.866  20.446  0.00  0.00    +0.000 A 
ATOM      6  C   UNL     1       0.929   8.807  20.826  0.00  0.00    +0.000 A 
ATOM      7  C   UNL     1       1.811   8.217  19.909  0.00  0.00    +0.000 A 
ATOM      8  C   UNL     1       1.837   8.648  18.588  0.00  0.00    +0.000 A 
ATOM      9  C   UNL     1       0.953   9.662  18.202  0.00  0.00    +0.000 A 
ATOM     10  C   UNL     1       0.076  10.275  19.108  0.00  0.00    +0.000 A 
BRANCH   5  12
ATOM     11  C   UNL     1      -0.279  11.673  21.940  0.00  0.00    +0.000 C 
ATOM     12  O   UNL     1      -0.755  10.470  21.340  0.00  0.00    +0.000 OA
ENDBRANCH   5  12
BRANCH  10  13
ATOM     13  O   UNL     1      -0.681  11.236  18.495  0.00  0.00    +0.000 OA
ATOM     14  C   UNL     1      -1.755  10.851  17.656  0.00  0.00    +0.000 C 
ENDBRANCH  10  13
ENDBRANCH   4   8
ENDBRANCH   3   4
ENDBRANCH   2   3
ENDBRANCH   1   2
BRANCH   1  15
ATOM     15  C   UNL     1       5.158   4.943  18.448  0.00  0.00    +0.000 C 
BRANCH  15  16
ATOM     16  C   UNL     1       6.471   4.942  17.667  0.00  0.00    +0.000 C 
ATOM     17  O   UNL     1       7.520   4.497  18.119  0.00  0.00    +0.000 OA
ATOM     18  N   UNL     1       6.335   5.450  16.397  0.00  0.00    +0.000 N 
ATOM     19  H   UNL     1       5.390   5.561  16.056  0.00  0.00    +0.000 HD
BRANCH  18  20
ATOM     20  C   UNL     1       7.390   5.339  15.422  0.00  0.00    +0.000 C 
BRANCH  20  21
ATOM     21  C   UNL     1       6.952   4.685  14.135  0.00  0.00    +0.000 A 
ATOM     22  C   UNL     1       5.853   3.807  14.070  0.00  0.00    +0.000 A 
ATOM     23  C   UNL     1       5.458   3.224  12.861  0.00  0.00    +0.000 A 
ATOM     24  C   UNL     1       6.149   3.513  11.692  0.00  0.00    +0.000 A 
ATOM     25  C   UNL     1       7.242   4.378  11.732  0.00  0.00    +0.000 A 
ATOM     26  C   UNL     1       7.641   4.957  12.938  0.00  0.00    +0.000 A 
ATOM     27 CL   UNL     1       9.015   6.008  12.902  0.00  0.00    +0.000 Cl
ENDBRANCH  20  21
ENDBRANCH  18  20
ENDBRANCH  15  16
ENDBRANCH   1  15
BRANCH   1  28
ATOM     28  C   UNL     1       3.487   3.183  17.903  0.00  0.00    +0.000 C 
BRANCH  28  29
ATOM     29  C   UNL     1       2.737   3.026  19.225  0.00  0.00    +0.000 A 
ATOM     30  C   UNL     1       1.343   3.193  19.267  0.00  0.00    +0.000 A 
ATOM     31  C   UNL     1       0.639   3.039  20.466  0.00  0.00    +0.000 A 
ATOM     32  C   UNL     1       1.318   2.708  21.639  0.00  0.00    +0.000 A 
ATOM     33  C   UNL     1       2.697   2.521  21.608  0.00  0.00    +0.000 A 
ATOM     34  C   UNL     1       3.399   2.664  20.407  0.00  0.00    +0.000 A 
ENDBRANCH  28  29
ENDBRANCH   1  28
TORSDOF 12
ENDMDL
MODEL 9
REMARK VINA RESULT:      -7.0      1.333      1.608
REMARK  Name = 
REMARK  14 active torsions:
REMARK  status: ('A' for Active; 'I' for Inactive)
REMARK    1  A    between atoms: C_1  and  O_2
REMARK    2  A    between atoms: O_2  and  C_3
REMARK    3  A    between atoms: C_6  and  O_7
REMARK    4  A    between atoms: O_7  and  C_8
REMARK    5  A    between atoms: C_8  and  C_9
REMARK    6  A    between atoms: C_9  and  N_10
REMARK    7  A    between atoms: N_10  and  C_11
REMARK    8  A    between atoms: N_10  and  C_23
REMARK    9  A    between atoms: C_11  and  C_12
REMARK   10  A    between atoms: N_14  and  C_15
REMARK   11  A    between atoms: C_15  and  C_16
REMARK   12  A    between atoms: C_23  and  C_24
REMARK   13  A    between atoms: C_31  and  O_32
REMARK   14  A    between atoms: O_32  and  C_33
REMARK                            x       y       z     vdW  Elec       q    Type
REMARK                         _______ _______ _______ _____ _____    ______ ____
ROOT
ATOM      1  N   UNL     1       5.990   6.684  16.587  0.00  0.00    +0.000 NA
ENDROOT
BRANCH   1   2
ATOM      2  C   UNL     1       5.006   7.760  16.899  0.00  0.00    +0.000 C 
BRANCH   2   3
ATOM      3  C   UNL     1       3.572   7.217  17.000  0.00  0.00    +0.000 C 
BRANCH   3   4
ATOM      4  O   UNL     1       3.251   6.681  18.289  0.00  0.00    +0.000 OA
BRANCH   4   8
ATOM      5  C   UNL     1       0.697   9.025  20.668  0.00  0.00    +0.000 A 
ATOM      6  C   UNL     1       1.137   7.751  21.065  0.00  0.00    +0.000 A 
ATOM      7  C   UNL     1       1.998   6.996  20.257  0.00  0.00    +0.000 A 
ATOM      8  C   UNL     1       2.401   7.483  19.019  0.00  0.00    +0.000 A 
ATOM      9  C   UNL     1       1.912   8.726  18.603  0.00  0.00    +0.000 A 
ATOM     10  C   UNL     1       1.064   9.503  19.405  0.00  0.00    +0.000 A 
BRANCH   5  12
ATOM     11  C   UNL     1       0.106   9.690  22.868  0.00  0.00    +0.000 C 
ATOM     12  O   UNL     1      -0.118   9.784  21.462  0.00  0.00    +0.000 OA
ENDBRANCH   5  12
BRANCH  10  13
ATOM     13  O   UNL     1       0.726  10.674  18.782  0.00  0.00    +0.000 OA
ATOM     14  C   UNL     1       1.727  11.641  18.521  0.00  0.00    +0.000 C 
ENDBRANCH  10  13
ENDBRANCH   4   8
ENDBRANCH   3   4
ENDBRANCH   2   3
ENDBRANCH   1   2
BRANCH   1  15
ATOM     15  C   UNL     1       6.835   6.338  17.757  0.00  0.00    +0.000 C 
BRANCH  15  16
ATOM     16  C   UNL     1       6.602   4.917  18.264  0.00  0.00    +0.000 C 
ATOM     17  O   UNL     1       7.478   4.058  18.281  0.00  0.00    +0.000 OA
ATOM     18  N   UNL     1       5.327   4.722  18.737  0.00  0.00    +0.000 N 
ATOM     19  H   UNL     1       4.773   5.554  18.893  0.00  0.00    +0.000 HD
BRANCH  18  20
ATOM     20  C   UNL     1       4.961   3.530  19.458  0.00  0.00    +0.000 C 
BRANCH  20  21
ATOM     21  C   UNL     1       3.481   3.425  19.734  0.00  0.00    +0.000 A 
ATOM     22  C   UNL     1       2.951   3.473  21.038  0.00  0.00    +0.000 A 
ATOM     23  C   UNL     1       1.573   3.387  21.267  0.00  0.00    +0.000 A 
ATOM     24  C   UNL     1       0.698   3.260  20.197  0.00  0.00    +0.000 A 
ATOM     25  C   UNL     1       1.199   3.208  18.897  0.00  0.00    +0.000 A 
ATOM     26  C   UNL     1       2.575   3.288  18.666  0.00  0.00    +0.000 A 
ATOM     27 CL   UNL     1       3.114   3.203  17.025  0.00  0.00    +0.000 Cl
ENDBRANCH  20  21
ENDBRANCH  18  20
ENDBRANCH  15  16
ENDBRANCH   1  15
BRANCH   1  28
ATOM     28  C   UNL     1       5.320   5.529  15.959  0.00  0.00    +0.000 C 
BRANCH  28  29
ATOM     29  C   UNL     1       5.980   5.007  14.683  0.00  0.00    +0.000 A 
ATOM     30  C   UNL     1       5.365   3.986  13.940  0.00  0.00    +0.000 A 
ATOM     31  C   UNL     1       5.948   3.507  12.762  0.00  0.00    +0.000 A 
ATOM     32  C   UNL     1       7.151   4.048  12.306  0.00  0.00    +0.000 A 
ATOM     33  C   UNL     1       7.762   5.073  13.023  0.00  0.00    +0.000 A 
ATOM     34  C   UNL     1       7.172   5.559  14.194  0.00  0.00    +0.000 A 
ENDBRANCH  28  29
ENDBRANCH   1  28
TORSDOF 12
ENDMDL
