MODEL 1
REMARK VINA RESULT:      -7.8      0.000      0.000
REMARK  Name = 
REMARK  13 active torsions:
REMARK  status: ('A' for Active; 'I' for Inactive)
REMARK    1  A    between atoms: C_1  and  O_2
REMARK    2  A    between atoms: O_2  and  C_3
REMARK    3  A    between atoms: C_6  and  C_7
REMARK    4  A    between atoms: C_8  and  C_9
REMARK    5  A    between atoms: C_9  and  C_11
REMARK    6  A    between atoms: C_15  and  O_16
REMARK    7  A    between atoms: O_16  and  C_17
REMARK    8  A    between atoms: N_19  and  C_20
REMARK    9  A    between atoms: N_19  and  C_23
REMARK   10  A    between atoms: C_20  and  C_21
REMARK   11  A    between atoms: C_20  and  C_22
REMARK   12  A    between atoms: C_23  and  C_24
REMARK   13  A    between atoms: C_23  and  C_25
REMARK                            x       y       z     vdW  Elec       q    Type
REMARK                         _______ _______ _______ _____ _____    ______ ____
ROOT
ATOM      1  C   UNL     1       5.536   6.421  17.411  0.00  0.00    +0.000 A 
ATOM      2  C   UNL     1       4.725   7.493  17.815  0.00  0.00    +0.000 A 
ATOM      3  C   UNL     1       3.340   7.329  17.912  0.00  0.00    +0.000 A 
ATOM      4  C   UNL     1       2.768   6.086  17.640  0.00  0.00    +0.000 A 
ATOM      5  C   UNL     1       3.581   5.007  17.279  0.00  0.00    +0.000 A 
ATOM      6  C   UNL     1       4.962   5.167  17.161  0.00  0.00    +0.000 A 
ENDROOT
BRANCH   1   7
ATOM      7  C   UNL     1       7.018   6.563  17.315  0.00  0.00    +0.000 C 
ATOM      8  O   UNL     1       7.735   5.578  17.238  0.00  0.00    +0.000 OA
BRANCH   7  10
ATOM      9  C   UNL     1       8.215   8.419  18.389  0.00  0.00    +0.000 C 
ATOM     10  C   UNL     1       7.566   7.948  17.314  0.00  0.00    +0.000 C 
BRANCH   9  14
ATOM     11  C   UNL     1       9.664  12.438  18.823  0.00  0.00    +0.000 A 
ATOM     12  C   UNL     1      10.069  11.427  19.693  0.00  0.00    +0.000 A 
ATOM     13  C   UNL     1       9.601  10.119  19.528  0.00  0.00    +0.000 A 
ATOM     14  C   UNL     1       8.697   9.806  18.506  0.00  0.00    +0.000 A 
ATOM     15  C   UNL     1       8.300  10.827  17.634  0.00  0.00    +0.000 A 
ATOM     16  C   UNL     1       8.772  12.137  17.796  0.00  0.00    +0.000 A 
BRANCH  11  18
ATOM     17  C   UNL     1       9.702  14.736  18.263  0.00  0.00    +0.000 C 
ATOM     18  O   UNL     1      10.171  13.679  19.094  0.00  0.00    +0.000 OA
ENDBRANCH  11  18
ENDBRANCH   9  14
ENDBRANCH   7  10
ENDBRANCH   1   7
BRANCH   5  19
ATOM     19  O   UNL     1       2.970   3.737  17.175  0.00  0.00    +0.000 OA
BRANCH  19  20
ATOM     20  C   UNL     1       1.901   3.421  18.016  0.00  0.00    +0.000 C 
ATOM     21  O   UNL     1       0.722   3.579  17.718  0.00  0.00    +0.000 OA
ATOM     22  N   UNL     1       2.316   3.066  19.301  0.00  0.00    +0.000 N 
BRANCH  22  23
ATOM     23  C   UNL     1       3.407   2.107  19.580  0.00  0.00    +0.000 C 
ATOM     24  C   UNL     1       3.642   1.149  18.405  0.00  0.00    +0.000 C 
ATOM     25  C   UNL     1       4.725   2.747  20.010  0.00  0.00    +0.000 C 
ENDBRANCH  22  23
BRANCH  22  26
ATOM     26  C   UNL     1       1.553   3.671  20.411  0.00  0.00    +0.000 C 
ATOM     27  C   UNL     1       1.338   2.746  21.595  0.00  0.00    +0.000 C 
ATOM     28  C   UNL     1       2.174   5.006  20.842  0.00  0.00    +0.000 C 
ENDBRANCH  22  26
ENDBRANCH  19  20
ENDBRANCH   5  19
TORSDOF 8
ENDMDL
MODEL 2
REMARK VINA RESULT:      -7.6      1.359      2.070
REMARK  Name = 
REMARK  13 active torsions:
REMARK  status: ('A' for Active; 'I' for Inactive)
REMARK    1  A    between atoms: C_1  and  O_2
REMARK    2  A    between atoms: O_2  and  C_3
REMARK    3  A    between atoms: C_6  and  C_7
REMARK    4  A    between atoms: C_8  and  C_9
REMARK    5  A    between atoms: C_9  and  C_11
REMARK    6  A    between atoms: C_15  and  O_16
REMARK    7  A    between atoms: O_16  and  C_17
REMARK    8  A    between atoms: N_19  and  C_20
REMARK    9  A    between atoms: N_19  and  C_23
REMARK   10  A    between atoms: C_20  and  C_21
REMARK   11  A    between atoms: C_20  and  C_22
REMARK   12  A    between atoms: C_23  and  C_24
REMARK   13  A    between atoms: C_23  and  C_25
REMARK                            x       y       z     vdW  Elec       q    Type
REMARK                         _______ _______ _______ _____ _____    ______ ____
ROOT
ATOM      1  C   UNL     1       6.651   6.127  17.446  0.00  0.00    +0.000 A 
ATOM      2  C   UNL     1       6.921   5.523  16.209  0.00  0.00    +0.000 A 
ATOM      3  C   UNL     1       5.898   4.888  15.498  0.00  0.00    +0.000 A 
ATOM      4  C   UNL     1       4.598   4.888  16.005  0.00  0.00    +0.000 A 
ATOM      5  C   UNL     1       4.322   5.528  17.217  0.00  0.00    +0.000 A 
ATOM      6  C   UNL     1       5.340   6.146  17.943  0.00  0.00    +0.000 A 
ENDROOT
BRANCH   1   7
ATOM      7  C   UNL     1       7.720   6.825  18.218  0.00  0.00    +0.000 C 
ATOM      8  O   UNL     1       8.380   6.226  19.052  0.00  0.00    +0.000 OA
BRANCH   7  10
ATOM      9  C   UNL     1       8.809   8.985  18.644  0.00  0.00    +0.000 C 
ATOM     10  C   UNL     1       7.938   8.267  17.918  0.00  0.00    +0.000 C 
BRANCH   9  14
ATOM     11  C   UNL     1       9.452  13.212  18.241  0.00  0.00    +0.000 A 
ATOM     12  C   UNL     1      10.216  12.445  19.119  0.00  0.00    +0.000 A 
ATOM     13  C   UNL     1      10.006  11.067  19.227  0.00  0.00    +0.000 A 
ATOM     14  C   UNL     1       9.007  10.435  18.477  0.00  0.00    +0.000 A 
ATOM     15  C   UNL     1       8.247  11.211  17.593  0.00  0.00    +0.000 A 
ATOM     16  C   UNL     1       8.461  12.592  17.482  0.00  0.00    +0.000 A 
BRANCH  11  18
ATOM     17  C   UNL     1       9.404  15.258  19.425  0.00  0.00    +0.000 C 
ATOM     18  O   UNL     1       9.734  14.549  18.235  0.00  0.00    +0.000 OA
ENDBRANCH  11  18
ENDBRANCH   9  14
ENDBRANCH   7  10
ENDBRANCH   1   7
BRANCH   5  19
ATOM     19  O   UNL     1       2.966   5.638  17.602  0.00  0.00    +0.000 OA
BRANCH  19  20
ATOM     20  C   UNL     1       2.601   5.340  18.916  0.00  0.00    +0.000 C 
ATOM     21  O   UNL     1       2.529   6.171  19.816  0.00  0.00    +0.000 OA
ATOM     22  N   UNL     1       2.493   3.967  19.145  0.00  0.00    +0.000 N 
BRANCH  22  23
ATOM     23  C   UNL     1       1.764   3.037  18.254  0.00  0.00    +0.000 C 
ATOM     24  C   UNL     1       2.719   2.109  17.492  0.00  0.00    +0.000 C 
ATOM     25  C   UNL     1       0.670   2.221  18.940  0.00  0.00    +0.000 C 
ENDBRANCH  22  23
BRANCH  22  26
ATOM     26  C   UNL     1       3.113   3.473  20.390  0.00  0.00    +0.000 C 
ATOM     27  C   UNL     1       2.123   2.948  21.414  0.00  0.00    +0.000 C 
ATOM     28  C   UNL     1       4.212   2.446  20.088  0.00  0.00    +0.000 C 
ENDBRANCH  22  26
ENDBRANCH  19  20
ENDBRANCH   5  19
TORSDOF 8
ENDMDL
MODEL 3
REMARK VINA RESULT:      -7.5      1.235      2.101
REMARK  Name = 
REMARK  13 active torsions:
REMARK  status: ('A' for Active; 'I' for Inactive)
REMARK    1  A    between atoms: C_1  and  O_2
REMARK    2  A    between atoms: O_2  and  C_3
REMARK    3  A    between atoms: C_6  and  C_7
REMARK    4  A    between atoms: C_8  and  C_9
REMARK    5  A    between atoms: C_9  and  C_11
REMARK    6  A    between atoms: C_15  and  O_16
REMARK    7  A    between atoms: O_16  and  C_17
REMARK    8  A    between atoms: N_19  and  C_20
REMARK    9  A    between atoms: N_19  and  C_23
REMARK   10  A    between atoms: C_20  and  C_21
REMARK   11  A    between atoms: C_20  and  C_22
REMARK   12  A    between atoms: C_23  and  C_24
REMARK   13  A    between atoms: C_23  and  C_25
REMARK                            x       y       z     vdW  Elec       q    Type
REMARK                         _______ _______ _______ _____ _____    ______ ____
ROOT
ATOM      1  C   UNL     1       6.766   5.677  17.359  0.00  0.00    +0.000 A 
ATOM      2  C   UNL     1       6.688   6.019  16.001  0.00  0.00    +0.000 A 
ATOM      3  C   UNL     1       5.857   5.297  15.139  0.00  0.00    +0.000 A 
ATOM      4  C   UNL     1       5.076   4.255  15.643  0.00  0.00    +0.000 A 
ATOM      5  C   UNL     1       5.122   3.943  17.005  0.00  0.00    +0.000 A 
ATOM      6  C   UNL     1       5.963   4.646  17.867  0.00  0.00    +0.000 A 
ENDROOT
BRANCH   1   7
ATOM      7  C   UNL     1       7.633   6.442  18.303  0.00  0.00    +0.000 C 
ATOM      8  O   UNL     1       8.061   5.918  19.319  0.00  0.00    +0.000 OA
BRANCH   7  10
ATOM      9  C   UNL     1       8.655   8.623  18.779  0.00  0.00    +0.000 C 
ATOM     10  C   UNL     1       7.946   7.852  17.941  0.00  0.00    +0.000 C 
BRANCH   9  14
ATOM     11  C   UNL     1       9.356  12.790  18.013  0.00  0.00    +0.000 A 
ATOM     12  C   UNL     1       8.270  12.125  17.448  0.00  0.00    +0.000 A 
ATOM     13  C   UNL     1       8.045  10.771  17.720  0.00  0.00    +0.000 A 
ATOM     14  C   UNL     1       8.920  10.052  18.542  0.00  0.00    +0.000 A 
ATOM     15  C   UNL     1      10.007  10.730  19.111  0.00  0.00    +0.000 A 
ATOM     16  C   UNL     1      10.229  12.087  18.842  0.00  0.00    +0.000 A 
BRANCH  11  18
ATOM     17  C   UNL     1      10.452  14.852  18.389  0.00  0.00    +0.000 C 
ATOM     18  O   UNL     1       9.484  14.105  17.660  0.00  0.00    +0.000 OA
ENDBRANCH  11  18
ENDBRANCH   9  14
ENDBRANCH   7  10
ENDBRANCH   1   7
BRANCH   5  19
ATOM     19  O   UNL     1       4.193   2.993  17.487  0.00  0.00    +0.000 OA
BRANCH  19  20
ATOM     20  C   UNL     1       2.885   3.394  17.764  0.00  0.00    +0.000 C 
ATOM     21  O   UNL     1       1.988   3.443  16.928  0.00  0.00    +0.000 OA
ATOM     22  N   UNL     1       2.741   3.901  19.057  0.00  0.00    +0.000 N 
BRANCH  22  23
ATOM     23  C   UNL     1       3.274   3.237  20.267  0.00  0.00    +0.000 C 
ATOM     24  C   UNL     1       2.160   2.598  21.107  0.00  0.00    +0.000 C 
ATOM     25  C   UNL     1       4.383   2.222  20.002  0.00  0.00    +0.000 C 
ENDBRANCH  22  23
BRANCH  22  26
ATOM     26  C   UNL     1       1.958   5.147  19.174  0.00  0.00    +0.000 C 
ATOM     27  C   UNL     1       1.754   5.622  20.602  0.00  0.00    +0.000 C 
ATOM     28  C   UNL     1       2.546   6.253  18.288  0.00  0.00    +0.000 C 
ENDBRANCH  22  26
ENDBRANCH  19  20
ENDBRANCH   5  19
TORSDOF 8
ENDMDL
MODEL 4
REMARK VINA RESULT:      -7.4      5.639      8.586
REMARK  Name = 
REMARK  13 active torsions:
REMARK  status: ('A' for Active; 'I' for Inactive)
REMARK    1  A    between atoms: C_1  and  O_2
REMARK    2  A    between atoms: O_2  and  C_3
REMARK    3  A    between atoms: C_6  and  C_7
REMARK    4  A    between atoms: C_8  and  C_9
REMARK    5  A    between atoms: C_9  and  C_11
REMARK    6  A    between atoms: C_15  and  O_16
REMARK    7  A    between atoms: O_16  and  C_17
REMARK    8  A    between atoms: N_19  and  C_20
REMARK    9  A    between atoms: N_19  and  C_23
REMARK   10  A    between atoms: C_20  and  C_21
REMARK   11  A    between atoms: C_20  and  C_22
REMARK   12  A    between atoms: C_23  and  C_24
REMARK   13  A    between atoms: C_23  and  C_25
REMARK                            x       y       z     vdW  Elec       q    Type
REMARK                         _______ _______ _______ _____ _____    ______ ____
ROOT
ATOM      1  C   UNL     1       1.433   9.292  19.217  0.00  0.00    +0.000 A 
ATOM      2  C   UNL     1       1.079   8.976  20.537  0.00  0.00    +0.000 A 
ATOM      3  C   UNL     1       1.352   7.706  21.054  0.00  0.00    +0.000 A 
ATOM      4  C   UNL     1       2.011   6.763  20.264  0.00  0.00    +0.000 A 
ATOM      5  C   UNL     1       2.402   7.094  18.963  0.00  0.00    +0.000 A 
ATOM      6  C   UNL     1       2.116   8.352  18.433  0.00  0.00    +0.000 A 
ENDROOT
BRANCH   1   7
ATOM      7  C   UNL     1       1.168  10.645  18.646  0.00  0.00    +0.000 C 
ATOM      8  O   UNL     1       2.082  11.330  18.215  0.00  0.00    +0.000 OA
BRANCH   7  10
ATOM      9  C   UNL     1      -1.147  10.490  17.842  0.00  0.00    +0.000 C 
ATOM     10  C   UNL     1      -0.248  11.105  18.626  0.00  0.00    +0.000 C 
BRANCH   9  14
ATOM     11  C   UNL     1      -5.212  11.832  17.499  0.00  0.00    +0.000 A 
ATOM     12  C   UNL     1      -4.501  11.979  18.689  0.00  0.00    +0.000 A 
ATOM     13  C   UNL     1      -3.172  11.552  18.780  0.00  0.00    +0.000 A 
ATOM     14  C   UNL     1      -2.540  10.945  17.689  0.00  0.00    +0.000 A 
ATOM     15  C   UNL     1      -3.260  10.806  16.495  0.00  0.00    +0.000 A 
ATOM     16  C   UNL     1      -4.590  11.237  16.403  0.00  0.00    +0.000 A 
BRANCH  11  18
ATOM     17  C   UNL     1      -6.733  13.583  17.040  0.00  0.00    +0.000 C 
ATOM     18  O   UNL     1      -6.507  12.268  17.536  0.00  0.00    +0.000 OA
ENDBRANCH  11  18
ENDBRANCH   9  14
ENDBRANCH   7  10
ENDBRANCH   1   7
BRANCH   5  19
ATOM     19  O   UNL     1       3.207   6.163  18.267  0.00  0.00    +0.000 OA
BRANCH  19  20
ATOM     20  C   UNL     1       2.671   4.921  17.921  0.00  0.00    +0.000 C 
ATOM     21  O   UNL     1       1.505   4.743  17.586  0.00  0.00    +0.000 OA
ATOM     22  N   UNL     1       3.557   3.868  18.160  0.00  0.00    +0.000 N 
BRANCH  22  23
ATOM     23  C   UNL     1       4.979   3.877  17.748  0.00  0.00    +0.000 C 
ATOM     24  C   UNL     1       5.153   4.371  16.306  0.00  0.00    +0.000 C 
ATOM     25  C   UNL     1       5.910   4.644  18.684  0.00  0.00    +0.000 C 
ENDBRANCH  22  23
BRANCH  22  26
ATOM     26  C   UNL     1       2.980   2.680  18.818  0.00  0.00    +0.000 C 
ATOM     27  C   UNL     1       3.665   1.374  18.457  0.00  0.00    +0.000 C 
ATOM     28  C   UNL     1       2.901   2.876  20.337  0.00  0.00    +0.000 C 
ENDBRANCH  22  26
ENDBRANCH  19  20
ENDBRANCH   5  19
TORSDOF 8
ENDMDL
MODEL 5
REMARK VINA RESULT:      -7.4      1.298      1.806
REMARK  Name = 
REMARK  13 active torsions:
REMARK  status: ('A' for Active; 'I' for Inactive)
REMARK    1  A    between atoms: C_1  and  O_2
REMARK    2  A    between atoms: O_2  and  C_3
REMARK    3  A    between atoms: C_6  and  C_7
REMARK    4  A    between atoms: C_8  and  C_9
REMARK    5  A    between atoms: C_9  and  C_11
REMARK    6  A    between atoms: C_15  and  O_16
REMARK    7  A    between atoms: O_16  and  C_17
REMARK    8  A    between atoms: N_19  and  C_20
REMARK    9  A    between atoms: N_19  and  C_23
REMARK   10  A    between atoms: C_20  and  C_21
REMARK   11  A    between atoms: C_20  and  C_22
REMARK   12  A    between atoms: C_23  and  C_24
REMARK   13  A    between atoms: C_23  and  C_25
REMARK                            x       y       z     vdW  Elec       q    Type
REMARK                         _______ _______ _______ _____ _____    ______ ____
ROOT
ATOM      1  C   UNL     1       6.777   5.575  17.237  0.00  0.00    +0.000 A 
ATOM      2  C   UNL     1       6.879   5.804  15.857  0.00  0.00    +0.000 A 
ATOM      3  C   UNL     1       6.084   5.080  14.964  0.00  0.00    +0.000 A 
ATOM      4  C   UNL     1       5.161   4.153  15.451  0.00  0.00    +0.000 A 
ATOM      5  C   UNL     1       5.030   3.957  16.829  0.00  0.00    +0.000 A 
ATOM      6  C   UNL     1       5.833   4.661  17.726  0.00  0.00    +0.000 A 
ENDROOT
BRANCH   1   7
ATOM      7  C   UNL     1       7.602   6.345  18.214  0.00  0.00    +0.000 C 
ATOM      8  O   UNL     1       8.053   5.805  19.212  0.00  0.00    +0.000 OA
BRANCH   7  10
ATOM      9  C   UNL     1       8.622   8.522  18.713  0.00  0.00    +0.000 C 
ATOM     10  C   UNL     1       7.845   7.782  17.908  0.00  0.00    +0.000 C 
BRANCH   9  14
ATOM     11  C   UNL     1       9.292  12.742  18.286  0.00  0.00    +0.000 A 
ATOM     12  C   UNL     1      10.032  11.981  19.189  0.00  0.00    +0.000 A 
ATOM     13  C   UNL     1       9.814  10.604  19.305  0.00  0.00    +0.000 A 
ATOM     14  C   UNL     1       8.831   9.969  18.538  0.00  0.00    +0.000 A 
ATOM     15  C   UNL     1       8.095  10.741  17.629  0.00  0.00    +0.000 A 
ATOM     16  C   UNL     1       8.317  12.120  17.510  0.00  0.00    +0.000 A 
BRANCH  11  18
ATOM     17  C   UNL     1       9.729  14.692  19.552  0.00  0.00    +0.000 C 
ATOM     18  O   UNL     1       9.580  14.079  18.275  0.00  0.00    +0.000 OA
ENDBRANCH  11  18
ENDBRANCH   9  14
ENDBRANCH   7  10
ENDBRANCH   1   7
BRANCH   5  19
ATOM     19  O   UNL     1       3.972   3.131  17.272  0.00  0.00    +0.000 OA
BRANCH  19  20
ATOM     20  C   UNL     1       2.747   3.711  17.609  0.00  0.00    +0.000 C 
ATOM     21  O   UNL     1       1.949   4.158  16.792  0.00  0.00    +0.000 OA
ATOM     22  N   UNL     1       2.596   3.886  18.986  0.00  0.00    +0.000 N 
BRANCH  22  23
ATOM     23  C   UNL     1       2.890   2.836  19.988  0.00  0.00    +0.000 C 
ATOM     24  C   UNL     1       2.106   1.547  19.711  0.00  0.00    +0.000 C 
ATOM     25  C   UNL     1       4.374   2.524  20.169  0.00  0.00    +0.000 C 
ENDBRANCH  22  23
BRANCH  22  26
ATOM     26  C   UNL     1       2.061   5.193  19.412  0.00  0.00    +0.000 C 
ATOM     27  C   UNL     1       1.505   5.208  20.825  0.00  0.00    +0.000 C 
ATOM     28  C   UNL     1       3.094   6.308  19.199  0.00  0.00    +0.000 C 
ENDBRANCH  22  26
ENDBRANCH  19  20
ENDBRANCH   5  19
TORSDOF 8
ENDMDL
MODEL 6
REMARK VINA RESULT:      -7.1      1.436      2.513
REMARK  Name = 
REMARK  13 active torsions:
REMARK  status: ('A' for Active; 'I' for Inactive)
REMARK    1  A    between atoms: C_1  and  O_2
REMARK    2  A    between atoms: O_2  and  C_3
REMARK    3  A    between atoms: C_6  and  C_7
REMARK    4  A    between atoms: C_8  and  C_9
REMARK    5  A    between atoms: C_9  and  C_11
REMARK    6  A    between atoms: C_15  and  O_16
REMARK    7  A    between atoms: O_16  and  C_17
REMARK    8  A    between atoms: N_19  and  C_20
REMARK    9  A    between atoms: N_19  and  C_23
REMARK   10  A    between atoms: C_20  and  C_21
REMARK   11  A    between atoms: C_20  and  C_22
REMARK   12  A    between atoms: C_23  and  C_24
REMARK   13  A    between atoms: C_23  and  C_25
REMARK                            x       y       z     vdW  Elec       q    Type
REMARK                         _______ _______ _______ _____ _____    ______ ____
ROOT
ATOM      1  C   UNL     1       5.657   6.886  17.625  0.00  0.00    +0.000 A 
ATOM      2  C   UNL     1       4.558   7.657  17.218  0.00  0.00    +0.000 A 
ATOM      3  C   UNL     1       3.282   7.384  17.721  0.00  0.00    +0.000 A 
ATOM      4  C   UNL     1       3.111   6.363  18.657  0.00  0.00    +0.000 A 
ATOM      5  C   UNL     1       4.214   5.624  19.094  0.00  0.00    +0.000 A 
ATOM      6  C   UNL     1       5.487   5.878  18.583  0.00  0.00    +0.000 A 
ENDROOT
BRANCH   1   7
ATOM      7  C   UNL     1       7.032   7.167  17.117  0.00  0.00    +0.000 C 
ATOM      8  O   UNL     1       7.663   6.310  16.518  0.00  0.00    +0.000 OA
BRANCH   7  10
ATOM      9  C   UNL     1       8.440   8.731  18.382  0.00  0.00    +0.000 C 
ATOM     10  C   UNL     1       7.582   8.527  17.371  0.00  0.00    +0.000 C 
BRANCH   9  14
ATOM     11  C   UNL     1       9.917  12.636  19.389  0.00  0.00    +0.000 A 
ATOM     12  C   UNL     1       9.360  12.375  18.138  0.00  0.00    +0.000 A 
ATOM     13  C   UNL     1       8.868  11.102  17.831  0.00  0.00    +0.000 A 
ATOM     14  C   UNL     1       8.950  10.059  18.762  0.00  0.00    +0.000 A 
ATOM     15  C   UNL     1       9.507  10.332  20.018  0.00  0.00    +0.000 A 
ATOM     16  C   UNL     1       9.996  11.609  20.327  0.00  0.00    +0.000 A 
BRANCH  11  18
ATOM     17  C   UNL     1       9.455  14.835  20.126  0.00  0.00    +0.000 C 
ATOM     18  O   UNL     1      10.381  13.909  19.567  0.00  0.00    +0.000 OA
ENDBRANCH  11  18
ENDBRANCH   9  14
ENDBRANCH   7  10
ENDBRANCH   1   7
BRANCH   5  19
ATOM     19  O   UNL     1       4.010   4.717  20.159  0.00  0.00    +0.000 OA
BRANCH  19  20
ATOM     20  C   UNL     1       4.037   3.345  19.904  0.00  0.00    +0.000 C 
ATOM     21  O   UNL     1       5.040   2.646  20.003  0.00  0.00    +0.000 OA
ATOM     22  N   UNL     1       2.841   2.876  19.356  0.00  0.00    +0.000 N 
BRANCH  22  23
ATOM     23  C   UNL     1       1.502   3.208  19.892  0.00  0.00    +0.000 C 
ATOM     24  C   UNL     1       0.379   2.608  19.038  0.00  0.00    +0.000 C 
ATOM     25  C   UNL     1       1.297   2.849  21.362  0.00  0.00    +0.000 C 
ENDBRANCH  22  23
BRANCH  22  26
ATOM     26  C   UNL     1       2.977   1.959  18.208  0.00  0.00    +0.000 C 
ATOM     27  C   UNL     1       3.332   2.645  16.901  0.00  0.00    +0.000 C 
ATOM     28  C   UNL     1       3.949   0.816  18.529  0.00  0.00    +0.000 C 
ENDBRANCH  22  26
ENDBRANCH  19  20
ENDBRANCH   5  19
TORSDOF 8
ENDMDL
MODEL 7
REMARK VINA RESULT:      -7.1      4.997      8.310
REMARK  Name = 
REMARK  13 active torsions:
REMARK  status: ('A' for Active; 'I' for Inactive)
REMARK    1  A    between atoms: C_1  and  O_2
REMARK    2  A    between atoms: O_2  and  C_3
REMARK    3  A    between atoms: C_6  and  C_7
REMARK    4  A    between atoms: C_8  and  C_9
REMARK    5  A    between atoms: C_9  and  C_11
REMARK    6  A    between atoms: C_15  and  O_16
REMARK    7  A    between atoms: O_16  and  C_17
REMARK    8  A    between atoms: N_19  and  C_20
REMARK    9  A    between atoms: N_19  and  C_23
REMARK   10  A    between atoms: C_20  and  C_21
REMARK   11  A    between atoms: C_20  and  C_22
REMARK   12  A    between atoms: C_23  and  C_24
REMARK   13  A    between atoms: C_23  and  C_25
REMARK                            x       y       z     vdW  Elec       q    Type
REMARK                         _______ _______ _______ _____ _____    ______ ____
ROOT
ATOM      1  C   UNL     1       1.969   7.611  18.728  0.00  0.00    +0.000 A 
ATOM      2  C   UNL     1       2.030   7.353  20.106  0.00  0.00    +0.000 A 
ATOM      3  C   UNL     1       2.240   6.051  20.569  0.00  0.00    +0.000 A 
ATOM      4  C   UNL     1       2.426   5.012  19.655  0.00  0.00    +0.000 A 
ATOM      5  C   UNL     1       2.408   5.278  18.283  0.00  0.00    +0.000 A 
ATOM      6  C   UNL     1       2.180   6.571  17.812  0.00  0.00    +0.000 A 
ENDROOT
BRANCH   1   7
ATOM      7  C   UNL     1       1.763   8.994  18.207  0.00  0.00    +0.000 C 
ATOM      8  O   UNL     1       2.637   9.555  17.564  0.00  0.00    +0.000 OA
BRANCH   7  10
ATOM      9  C   UNL     1      -0.546   9.580  17.611  0.00  0.00    +0.000 C 
ATOM     10  C   UNL     1       0.454   9.640  18.503  0.00  0.00    +0.000 C 
BRANCH   9  14
ATOM     11  C   UNL     1      -4.259  11.658  18.195  0.00  0.00    +0.000 A 
ATOM     12  C   UNL     1      -3.106  12.030  18.885  0.00  0.00    +0.000 A 
ATOM     13  C   UNL     1      -1.900  11.354  18.671  0.00  0.00    +0.000 A 
ATOM     14  C   UNL     1      -1.833  10.275  17.783  0.00  0.00    +0.000 A 
ATOM     15  C   UNL     1      -2.995   9.910  17.090  0.00  0.00    +0.000 A 
ATOM     16  C   UNL     1      -4.202  10.590  17.301  0.00  0.00    +0.000 A 
BRANCH  11  18
ATOM     17  C   UNL     1      -6.620  11.702  18.317  0.00  0.00    +0.000 C 
ATOM     18  O   UNL     1      -5.380  12.377  18.501  0.00  0.00    +0.000 OA
ENDBRANCH  11  18
ENDBRANCH   9  14
ENDBRANCH   7  10
ENDBRANCH   1   7
BRANCH   5  19
ATOM     19  O   UNL     1       2.763   4.224  17.410  0.00  0.00    +0.000 OA
BRANCH  19  20
ATOM     20  C   UNL     1       3.993   3.584  17.575  0.00  0.00    +0.000 C 
ATOM     21  O   UNL     1       4.139   2.510  18.150  0.00  0.00    +0.000 OA
ATOM     22  N   UNL     1       5.069   4.375  17.167  0.00  0.00    +0.000 N 
BRANCH  22  23
ATOM     23  C   UNL     1       5.111   5.111  15.883  0.00  0.00    +0.000 C 
ATOM     24  C   UNL     1       5.336   6.614  16.093  0.00  0.00    +0.000 C 
ATOM     25  C   UNL     1       6.112   4.564  14.868  0.00  0.00    +0.000 C 
ENDBRANCH  22  23
BRANCH  22  26
ATOM     26  C   UNL     1       6.227   4.404  18.081  0.00  0.00    +0.000 C 
ATOM     27  C   UNL     1       7.566   4.557  17.384  0.00  0.00    +0.000 C 
ATOM     28  C   UNL     1       6.036   5.459  19.178  0.00  0.00    +0.000 C 
ENDBRANCH  22  26
ENDBRANCH  19  20
ENDBRANCH   5  19
TORSDOF 8
ENDMDL
MODEL 8
REMARK VINA RESULT:      -7.0      1.360      2.360
REMARK  Name = 
REMARK  13 active torsions:
REMARK  status: ('A' for Active; 'I' for Inactive)
REMARK    1  A    between atoms: C_1  and  O_2
REMARK    2  A    between atoms: O_2  and  C_3
REMARK    3  A    between atoms: C_6  and  C_7
REMARK    4  A    between atoms: C_8  and  C_9
REMARK    5  A    between atoms: C_9  and  C_11
REMARK    6  A    between atoms: C_15  and  O_16
REMARK    7  A    between atoms: O_16  and  C_17
REMARK    8  A    between atoms: N_19  and  C_20
REMARK    9  A    between atoms: N_19  and  C_23
REMARK   10  A    between atoms: C_20  and  C_21
REMARK   11  A    between atoms: C_20  and  C_22
REMARK   12  A    between atoms: C_23  and  C_24
REMARK   13  A    between atoms: C_23  and  C_25
REMARK                            x       y       z     vdW  Elec       q    Type
REMARK                         _______ _______ _______ _____ _____    ______ ____
ROOT
ATOM      1  C   UNL     1       5.744   6.649  17.653  0.00  0.00    +0.000 A 
ATOM      2  C   UNL     1       4.727   7.507  17.208  0.00  0.00    +0.000 A 
ATOM      3  C   UNL     1       3.417   7.344  17.667  0.00  0.00    +0.000 A 
ATOM      4  C   UNL     1       3.129   6.347  18.600  0.00  0.00    +0.000 A 
ATOM      5  C   UNL     1       4.151   5.520  19.076  0.00  0.00    +0.000 A 
ATOM      6  C   UNL     1       5.457   5.664  18.608  0.00  0.00    +0.000 A 
ENDROOT
BRANCH   1   7
ATOM      7  C   UNL     1       7.153   6.812  17.192  0.00  0.00    +0.000 C 
ATOM      8  O   UNL     1       7.782   5.859  16.758  0.00  0.00    +0.000 OA
BRANCH   7  10
ATOM      9  C   UNL     1       8.295   8.600  18.429  0.00  0.00    +0.000 C 
ATOM     10  C   UNL     1       7.741   8.177  17.282  0.00  0.00    +0.000 C 
BRANCH   9  14
ATOM     11  C   UNL     1       9.812  12.558  19.115  0.00  0.00    +0.000 A 
ATOM     12  C   UNL     1      10.033  11.531  20.031  0.00  0.00    +0.000 A 
ATOM     13  C   UNL     1       9.547  10.243  19.786  0.00  0.00    +0.000 A 
ATOM     14  C   UNL     1       8.806   9.966  18.630  0.00  0.00    +0.000 A 
ATOM     15  C   UNL     1       8.592  11.003  17.713  0.00  0.00    +0.000 A 
ATOM     16  C   UNL     1       9.083  12.293  17.957  0.00  0.00    +0.000 A 
BRANCH  11  18
ATOM     17  C   UNL     1      11.720  13.943  19.297  0.00  0.00    +0.000 C 
ATOM     18  O   UNL     1      10.317  13.778  19.472  0.00  0.00    +0.000 OA
ENDBRANCH  11  18
ENDBRANCH   9  14
ENDBRANCH   7  10
ENDBRANCH   1   7
BRANCH   5  19
ATOM     19  O   UNL     1       3.836   4.639  20.136  0.00  0.00    +0.000 OA
BRANCH  19  20
ATOM     20  C   UNL     1       3.974   3.263  19.945  0.00  0.00    +0.000 C 
ATOM     21  O   UNL     1       5.052   2.681  19.884  0.00  0.00    +0.000 OA
ATOM     22  N   UNL     1       2.760   2.636  19.658  0.00  0.00    +0.000 N 
BRANCH  22  23
ATOM     23  C   UNL     1       1.513   2.863  20.424  0.00  0.00    +0.000 C 
ATOM     24  C   UNL     1       1.733   2.706  21.934  0.00  0.00    +0.000 C 
ATOM     25  C   UNL     1       0.814   4.187  20.126  0.00  0.00    +0.000 C 
ENDBRANCH  22  23
BRANCH  22  26
ATOM     26  C   UNL     1       2.787   1.662  18.550  0.00  0.00    +0.000 C 
ATOM     27  C   UNL     1       2.654   2.283  17.171  0.00  0.00    +0.000 C 
ATOM     28  C   UNL     1       4.019   0.754  18.645  0.00  0.00    +0.000 C 
ENDBRANCH  22  26
ENDBRANCH  19  20
ENDBRANCH   5  19
TORSDOF 8
ENDMDL
MODEL 9
REMARK VINA RESULT:      -7.0      4.372      5.707
REMARK  Name = 
REMARK  13 active torsions:
REMARK  status: ('A' for Active; 'I' for Inactive)
REMARK    1  A    between atoms: C_1  and  O_2
REMARK    2  A    between atoms: O_2  and  C_3
REMARK    3  A    between atoms: C_6  and  C_7
REMARK    4  A    between atoms: C_8  and  C_9
REMARK    5  A    between atoms: C_9  and  C_11
REMARK    6  A    between atoms: C_15  and  O_16
REMARK    7  A    between atoms: O_16  and  C_17
REMARK    8  A    between atoms: N_19  and  C_20
REMARK    9  A    between atoms: N_19  and  C_23
REMARK   10  A    between atoms: C_20  and  C_21
REMARK   11  A    between atoms: C_20  and  C_22
REMARK   12  A    between atoms: C_23  and  C_24
REMARK   13  A    between atoms: C_23  and  C_25
REMARK                            x       y       z     vdW  Elec       q    Type
REMARK                         _______ _______ _______ _____ _____    ______ ____
ROOT
ATOM      1  C   UNL     1       1.417   9.092  19.143  0.00  0.00    +0.000 A 
ATOM      2  C   UNL     1       1.852   9.077  17.810  0.00  0.00    +0.000 A 
ATOM      3  C   UNL     1       2.640   8.021  17.339  0.00  0.00    +0.000 A 
ATOM      4  C   UNL     1       2.963   6.964  18.190  0.00  0.00    +0.000 A 
ATOM      5  C   UNL     1       2.492   6.959  19.507  0.00  0.00    +0.000 A 
ATOM      6  C   UNL     1       1.722   8.017  19.990  0.00  0.00    +0.000 A 
ENDROOT
BRANCH   1   7
ATOM      7  C   UNL     1       0.562  10.197  19.667  0.00  0.00    +0.000 C 
ATOM      8  O   UNL     1      -0.596   9.988  19.994  0.00  0.00    +0.000 OA
BRANCH   7  10
ATOM      9  C   UNL     1       1.209  12.365  18.713  0.00  0.00    +0.000 C 
ATOM     10  C   UNL     1       1.189  11.544  19.773  0.00  0.00    +0.000 C 
BRANCH   9  14
ATOM     11  C   UNL     1       3.299  16.116  18.674  0.00  0.00    +0.000 A 
ATOM     12  C   UNL     1       3.925  14.937  18.275  0.00  0.00    +0.000 A 
ATOM     13  C   UNL     1       3.226  13.725  18.277  0.00  0.00    +0.000 A 
ATOM     14  C   UNL     1       1.895  13.668  18.706  0.00  0.00    +0.000 A 
ATOM     15  C   UNL     1       1.272  14.860  19.101  0.00  0.00    +0.000 A 
ATOM     16  C   UNL     1       1.971  16.074  19.094  0.00  0.00    +0.000 A 
BRANCH  11  18
ATOM     17  C   UNL     1       5.471  17.022  18.908  0.00  0.00    +0.000 C 
ATOM     18  O   UNL     1       4.087  17.233  18.649  0.00  0.00    +0.000 OA
ENDBRANCH  11  18
ENDBRANCH   9  14
ENDBRANCH   7  10
ENDBRANCH   1   7
BRANCH   5  19
ATOM     19  O   UNL     1       2.710   5.791  20.272  0.00  0.00    +0.000 OA
BRANCH  19  20
ATOM     20  C   UNL     1       3.631   4.842  19.825  0.00  0.00    +0.000 C 
ATOM     21  O   UNL     1       4.820   5.074  19.629  0.00  0.00    +0.000 OA
ATOM     22  N   UNL     1       3.026   3.639  19.456  0.00  0.00    +0.000 N 
BRANCH  22  23
ATOM     23  C   UNL     1       2.019   2.935  20.281  0.00  0.00    +0.000 C 
ATOM     24  C   UNL     1       2.425   2.885  21.760  0.00  0.00    +0.000 C 
ATOM     25  C   UNL     1       0.595   3.470  20.143  0.00  0.00    +0.000 C 
ENDBRANCH  22  23
BRANCH  22  26
ATOM     26  C   UNL     1       3.491   3.049  18.185  0.00  0.00    +0.000 C 
ATOM     27  C   UNL     1       3.661   1.541  18.224  0.00  0.00    +0.000 C 
ATOM     28  C   UNL     1       2.601   3.489  17.016  0.00  0.00    +0.000 C 
ENDBRANCH  22  26
ENDBRANCH  19  20
ENDBRANCH   5  19
TORSDOF 8
ENDMDL
