MODEL 1
REMARK VINA RESULT:      -8.5      0.000      0.000
REMARK  Name = 
REMARK  3 active torsions:
REMARK  status: ('A' for Active; 'I' for Inactive)
REMARK    1  A    between atoms: C_5  and  C_6
REMARK    2  A    between atoms: C_9  and  N_10
REMARK    3  A    between atoms: C_15  and  N_16
REMARK                            x       y       z     vdW  Elec       q    Type
REMARK                         _______ _______ _______ _____ _____    ______ ____
ROOT
ATOM      1  C   UNL     1       2.469   7.742  18.401  0.00  0.00    +0.000 A 
ATOM      2  C   UNL     1       2.026   8.767  17.574  0.00  0.00    +0.000 A 
ATOM      3  C   UNL     1       1.325   9.850  18.109  0.00  0.00    +0.000 A 
ATOM      4  C   UNL     1       0.928   9.923  19.462  0.00  0.00    +0.000 A 
ATOM      5  C   UNL     1       1.271   8.798  20.235  0.00  0.00    +0.000 A 
ATOM      6  C   UNL     1       2.041   7.726  19.729  0.00  0.00    +0.000 A 
ENDROOT
BRANCH   1  11
ATOM      7  O   UNL     1       5.973   3.935  16.495  0.00  0.00    +0.000 OA
ATOM      8  C   UNL     1       5.148   4.730  16.933  0.00  0.00    +0.000 A 
ATOM      9  N   UNL     1       5.384   6.077  16.990  0.00  0.00    +0.000 N 
ATOM     10  N   UNL     1       4.529   7.019  17.462  0.00  0.00    +0.000 NA
ATOM     11  C   UNL     1       3.363   6.649  17.906  0.00  0.00    +0.000 A 
ATOM     12  C   UNL     1       2.924   5.217  17.897  0.00  0.00    +0.000 A 
ATOM     13  C   UNL     1       1.657   4.766  18.295  0.00  0.00    +0.000 A 
ATOM     14  C   UNL     1       1.353   3.400  18.315  0.00  0.00    +0.000 A 
ATOM     15  C   UNL     1       2.288   2.471  17.870  0.00  0.00    +0.000 A 
ATOM     16  C   UNL     1       3.527   2.908  17.410  0.00  0.00    +0.000 A 
ATOM     17  C   UNL     1       3.844   4.277  17.433  0.00  0.00    +0.000 A 
ATOM     18  H   UNL     1       6.283   6.403  16.654  0.00  0.00    +0.000 HD
ENDBRANCH   1  11
BRANCH   4  19
ATOM     19  N   UNL     1       0.267  11.068  19.857  0.00  0.00    +0.000 N 
ATOM     20  C   UNL     1       0.692  12.073  20.829  0.00  0.00    +0.000 C 
ATOM     21  C   UNL     1      -0.575  12.354  21.629  0.00  0.00    +0.000 C 
ATOM     22  C   UNL     1      -1.670  12.245  20.583  0.00  0.00    +0.000 C 
ATOM     23  C   UNL     1      -1.192  11.124  19.667  0.00  0.00    +0.000 C 
ENDBRANCH   4  19
BRANCH   5  24
ATOM     24  N   UNL     1       0.758   8.608  21.577  0.00  0.00    +0.000 N 
ATOM     25  O   UNL     1       1.481   8.950  22.524  0.00  0.00    +0.000 OA
ATOM     26  O   UNL     1      -0.394   8.163  21.680  0.00  0.00    +0.000 OA
ENDBRANCH   5  24
TORSDOF 3
ENDMDL
MODEL 2
REMARK VINA RESULT:      -8.4      0.514      1.147
REMARK  Name = 
REMARK  3 active torsions:
REMARK  status: ('A' for Active; 'I' for Inactive)
REMARK    1  A    between atoms: C_5  and  C_6
REMARK    2  A    between atoms: C_9  and  N_10
REMARK    3  A    between atoms: C_15  and  N_16
REMARK                            x       y       z     vdW  Elec       q    Type
REMARK                         _______ _______ _______ _____ _____    ______ ____
ROOT
ATOM      1  C   UNL     1       2.446   7.759  18.420  0.00  0.00    +0.000 A 
ATOM      2  C   UNL     1       1.970   8.746  17.566  0.00  0.00    +0.000 A 
ATOM      3  C   UNL     1       1.232   9.819  18.073  0.00  0.00    +0.000 A 
ATOM      4  C   UNL     1       0.832   9.914  19.424  0.00  0.00    +0.000 A 
ATOM      5  C   UNL     1       1.212   8.822  20.226  0.00  0.00    +0.000 A 
ATOM      6  C   UNL     1       2.018   7.763  19.748  0.00  0.00    +0.000 A 
ENDROOT
BRANCH   1  11
ATOM      7  O   UNL     1       6.084   4.022  16.630  0.00  0.00    +0.000 OA
ATOM      8  C   UNL     1       5.230   4.800  17.039  0.00  0.00    +0.000 A 
ATOM      9  N   UNL     1       5.443   6.150  17.121  0.00  0.00    +0.000 N 
ATOM     10  N   UNL     1       4.555   7.075  17.565  0.00  0.00    +0.000 NA
ATOM     11  C   UNL     1       3.377   6.684  17.953  0.00  0.00    +0.000 A 
ATOM     12  C   UNL     1       2.959   5.246  17.910  0.00  0.00    +0.000 A 
ATOM     13  C   UNL     1       1.682   4.773  18.247  0.00  0.00    +0.000 A 
ATOM     14  C   UNL     1       1.397   3.403  18.240  0.00  0.00    +0.000 A 
ATOM     15  C   UNL     1       2.364   2.492  17.826  0.00  0.00    +0.000 A 
ATOM     16  C   UNL     1       3.615   2.951  17.426  0.00  0.00    +0.000 A 
ATOM     17  C   UNL     1       3.912   4.324  17.477  0.00  0.00    +0.000 A 
ATOM     18  H   UNL     1       6.352   6.493  16.828  0.00  0.00    +0.000 HD
ENDBRANCH   1  11
BRANCH   4  19
ATOM     19  N   UNL     1       0.133  11.046  19.789  0.00  0.00    +0.000 N 
ATOM     20  C   UNL     1      -1.125  11.552  19.244  0.00  0.00    +0.000 C 
ATOM     21  C   UNL     1      -0.880  13.050  19.108  0.00  0.00    +0.000 C 
ATOM     22  C   UNL     1      -0.011  13.363  20.313  0.00  0.00    +0.000 C 
ATOM     23  C   UNL     1       0.871  12.128  20.460  0.00  0.00    +0.000 C 
ENDBRANCH   4  19
BRANCH   5  24
ATOM     24  N   UNL     1       0.705   8.650  21.573  0.00  0.00    +0.000 N 
ATOM     25  O   UNL     1      -0.426   8.160  21.705  0.00  0.00    +0.000 OA
ATOM     26  O   UNL     1       1.465   8.960  22.502  0.00  0.00    +0.000 OA
ENDBRANCH   5  24
TORSDOF 3
ENDMDL
MODEL 3
REMARK VINA RESULT:      -8.1      1.665      1.941
REMARK  Name = 
REMARK  3 active torsions:
REMARK  status: ('A' for Active; 'I' for Inactive)
REMARK    1  A    between atoms: C_5  and  C_6
REMARK    2  A    between atoms: C_9  and  N_10
REMARK    3  A    between atoms: C_15  and  N_16
REMARK                            x       y       z     vdW  Elec       q    Type
REMARK                         _______ _______ _______ _____ _____    ______ ____
ROOT
ATOM      1  C   UNL     1       2.247   7.547  19.207  0.00  0.00    +0.000 A 
ATOM      2  C   UNL     1       1.947   8.292  18.073  0.00  0.00    +0.000 A 
ATOM      3  C   UNL     1       1.268   9.507  18.188  0.00  0.00    +0.000 A 
ATOM      4  C   UNL     1       0.754   9.994  19.410  0.00  0.00    +0.000 A 
ATOM      5  C   UNL     1       0.954   9.141  20.511  0.00  0.00    +0.000 A 
ATOM      6  C   UNL     1       1.699   7.942  20.428  0.00  0.00    +0.000 A 
ENDROOT
BRANCH   1  11
ATOM      7  O   UNL     1       5.643   3.219  18.834  0.00  0.00    +0.000 OA
ATOM      8  C   UNL     1       4.843   4.141  18.953  0.00  0.00    +0.000 A 
ATOM      9  N   UNL     1       5.082   5.391  18.449  0.00  0.00    +0.000 N 
ATOM     10  N   UNL     1       4.254   6.461  18.541  0.00  0.00    +0.000 NA
ATOM     11  C   UNL     1       3.114   6.328  19.153  0.00  0.00    +0.000 A 
ATOM     12  C   UNL     1       2.674   5.024  19.745  0.00  0.00    +0.000 A 
ATOM     13  C   UNL     1       1.430   4.800  20.353  0.00  0.00    +0.000 A 
ATOM     14  C   UNL     1       1.127   3.566  20.939  0.00  0.00    +0.000 A 
ATOM     15  C   UNL     1       2.037   2.516  20.862  0.00  0.00    +0.000 A 
ATOM     16  C   UNL     1       3.250   2.703  20.205  0.00  0.00    +0.000 A 
ATOM     17  C   UNL     1       3.568   3.957  19.657  0.00  0.00    +0.000 A 
ATOM     18  H   UNL     1       5.962   5.534  17.966  0.00  0.00    +0.000 HD
ENDBRANCH   1  11
BRANCH   4  19
ATOM     19  N   UNL     1       0.132  11.225  19.378  0.00  0.00    +0.000 N 
ATOM     20  C   UNL     1      -1.104  11.601  18.694  0.00  0.00    +0.000 C 
ATOM     21  C   UNL     1      -0.771  12.951  18.070  0.00  0.00    +0.000 C 
ATOM     22  C   UNL     1       0.140  13.589  19.105  0.00  0.00    +0.000 C 
ATOM     23  C   UNL     1       0.948  12.419  19.654  0.00  0.00    +0.000 C 
ENDBRANCH   4  19
BRANCH   5  24
ATOM     24  N   UNL     1       0.309   9.377  21.788  0.00  0.00    +0.000 N 
ATOM     25  O   UNL     1       0.762  10.282  22.503  0.00  0.00    +0.000 OA
ATOM     26  O   UNL     1      -0.687   8.687  22.050  0.00  0.00    +0.000 OA
ENDBRANCH   5  24
TORSDOF 3
ENDMDL
MODEL 4
REMARK VINA RESULT:      -8.1      1.581      1.740
REMARK  Name = 
REMARK  3 active torsions:
REMARK  status: ('A' for Active; 'I' for Inactive)
REMARK    1  A    between atoms: C_5  and  C_6
REMARK    2  A    between atoms: C_9  and  N_10
REMARK    3  A    between atoms: C_15  and  N_16
REMARK                            x       y       z     vdW  Elec       q    Type
REMARK                         _______ _______ _______ _____ _____    ______ ____
ROOT
ATOM      1  C   UNL     1       2.224   7.561  19.146  0.00  0.00    +0.000 A 
ATOM      2  C   UNL     1       1.872   8.232  17.981  0.00  0.00    +0.000 A 
ATOM      3  C   UNL     1       1.163   9.433  18.047  0.00  0.00    +0.000 A 
ATOM      4  C   UNL     1       0.668   9.975  19.253  0.00  0.00    +0.000 A 
ATOM      5  C   UNL     1       0.921   9.192  20.394  0.00  0.00    +0.000 A 
ATOM      6  C   UNL     1       1.697   8.011  20.357  0.00  0.00    +0.000 A 
ENDROOT
BRANCH   1  11
ATOM      7  O   UNL     1       5.738   3.318  18.938  0.00  0.00    +0.000 OA
ATOM      8  C   UNL     1       4.912   4.220  19.020  0.00  0.00    +0.000 A 
ATOM      9  N   UNL     1       5.130   5.466  18.497  0.00  0.00    +0.000 N 
ATOM     10  N   UNL     1       4.273   6.516  18.549  0.00  0.00    +0.000 NA
ATOM     11  C   UNL     1       3.122   6.365  19.137  0.00  0.00    +0.000 A 
ATOM     12  C   UNL     1       2.703   5.062  19.744  0.00  0.00    +0.000 A 
ATOM     13  C   UNL     1       1.451   4.816  20.327  0.00  0.00    +0.000 A 
ATOM     14  C   UNL     1       1.166   3.586  20.929  0.00  0.00    +0.000 A 
ATOM     15  C   UNL     1       2.105   2.559  20.895  0.00  0.00    +0.000 A 
ATOM     16  C   UNL     1       3.327   2.765  20.262  0.00  0.00    +0.000 A 
ATOM     17  C   UNL     1       3.626   4.017  19.698  0.00  0.00    +0.000 A 
ATOM     18  H   UNL     1       6.018   5.624  18.032  0.00  0.00    +0.000 HD
ENDBRANCH   1  11
BRANCH   4  19
ATOM     19  N   UNL     1       0.011  11.185  19.169  0.00  0.00    +0.000 N 
ATOM     20  C   UNL     1       0.497  12.511  19.546  0.00  0.00    +0.000 C 
ATOM     21  C   UNL     1      -0.690  13.135  20.269  0.00  0.00    +0.000 C 
ATOM     22  C   UNL     1      -1.882  12.589  19.503  0.00  0.00    +0.000 C 
ATOM     23  C   UNL     1      -1.461  11.172  19.132  0.00  0.00    +0.000 C 
ENDBRANCH   4  19
BRANCH   5  24
ATOM     24  N   UNL     1       0.304   9.484  21.673  0.00  0.00    +0.000 N 
ATOM     25  O   UNL     1      -0.637   8.763  22.037  0.00  0.00    +0.000 OA
ATOM     26  O   UNL     1       0.799  10.406  22.338  0.00  0.00    +0.000 OA
ENDBRANCH   5  24
TORSDOF 3
ENDMDL
MODEL 5
REMARK VINA RESULT:      -8.1      1.719      2.524
REMARK  Name = 
REMARK  3 active torsions:
REMARK  status: ('A' for Active; 'I' for Inactive)
REMARK    1  A    between atoms: C_5  and  C_6
REMARK    2  A    between atoms: C_9  and  N_10
REMARK    3  A    between atoms: C_15  and  N_16
REMARK                            x       y       z     vdW  Elec       q    Type
REMARK                         _______ _______ _______ _____ _____    ______ ____
ROOT
ATOM      1  C   UNL     1       2.091   7.253  18.816  0.00  0.00    +0.000 A 
ATOM      2  C   UNL     1       1.906   8.171  17.789  0.00  0.00    +0.000 A 
ATOM      3  C   UNL     1       1.540   9.488  18.080  0.00  0.00    +0.000 A 
ATOM      4  C   UNL     1       1.230   9.935  19.382  0.00  0.00    +0.000 A 
ATOM      5  C   UNL     1       1.290   8.940  20.374  0.00  0.00    +0.000 A 
ATOM      6  C   UNL     1       1.726   7.621  20.112  0.00  0.00    +0.000 A 
ENDROOT
BRANCH   1  11
ATOM      7  O   UNL     1       3.936   2.100  18.144  0.00  0.00    +0.000 OA
ATOM      8  C   UNL     1       3.570   3.267  18.243  0.00  0.00    +0.000 A 
ATOM      9  N   UNL     1       2.594   3.659  19.118  0.00  0.00    +0.000 N 
ATOM     10  N   UNL     1       2.131   4.924  19.286  0.00  0.00    +0.000 NA
ATOM     11  C   UNL     1       2.641   5.883  18.571  0.00  0.00    +0.000 A 
ATOM     12  C   UNL     1       3.738   5.643  17.579  0.00  0.00    +0.000 A 
ATOM     13  C   UNL     1       4.376   6.644  16.832  0.00  0.00    +0.000 A 
ATOM     14  C   UNL     1       5.348   6.322  15.879  0.00  0.00    +0.000 A 
ATOM     15  C   UNL     1       5.747   5.000  15.711  0.00  0.00    +0.000 A 
ATOM     16  C   UNL     1       5.171   4.002  16.490  0.00  0.00    +0.000 A 
ATOM     17  C   UNL     1       4.163   4.324  17.415  0.00  0.00    +0.000 A 
ATOM     18  H   UNL     1       2.170   2.938  19.692  0.00  0.00    +0.000 HD
ENDBRANCH   1  11
BRANCH   4  19
ATOM     19  N   UNL     1       0.914  11.271  19.523  0.00  0.00    +0.000 N 
ATOM     20  C   UNL     1      -0.393  11.874  19.776  0.00  0.00    +0.000 C 
ATOM     21  C   UNL     1      -0.424  13.071  18.832  0.00  0.00    +0.000 C 
ATOM     22  C   UNL     1       1.017  13.549  18.843  0.00  0.00    +0.000 C 
ATOM     23  C   UNL     1       1.830  12.264  18.938  0.00  0.00    +0.000 C 
ENDBRANCH   4  19
BRANCH   5  24
ATOM     24  N   UNL     1       0.797   9.169  21.718  0.00  0.00    +0.000 N 
ATOM     25  O   UNL     1       1.586   9.643  22.549  0.00  0.00    +0.000 OA
ATOM     26  O   UNL     1      -0.400   8.921  21.927  0.00  0.00    +0.000 OA
ENDBRANCH   5  24
TORSDOF 3
ENDMDL
MODEL 6
REMARK VINA RESULT:      -7.9      1.581      2.372
REMARK  Name = 
REMARK  3 active torsions:
REMARK  status: ('A' for Active; 'I' for Inactive)
REMARK    1  A    between atoms: C_5  and  C_6
REMARK    2  A    between atoms: C_9  and  N_10
REMARK    3  A    between atoms: C_15  and  N_16
REMARK                            x       y       z     vdW  Elec       q    Type
REMARK                         _______ _______ _______ _____ _____    ______ ____
ROOT
ATOM      1  C   UNL     1       2.037   7.334  18.944  0.00  0.00    +0.000 A 
ATOM      2  C   UNL     1       1.842   8.280  17.945  0.00  0.00    +0.000 A 
ATOM      3  C   UNL     1       1.459   9.582  18.274  0.00  0.00    +0.000 A 
ATOM      4  C   UNL     1       1.141   9.987  19.589  0.00  0.00    +0.000 A 
ATOM      5  C   UNL     1       1.213   8.963  20.551  0.00  0.00    +0.000 A 
ATOM      6  C   UNL     1       1.666   7.658  20.249  0.00  0.00    +0.000 A 
ENDROOT
BRANCH   1  11
ATOM      7  O   UNL     1       3.951   2.228  18.121  0.00  0.00    +0.000 OA
ATOM      8  C   UNL     1       3.570   3.386  18.255  0.00  0.00    +0.000 A 
ATOM      9  N   UNL     1       2.591   3.740  19.143  0.00  0.00    +0.000 N 
ATOM     10  N   UNL     1       2.111   4.993  19.347  0.00  0.00    +0.000 NA
ATOM     11  C   UNL     1       2.606   5.979  18.658  0.00  0.00    +0.000 A 
ATOM     12  C   UNL     1       3.703   5.782  17.658  0.00  0.00    +0.000 A 
ATOM     13  C   UNL     1       4.325   6.813  16.938  0.00  0.00    +0.000 A 
ATOM     14  C   UNL     1       5.299   6.531  15.974  0.00  0.00    +0.000 A 
ATOM     15  C   UNL     1       5.715   5.220  15.766  0.00  0.00    +0.000 A 
ATOM     16  C   UNL     1       5.155   4.192  16.519  0.00  0.00    +0.000 A 
ATOM     17  C   UNL     1       4.145   4.475  17.455  0.00  0.00    +0.000 A 
ATOM     18  H   UNL     1       2.179   2.997  19.697  0.00  0.00    +0.000 HD
ENDBRANCH   1  11
BRANCH   4  19
ATOM     19  N   UNL     1       0.808  11.314  19.769  0.00  0.00    +0.000 N 
ATOM     20  C   UNL     1       1.530  12.338  20.521  0.00  0.00    +0.000 C 
ATOM     21  C   UNL     1       0.429  13.070  21.278  0.00  0.00    +0.000 C 
ATOM     22  C   UNL     1      -0.729  13.053  20.295  0.00  0.00    +0.000 C 
ATOM     23  C   UNL     1      -0.603  11.701  19.603  0.00  0.00    +0.000 C 
ENDBRANCH   4  19
BRANCH   5  24
ATOM     24  N   UNL     1       0.716   9.145  21.900  0.00  0.00    +0.000 N 
ATOM     25  O   UNL     1      -0.474   8.874  22.118  0.00  0.00    +0.000 OA
ATOM     26  O   UNL     1       1.535   9.512  22.755  0.00  0.00    +0.000 OA
ENDBRANCH   5  24
TORSDOF 3
ENDMDL
MODEL 7
REMARK VINA RESULT:      -7.9      1.731      1.870
REMARK  Name = 
REMARK  3 active torsions:
REMARK  status: ('A' for Active; 'I' for Inactive)
REMARK    1  A    between atoms: C_5  and  C_6
REMARK    2  A    between atoms: C_9  and  N_10
REMARK    3  A    between atoms: C_15  and  N_16
REMARK                            x       y       z     vdW  Elec       q    Type
REMARK                         _______ _______ _______ _____ _____    ______ ____
ROOT
ATOM      1  C   UNL     1       2.528   6.906  19.099  0.00  0.00    +0.000 A 
ATOM      2  C   UNL     1       2.429   7.542  17.867  0.00  0.00    +0.000 A 
ATOM      3  C   UNL     1       1.930   8.844  17.785  0.00  0.00    +0.000 A 
ATOM      4  C   UNL     1       1.401   9.542  18.893  0.00  0.00    +0.000 A 
ATOM      5  C   UNL     1       1.388   8.809  20.094  0.00  0.00    +0.000 A 
ATOM      6  C   UNL     1       1.952   7.519  20.212  0.00  0.00    +0.000 A 
ENDROOT
BRANCH   1  11
ATOM      7  O   UNL     1       5.301   2.181  19.723  0.00  0.00    +0.000 OA
ATOM      8  C   UNL     1       4.626   3.194  19.574  0.00  0.00    +0.000 A 
ATOM      9  N   UNL     1       5.159   4.452  19.660  0.00  0.00    +0.000 N 
ATOM     10  N   UNL     1       4.483   5.619  19.513  0.00  0.00    +0.000 NA
ATOM     11  C   UNL     1       3.207   5.582  19.259  0.00  0.00    +0.000 A 
ATOM     12  C   UNL     1       2.461   4.293  19.106  0.00  0.00    +0.000 A 
ATOM     13  C   UNL     1       1.105   4.188  18.765  0.00  0.00    +0.000 A 
ATOM     14  C   UNL     1       0.471   2.942  18.707  0.00  0.00    +0.000 A 
ATOM     15  C   UNL     1       1.202   1.778  18.920  0.00  0.00    +0.000 A 
ATOM     16  C   UNL     1       2.564   1.861  19.196  0.00  0.00    +0.000 A 
ATOM     17  C   UNL     1       3.186   3.116  19.297  0.00  0.00    +0.000 A 
ATOM     18  H   UNL     1       6.151   4.521  19.858  0.00  0.00    +0.000 HD
ENDBRANCH   1  11
BRANCH   4  19
ATOM     19  N   UNL     1       0.972  10.834  18.668  0.00  0.00    +0.000 N 
ATOM     20  C   UNL     1       1.679  12.085  18.933  0.00  0.00    +0.000 C 
ATOM     21  C   UNL     1       0.608  12.977  19.549  0.00  0.00    +0.000 C 
ATOM     22  C   UNL     1      -0.647  12.574  18.795  0.00  0.00    +0.000 C 
ATOM     23  C   UNL     1      -0.478  11.075  18.577  0.00  0.00    +0.000 C 
ENDBRANCH   4  19
BRANCH   5  24
ATOM     24  N   UNL     1       0.688   9.286  21.271  0.00  0.00    +0.000 N 
ATOM     25  O   UNL     1       1.201  10.216  21.910  0.00  0.00    +0.000 OA
ATOM     26  O   UNL     1      -0.405   8.759  21.526  0.00  0.00    +0.000 OA
ENDBRANCH   5  24
TORSDOF 3
ENDMDL
MODEL 8
REMARK VINA RESULT:      -7.9      1.716      2.179
REMARK  Name = 
REMARK  3 active torsions:
REMARK  status: ('A' for Active; 'I' for Inactive)
REMARK    1  A    between atoms: C_5  and  C_6
REMARK    2  A    between atoms: C_9  and  N_10
REMARK    3  A    between atoms: C_15  and  N_16
REMARK                            x       y       z     vdW  Elec       q    Type
REMARK                         _______ _______ _______ _____ _____    ______ ____
ROOT
ATOM      1  C   UNL     1       2.371   7.431  18.979  0.00  0.00    +0.000 A 
ATOM      2  C   UNL     1       2.112   7.219  20.328  0.00  0.00    +0.000 A 
ATOM      3  C   UNL     1       1.209   8.040  21.009  0.00  0.00    +0.000 A 
ATOM      4  C   UNL     1       0.605   9.176  20.427  0.00  0.00    +0.000 A 
ATOM      5  C   UNL     1       1.004   9.439  19.104  0.00  0.00    +0.000 A 
ATOM      6  C   UNL     1       1.860   8.581  18.376  0.00  0.00    +0.000 A 
ENDROOT
BRANCH   1  11
ATOM      7  O   UNL     1       5.589   4.182  15.898  0.00  0.00    +0.000 OA
ATOM      8  C   UNL     1       4.834   4.848  16.599  0.00  0.00    +0.000 A 
ATOM      9  N   UNL     1       5.007   6.192  16.794  0.00  0.00    +0.000 N 
ATOM     10  N   UNL     1       4.223   6.997  17.555  0.00  0.00    +0.000 NA
ATOM     11  C   UNL     1       3.197   6.483  18.168  0.00  0.00    +0.000 A 
ATOM     12  C   UNL     1       2.839   5.034  18.048  0.00  0.00    +0.000 A 
ATOM     13  C   UNL     1       1.709   4.437  18.625  0.00  0.00    +0.000 A 
ATOM     14  C   UNL     1       1.486   3.060  18.515  0.00  0.00    +0.000 A 
ATOM     15  C   UNL     1       2.354   2.272  17.767  0.00  0.00    +0.000 A 
ATOM     16  C   UNL     1       3.445   2.859  17.133  0.00  0.00    +0.000 A 
ATOM     17  C   UNL     1       3.689   4.235  17.283  0.00  0.00    +0.000 A 
ATOM     18  H   UNL     1       5.799   6.628  16.334  0.00  0.00    +0.000 HD
ENDBRANCH   1  11
BRANCH   4  19
ATOM     19  N   UNL     1      -0.290   9.876  21.211  0.00  0.00    +0.000 N 
ATOM     20  C   UNL     1      -0.759  11.250  21.047  0.00  0.00    +0.000 C 
ATOM     21  C   UNL     1      -0.729  11.809  22.465  0.00  0.00    +0.000 C 
ATOM     22  C   UNL     1      -1.131  10.614  23.311  0.00  0.00    +0.000 C 
ATOM     23  C   UNL     1      -0.491   9.428  22.598  0.00  0.00    +0.000 C 
ENDBRANCH   4  19
BRANCH   5  24
ATOM     24  N   UNL     1       0.654  10.675  18.431  0.00  0.00    +0.000 N 
ATOM     25  O   UNL     1       1.490  11.589  18.434  0.00  0.00    +0.000 OA
ATOM     26  O   UNL     1      -0.444  10.708  17.855  0.00  0.00    +0.000 OA
ENDBRANCH   5  24
TORSDOF 3
ENDMDL
MODEL 9
REMARK VINA RESULT:      -7.9      2.415      7.433
REMARK  Name = 
REMARK  3 active torsions:
REMARK  status: ('A' for Active; 'I' for Inactive)
REMARK    1  A    between atoms: C_5  and  C_6
REMARK    2  A    between atoms: C_9  and  N_10
REMARK    3  A    between atoms: C_15  and  N_16
REMARK                            x       y       z     vdW  Elec       q    Type
REMARK                         _______ _______ _______ _____ _____    ______ ____
ROOT
ATOM      1  C   UNL     1       2.237   7.768  18.218  0.00  0.00    +0.000 A 
ATOM      2  C   UNL     1       3.519   8.092  17.792  0.00  0.00    +0.000 A 
ATOM      3  C   UNL     1       4.384   7.092  17.341  0.00  0.00    +0.000 A 
ATOM      4  C   UNL     1       4.071   5.716  17.393  0.00  0.00    +0.000 A 
ATOM      5  C   UNL     1       2.820   5.421  17.964  0.00  0.00    +0.000 A 
ATOM      6  C   UNL     1       1.903   6.421  18.360  0.00  0.00    +0.000 A 
ENDROOT
BRANCH   1  11
ATOM      7  O   UNL     1      -1.533  11.687  19.137  0.00  0.00    +0.000 OA
ATOM      8  C   UNL     1      -0.689  10.807  19.002  0.00  0.00    +0.000 A 
ATOM      9  N   UNL     1      -0.255  10.387  17.774  0.00  0.00    +0.000 N 
ATOM     10  N   UNL     1       0.668   9.420  17.540  0.00  0.00    +0.000 NA
ATOM     11  C   UNL     1       1.220   8.815  18.551  0.00  0.00    +0.000 A 
ATOM     12  C   UNL     1       0.884   9.162  19.968  0.00  0.00    +0.000 A 
ATOM     13  C   UNL     1       1.495   8.597  21.097  0.00  0.00    +0.000 A 
ATOM     14  C   UNL     1       1.073   8.933  22.388  0.00  0.00    +0.000 A 
ATOM     15  C   UNL     1       0.083   9.893  22.569  0.00  0.00    +0.000 A 
ATOM     16  C   UNL     1      -0.488  10.512  21.461  0.00  0.00    +0.000 A 
ATOM     17  C   UNL     1      -0.092  10.138  20.165  0.00  0.00    +0.000 A 
ATOM     18  H   UNL     1      -0.664  10.834  16.961  0.00  0.00    +0.000 HD
ENDBRANCH   1  11
BRANCH   4  19
ATOM     19  N   UNL     1       5.011   4.843  16.884  0.00  0.00    +0.000 N 
ATOM     20  C   UNL     1       6.278   4.425  17.479  0.00  0.00    +0.000 C 
ATOM     21  C   UNL     1       7.254   4.468  16.309  0.00  0.00    +0.000 C 
ATOM     22  C   UNL     1       6.401   4.019  15.136  0.00  0.00    +0.000 C 
ATOM     23  C   UNL     1       5.031   4.620  15.429  0.00  0.00    +0.000 C 
ENDBRANCH   4  19
BRANCH   5  24
ATOM     24  N   UNL     1       2.431   4.064  18.293  0.00  0.00    +0.000 N 
ATOM     25  O   UNL     1       2.769   3.619  19.399  0.00  0.00    +0.000 OA
ATOM     26  O   UNL     1       1.739   3.461  17.459  0.00  0.00    +0.000 OA
ENDBRANCH   5  24
TORSDOF 3
ENDMDL
