MODEL 1
REMARK VINA RESULT:      -6.6      0.000      0.000
REMARK  Name = 
REMARK  6 active torsions:
REMARK  status: ('A' for Active; 'I' for Inactive)
REMARK    1  A    between atoms: C_2  and  C_12
REMARK    2  A    between atoms: N_3  and  C_4
REMARK    3  A    between atoms: C_4  and  C_5
REMARK    4  A    between atoms: C_5  and  C_6
REMARK    5  A    between atoms: C_6  and  N_7
REMARK    6  A    between atoms: N_14  and  C_15
REMARK                            x       y       z     vdW  Elec       q    Type
REMARK                         _______ _______ _______ _____ _____    ______ ____
ROOT
ATOM      1  O   UNL     1       6.403   4.746  19.359  0.00  0.00    +0.000 OA
ATOM      2  C   UNL     1       5.985   5.118  18.273  0.00  0.00    +0.000 C 
ATOM      3  N   UNL     1       4.852   5.873  18.048  0.00  0.00    +0.000 N 
ATOM      4  H   UNL     1       4.634   6.064  17.074  0.00  0.00    +0.000 HD
ENDROOT
BRANCH   2   5
ATOM      5  C   UNL     1       6.735   4.747  16.978  0.00  0.00    +0.000 C 
ATOM      6  O   UNL     1       7.886   4.340  17.092  0.00  0.00    +0.000 OA
ATOM      7  N   UNL     1       5.998   4.975  15.833  0.00  0.00    +0.000 N 
ATOM      8  H   UNL     1       5.105   5.439  15.972  0.00  0.00    +0.000 HD
BRANCH   7   9
ATOM      9  C   UNL     1       6.415   4.704  14.514  0.00  0.00    +0.000 A 
ATOM     10  C   UNL     1       7.477   5.381  13.907  0.00  0.00    +0.000 A 
ATOM     11  C   UNL     1       7.842   5.104  12.590  0.00  0.00    +0.000 A 
ATOM     12  C   UNL     1       7.146   4.146  11.860  0.00  0.00    +0.000 A 
ATOM     13  C   UNL     1       6.100   3.447  12.460  0.00  0.00    +0.000 A 
ATOM     14  C   UNL     1       5.744   3.714  13.788  0.00  0.00    +0.000 A 
ENDBRANCH   7   9
ENDBRANCH   2   5
BRANCH   3  15
ATOM     15  C   UNL     1       3.993   6.346  19.108  0.00  0.00    +0.000 C 
BRANCH  15  16
ATOM     16  C   UNL     1       2.526   5.981  18.889  0.00  0.00    +0.000 C 
BRANCH  16  17
ATOM     17  C   UNL     1       2.098   4.761  19.702  0.00  0.00    +0.000 C 
BRANCH  17  18
ATOM     18  N   UNL     1       2.529   3.521  19.085  0.00  0.00    +0.000 N 
ATOM     19  C   UNL     1       3.336   2.573  19.648  0.00  0.00    +0.000 A 
ATOM     20  C   UNL     1       3.451   1.594  18.689  0.00  0.00    +0.000 A 
ATOM     21  N   UNL     1       2.750   1.932  17.561  0.00  0.00    +0.000 NA
ATOM     22  C   UNL     1       2.209   3.100  17.827  0.00  0.00    +0.000 A 
ENDBRANCH  17  18
ENDBRANCH  16  17
ENDBRANCH  15  16
ENDBRANCH   3  15
TORSDOF 6
ENDMDL
MODEL 2
REMARK VINA RESULT:      -6.3      4.497      8.077
REMARK  Name = 
REMARK  6 active torsions:
REMARK  status: ('A' for Active; 'I' for Inactive)
REMARK    1  A    between atoms: C_2  and  C_12
REMARK    2  A    between atoms: N_3  and  C_4
REMARK    3  A    between atoms: C_4  and  C_5
REMARK    4  A    between atoms: C_5  and  C_6
REMARK    5  A    between atoms: C_6  and  N_7
REMARK    6  A    between atoms: N_14  and  C_15
REMARK                            x       y       z     vdW  Elec       q    Type
REMARK                         _______ _______ _______ _____ _____    ______ ____
ROOT
ATOM      1  O   UNL     1       5.106   6.845  16.667  0.00  0.00    +0.000 OA
ATOM      2  C   UNL     1       5.691   6.320  17.603  0.00  0.00    +0.000 C 
ATOM      3  N   UNL     1       6.967   6.612  18.038  0.00  0.00    +0.000 N 
ATOM      4  H   UNL     1       7.310   6.051  18.813  0.00  0.00    +0.000 HD
ENDROOT
BRANCH   2   5
ATOM      5  C   UNL     1       5.009   5.209  18.425  0.00  0.00    +0.000 C 
ATOM      6  O   UNL     1       5.724   4.314  18.864  0.00  0.00    +0.000 OA
ATOM      7  N   UNL     1       3.640   5.356  18.517  0.00  0.00    +0.000 N 
ATOM      8  H   UNL     1       3.242   6.110  17.965  0.00  0.00    +0.000 HD
BRANCH   7   9
ATOM      9  C   UNL     1       2.763   4.511  19.227  0.00  0.00    +0.000 A 
ATOM     10  C   UNL     1       2.626   4.566  20.617  0.00  0.00    +0.000 A 
ATOM     11  C   UNL     1       1.768   3.693  21.287  0.00  0.00    +0.000 A 
ATOM     12  C   UNL     1       1.036   2.750  20.573  0.00  0.00    +0.000 A 
ATOM     13  C   UNL     1       1.145   2.700  19.184  0.00  0.00    +0.000 A 
ATOM     14  C   UNL     1       1.995   3.586  18.511  0.00  0.00    +0.000 A 
ENDBRANCH   7   9
ENDBRANCH   2   5
BRANCH   3  15
ATOM     15  C   UNL     1       7.799   7.623  17.428  0.00  0.00    +0.000 C 
BRANCH  15  16
ATOM     16  C   UNL     1       8.448   8.553  18.452  0.00  0.00    +0.000 C 
BRANCH  16  17
ATOM     17  C   UNL     1       8.401  10.019  18.026  0.00  0.00    +0.000 C 
BRANCH  17  18
ATOM     18  N   UNL     1       9.469  10.792  18.631  0.00  0.00    +0.000 N 
ATOM     19  C   UNL     1       9.699  10.949  19.969  0.00  0.00    +0.000 A 
ATOM     20  C   UNL     1      10.813  11.752  20.043  0.00  0.00    +0.000 A 
ATOM     21  N   UNL     1      11.251  12.093  18.790  0.00  0.00    +0.000 NA
ATOM     22  C   UNL     1      10.419  11.505  17.959  0.00  0.00    +0.000 A 
ENDBRANCH  17  18
ENDBRANCH  16  17
ENDBRANCH  15  16
ENDBRANCH   3  15
TORSDOF 6
ENDMDL
MODEL 3
REMARK VINA RESULT:      -6.3      1.327      1.842
REMARK  Name = 
REMARK  6 active torsions:
REMARK  status: ('A' for Active; 'I' for Inactive)
REMARK    1  A    between atoms: C_2  and  C_12
REMARK    2  A    between atoms: N_3  and  C_4
REMARK    3  A    between atoms: C_4  and  C_5
REMARK    4  A    between atoms: C_5  and  C_6
REMARK    5  A    between atoms: C_6  and  N_7
REMARK    6  A    between atoms: N_14  and  C_15
REMARK                            x       y       z     vdW  Elec       q    Type
REMARK                         _______ _______ _______ _____ _____    ______ ____
ROOT
ATOM      1  O   UNL     1       5.454   5.273  18.547  0.00  0.00    +0.000 OA
ATOM      2  C   UNL     1       4.776   5.896  17.744  0.00  0.00    +0.000 C 
ATOM      3  N   UNL     1       3.619   6.595  18.018  0.00  0.00    +0.000 N 
ATOM      4  H   UNL     1       3.164   7.028  17.219  0.00  0.00    +0.000 HD
ENDROOT
BRANCH   2   5
ATOM      5  C   UNL     1       5.180   5.949  16.257  0.00  0.00    +0.000 C 
ATOM      6  O   UNL     1       5.027   7.015  15.670  0.00  0.00    +0.000 OA
ATOM      7  N   UNL     1       5.629   4.739  15.766  0.00  0.00    +0.000 N 
ATOM      8  H   UNL     1       5.552   3.952  16.405  0.00  0.00    +0.000 HD
BRANCH   7   9
ATOM      9  C   UNL     1       6.090   4.497  14.456  0.00  0.00    +0.000 A 
ATOM     10  C   UNL     1       5.430   3.635  13.575  0.00  0.00    +0.000 A 
ATOM     11  C   UNL     1       5.932   3.399  12.295  0.00  0.00    +0.000 A 
ATOM     12  C   UNL     1       7.105   4.023  11.881  0.00  0.00    +0.000 A 
ATOM     13  C   UNL     1       7.760   4.902  12.741  0.00  0.00    +0.000 A 
ATOM     14  C   UNL     1       7.247   5.151  14.020  0.00  0.00    +0.000 A 
ENDBRANCH   7   9
ENDBRANCH   2   5
BRANCH   3  15
ATOM     15  C   UNL     1       3.050   6.696  19.341  0.00  0.00    +0.000 C 
BRANCH  15  16
ATOM     16  C   UNL     1       1.970   5.648  19.603  0.00  0.00    +0.000 C 
BRANCH  16  17
ATOM     17  C   UNL     1       2.516   4.407  20.307  0.00  0.00    +0.000 C 
BRANCH  17  18
ATOM     18  N   UNL     1       2.779   3.327  19.375  0.00  0.00    +0.000 N 
ATOM     19  C   UNL     1       2.206   3.160  18.146  0.00  0.00    +0.000 A 
ATOM     20  C   UNL     1       2.773   2.011  17.646  0.00  0.00    +0.000 A 
ATOM     21  N   UNL     1       3.659   1.476  18.544  0.00  0.00    +0.000 NA
ATOM     22  C   UNL     1       3.637   2.287  19.578  0.00  0.00    +0.000 A 
ENDBRANCH  17  18
ENDBRANCH  16  17
ENDBRANCH  15  16
ENDBRANCH   3  15
TORSDOF 6
ENDMDL
MODEL 4
REMARK VINA RESULT:      -6.3      1.403      2.892
REMARK  Name = 
REMARK  6 active torsions:
REMARK  status: ('A' for Active; 'I' for Inactive)
REMARK    1  A    between atoms: C_2  and  C_12
REMARK    2  A    between atoms: N_3  and  C_4
REMARK    3  A    between atoms: C_4  and  C_5
REMARK    4  A    between atoms: C_5  and  C_6
REMARK    5  A    between atoms: C_6  and  N_7
REMARK    6  A    between atoms: N_14  and  C_15
REMARK                            x       y       z     vdW  Elec       q    Type
REMARK                         _______ _______ _______ _____ _____    ______ ____
ROOT
ATOM      1  O   UNL     1       5.728   4.048  19.044  0.00  0.00    +0.000 OA
ATOM      2  C   UNL     1       5.137   3.740  18.021  0.00  0.00    +0.000 C 
ATOM      3  N   UNL     1       4.154   2.779  17.902  0.00  0.00    +0.000 N 
ATOM      4  H   UNL     1       3.792   2.629  16.964  0.00  0.00    +0.000 HD
ENDROOT
BRANCH   2   5
ATOM      5  C   UNL     1       5.465   4.441  16.688  0.00  0.00    +0.000 C 
ATOM      6  O   UNL     1       5.176   5.629  16.591  0.00  0.00    +0.000 OA
ATOM      7  N   UNL     1       6.012   3.596  15.744  0.00  0.00    +0.000 N 
ATOM      8  H   UNL     1       6.046   2.614  16.002  0.00  0.00    +0.000 HD
BRANCH   7   9
ATOM      9  C   UNL     1       6.435   3.964  14.450  0.00  0.00    +0.000 A 
ATOM     10  C   UNL     1       5.933   3.357  13.295  0.00  0.00    +0.000 A 
ATOM     11  C   UNL     1       6.396   3.729  12.033  0.00  0.00    +0.000 A 
ATOM     12  C   UNL     1       7.372   4.713  11.911  0.00  0.00    +0.000 A 
ATOM     13  C   UNL     1       7.865   5.342  13.052  0.00  0.00    +0.000 A 
ATOM     14  C   UNL     1       7.388   4.979  14.318  0.00  0.00    +0.000 A 
ENDBRANCH   7   9
ENDBRANCH   2   5
BRANCH   3  15
ATOM     15  C   UNL     1       3.674   1.996  19.017  0.00  0.00    +0.000 C 
BRANCH  15  16
ATOM     16  C   UNL     1       2.156   2.064  19.177  0.00  0.00    +0.000 C 
BRANCH  16  17
ATOM     17  C   UNL     1       1.541   3.253  18.444  0.00  0.00    +0.000 C 
BRANCH  17  18
ATOM     18  N   UNL     1       1.745   4.497  19.162  0.00  0.00    +0.000 N 
ATOM     19  C   UNL     1       2.289   5.644  18.658  0.00  0.00    +0.000 A 
ATOM     20  C   UNL     1       2.265   6.535  19.706  0.00  0.00    +0.000 A 
ATOM     21  N   UNL     1       1.736   5.953  20.828  0.00  0.00    +0.000 NA
ATOM     22  C   UNL     1       1.437   4.723  20.472  0.00  0.00    +0.000 A 
ENDBRANCH  17  18
ENDBRANCH  16  17
ENDBRANCH  15  16
ENDBRANCH   3  15
TORSDOF 6
ENDMDL
MODEL 5
REMARK VINA RESULT:      -6.2      5.130      6.573
REMARK  Name = 
REMARK  6 active torsions:
REMARK  status: ('A' for Active; 'I' for Inactive)
REMARK    1  A    between atoms: C_2  and  C_12
REMARK    2  A    between atoms: N_3  and  C_4
REMARK    3  A    between atoms: C_4  and  C_5
REMARK    4  A    between atoms: C_5  and  C_6
REMARK    5  A    between atoms: C_6  and  N_7
REMARK    6  A    between atoms: N_14  and  C_15
REMARK                            x       y       z     vdW  Elec       q    Type
REMARK                         _______ _______ _______ _____ _____    ______ ____
ROOT
ATOM      1  O   UNL     1       8.233   6.778  18.886  0.00  0.00    +0.000 OA
ATOM      2  C   UNL     1       7.887   7.593  18.044  0.00  0.00    +0.000 C 
ATOM      3  N   UNL     1       7.169   7.329  16.896  0.00  0.00    +0.000 N 
ATOM      4  H   UNL     1       6.997   8.125  16.288  0.00  0.00    +0.000 HD
ENDROOT
BRANCH   2   5
ATOM      5  C   UNL     1       8.254   9.082  18.201  0.00  0.00    +0.000 C 
ATOM      6  O   UNL     1       7.722   9.877  17.434  0.00  0.00    +0.000 OA
ATOM      7  N   UNL     1       9.195   9.315  19.184  0.00  0.00    +0.000 N 
ATOM      8  H   UNL     1       9.594   8.485  19.613  0.00  0.00    +0.000 HD
BRANCH   7   9
ATOM      9  C   UNL     1       9.697  10.575  19.567  0.00  0.00    +0.000 A 
ATOM     10  C   UNL     1      10.554  11.322  18.753  0.00  0.00    +0.000 A 
ATOM     11  C   UNL     1      11.052  12.553  19.178  0.00  0.00    +0.000 A 
ATOM     12  C   UNL     1      10.701  13.053  20.428  0.00  0.00    +0.000 A 
ATOM     13  C   UNL     1       9.830  12.330  21.241  0.00  0.00    +0.000 A 
ATOM     14  C   UNL     1       9.317  11.101  20.807  0.00  0.00    +0.000 A 
ENDBRANCH   7   9
ENDBRANCH   2   5
BRANCH   3  15
ATOM     15  C   UNL     1       6.707   6.008  16.539  0.00  0.00    +0.000 C 
BRANCH  15  16
ATOM     16  C   UNL     1       5.242   5.775  16.903  0.00  0.00    +0.000 C 
BRANCH  16  17
ATOM     17  C   UNL     1       5.073   5.162  18.291  0.00  0.00    +0.000 C 
BRANCH  17  18
ATOM     18  N   UNL     1       4.226   3.984  18.263  0.00  0.00    +0.000 N 
ATOM     19  C   UNL     1       4.230   2.961  19.169  0.00  0.00    +0.000 A 
ATOM     20  C   UNL     1       3.260   2.093  18.724  0.00  0.00    +0.000 A 
ATOM     21  N   UNL     1       2.683   2.558  17.571  0.00  0.00    +0.000 NA
ATOM     22  C   UNL     1       3.289   3.696  17.314  0.00  0.00    +0.000 A 
ENDBRANCH  17  18
ENDBRANCH  16  17
ENDBRANCH  15  16
ENDBRANCH   3  15
TORSDOF 6
ENDMDL
MODEL 6
REMARK VINA RESULT:      -6.2      2.348      3.816
REMARK  Name = 
REMARK  6 active torsions:
REMARK  status: ('A' for Active; 'I' for Inactive)
REMARK    1  A    between atoms: C_2  and  C_12
REMARK    2  A    between atoms: N_3  and  C_4
REMARK    3  A    between atoms: C_4  and  C_5
REMARK    4  A    between atoms: C_5  and  C_6
REMARK    5  A    between atoms: C_6  and  N_7
REMARK    6  A    between atoms: N_14  and  C_15
REMARK                            x       y       z     vdW  Elec       q    Type
REMARK                         _______ _______ _______ _____ _____    ______ ____
ROOT
ATOM      1  O   UNL     1       6.446   4.538  19.303  0.00  0.00    +0.000 OA
ATOM      2  C   UNL     1       5.975   4.855  18.222  0.00  0.00    +0.000 C 
ATOM      3  N   UNL     1       4.736   5.422  18.003  0.00  0.00    +0.000 N 
ATOM      4  H   UNL     1       4.491   5.590  17.032  0.00  0.00    +0.000 HD
ENDROOT
BRANCH   2   5
ATOM      5  C   UNL     1       6.775   4.627  16.924  0.00  0.00    +0.000 C 
ATOM      6  O   UNL     1       7.971   4.378  17.037  0.00  0.00    +0.000 OA
ATOM      7  N   UNL     1       6.021   4.784  15.779  0.00  0.00    +0.000 N 
ATOM      8  H   UNL     1       5.072   5.117  15.922  0.00  0.00    +0.000 HD
BRANCH   7   9
ATOM      9  C   UNL     1       6.478   4.610  14.457  0.00  0.00    +0.000 A 
ATOM     10  C   UNL     1       7.504   5.385  13.909  0.00  0.00    +0.000 A 
ATOM     11  C   UNL     1       7.911   5.202  12.587  0.00  0.00    +0.000 A 
ATOM     12  C   UNL     1       7.291   4.241  11.794  0.00  0.00    +0.000 A 
ATOM     13  C   UNL     1       6.283   3.447  12.334  0.00  0.00    +0.000 A 
ATOM     14  C   UNL     1       5.886   3.620  13.666  0.00  0.00    +0.000 A 
ENDBRANCH   7   9
ENDBRANCH   2   5
BRANCH   3  15
ATOM     15  C   UNL     1       3.812   5.736  19.067  0.00  0.00    +0.000 C 
BRANCH  15  16
ATOM     16  C   UNL     1       2.507   6.346  18.557  0.00  0.00    +0.000 C 
BRANCH  16  17
ATOM     17  C   UNL     1       2.668   7.802  18.127  0.00  0.00    +0.000 C 
BRANCH  17  18
ATOM     18  N   UNL     1       1.756   8.680  18.836  0.00  0.00    +0.000 N 
ATOM     19  C   UNL     1       1.066   9.732  18.304  0.00  0.00    +0.000 A 
ATOM     20  C   UNL     1       0.339  10.244  19.354  0.00  0.00    +0.000 A 
ATOM     21  N   UNL     1       0.583   9.539  20.503  0.00  0.00    +0.000 NA
ATOM     22  C   UNL     1       1.445   8.606  20.162  0.00  0.00    +0.000 A 
ENDBRANCH  17  18
ENDBRANCH  16  17
ENDBRANCH  15  16
ENDBRANCH   3  15
TORSDOF 6
ENDMDL
MODEL 7
REMARK VINA RESULT:      -6.2      4.698      7.932
REMARK  Name = 
REMARK  6 active torsions:
REMARK  status: ('A' for Active; 'I' for Inactive)
REMARK    1  A    between atoms: C_2  and  C_12
REMARK    2  A    between atoms: N_3  and  C_4
REMARK    3  A    between atoms: C_4  and  C_5
REMARK    4  A    between atoms: C_5  and  C_6
REMARK    5  A    between atoms: C_6  and  N_7
REMARK    6  A    between atoms: N_14  and  C_15
REMARK                            x       y       z     vdW  Elec       q    Type
REMARK                         _______ _______ _______ _____ _____    ______ ____
ROOT
ATOM      1  O   UNL     1       7.457   5.412  16.730  0.00  0.00    +0.000 OA
ATOM      2  C   UNL     1       6.847   5.950  17.641  0.00  0.00    +0.000 C 
ATOM      3  N   UNL     1       7.032   7.238  18.100  0.00  0.00    +0.000 N 
ATOM      4  H   UNL     1       6.458   7.512  18.893  0.00  0.00    +0.000 HD
ENDROOT
BRANCH   2   5
ATOM      5  C   UNL     1       5.753   5.183  18.410  0.00  0.00    +0.000 C 
ATOM      6  O   UNL     1       5.996   4.869  19.571  0.00  0.00    +0.000 OA
ATOM      7  N   UNL     1       4.637   4.907  17.647  0.00  0.00    +0.000 N 
ATOM      8  H   UNL     1       4.706   5.155  16.664  0.00  0.00    +0.000 HD
BRANCH   7   9
ATOM      9  C   UNL     1       3.473   4.247  18.091  0.00  0.00    +0.000 A 
ATOM     10  C   UNL     1       2.593   4.815  19.017  0.00  0.00    +0.000 A 
ATOM     11  C   UNL     1       1.466   4.119  19.454  0.00  0.00    +0.000 A 
ATOM     12  C   UNL     1       1.207   2.840  18.971  0.00  0.00    +0.000 A 
ATOM     13  C   UNL     1       2.064   2.270  18.031  0.00  0.00    +0.000 A 
ATOM     14  C   UNL     1       3.186   2.976  17.581  0.00  0.00    +0.000 A 
ENDBRANCH   7   9
ENDBRANCH   2   5
BRANCH   3  15
ATOM     15  C   UNL     1       7.995   8.151  17.531  0.00  0.00    +0.000 C 
BRANCH  15  16
ATOM     16  C   UNL     1       8.651   9.049  18.577  0.00  0.00    +0.000 C 
BRANCH  16  17
ATOM     17  C   UNL     1       8.830  10.485  18.089  0.00  0.00    +0.000 C 
BRANCH  17  18
ATOM     18  N   UNL     1       9.949  11.142  18.737  0.00  0.00    +0.000 N 
ATOM     19  C   UNL     1      11.045  11.674  18.119  0.00  0.00    +0.000 A 
ATOM     20  C   UNL     1      11.813  12.183  19.141  0.00  0.00    +0.000 A 
ATOM     21  N   UNL     1      11.218  11.960  20.355  0.00  0.00    +0.000 NA
ATOM     22  C   UNL     1      10.099  11.326  20.081  0.00  0.00    +0.000 A 
ENDBRANCH  17  18
ENDBRANCH  16  17
ENDBRANCH  15  16
ENDBRANCH   3  15
TORSDOF 6
ENDMDL
MODEL 8
REMARK VINA RESULT:      -6.2      4.360      7.947
REMARK  Name = 
REMARK  6 active torsions:
REMARK  status: ('A' for Active; 'I' for Inactive)
REMARK    1  A    between atoms: C_2  and  C_12
REMARK    2  A    between atoms: N_3  and  C_4
REMARK    3  A    between atoms: C_4  and  C_5
REMARK    4  A    between atoms: C_5  and  C_6
REMARK    5  A    between atoms: C_6  and  N_7
REMARK    6  A    between atoms: N_14  and  C_15
REMARK                            x       y       z     vdW  Elec       q    Type
REMARK                         _______ _______ _______ _____ _____    ______ ____
ROOT
ATOM      1  O   UNL     1       5.235   7.017  15.731  0.00  0.00    +0.000 OA
ATOM      2  C   UNL     1       5.218   6.786  16.931  0.00  0.00    +0.000 C 
ATOM      3  N   UNL     1       6.293   6.853  17.793  0.00  0.00    +0.000 N 
ATOM      4  H   UNL     1       6.105   6.594  18.757  0.00  0.00    +0.000 HD
ENDROOT
BRANCH   2   5
ATOM      5  C   UNL     1       3.908   6.365  17.627  0.00  0.00    +0.000 C 
ATOM      6  O   UNL     1       3.021   7.208  17.713  0.00  0.00    +0.000 OA
ATOM      7  N   UNL     1       3.934   5.073  18.110  0.00  0.00    +0.000 N 
ATOM      8  H   UNL     1       4.827   4.595  18.035  0.00  0.00    +0.000 HD
BRANCH   7   9
ATOM      9  C   UNL     1       2.873   4.412  18.763  0.00  0.00    +0.000 A 
ATOM     10  C   UNL     1       2.062   3.474  18.118  0.00  0.00    +0.000 A 
ATOM     11  C   UNL     1       1.004   2.861  18.790  0.00  0.00    +0.000 A 
ATOM     12  C   UNL     1       0.741   3.183  20.118  0.00  0.00    +0.000 A 
ATOM     13  C   UNL     1       1.556   4.101  20.779  0.00  0.00    +0.000 A 
ATOM     14  C   UNL     1       2.627   4.704  20.109  0.00  0.00    +0.000 A 
ENDBRANCH   7   9
ENDBRANCH   2   5
BRANCH   3  15
ATOM     15  C   UNL     1       7.621   7.233  17.372  0.00  0.00    +0.000 C 
BRANCH  15  16
ATOM     16  C   UNL     1       7.905   8.720  17.578  0.00  0.00    +0.000 C 
BRANCH  16  17
ATOM     17  C   UNL     1       8.782   8.987  18.799  0.00  0.00    +0.000 C 
BRANCH  17  18
ATOM     18  N   UNL     1       9.104  10.394  18.937  0.00  0.00    +0.000 N 
ATOM     19  C   UNL     1       8.828  11.381  18.034  0.00  0.00    +0.000 A 
ATOM     20  C   UNL     1       9.316  12.532  18.609  0.00  0.00    +0.000 A 
ATOM     21  N   UNL     1       9.890  12.263  19.824  0.00  0.00    +0.000 NA
ATOM     22  C   UNL     1       9.752  10.966  19.993  0.00  0.00    +0.000 A 
ENDBRANCH  17  18
ENDBRANCH  16  17
ENDBRANCH  15  16
ENDBRANCH   3  15
TORSDOF 6
ENDMDL
MODEL 9
REMARK VINA RESULT:      -6.2      4.378      8.056
REMARK  Name = 
REMARK  6 active torsions:
REMARK  status: ('A' for Active; 'I' for Inactive)
REMARK    1  A    between atoms: C_2  and  C_12
REMARK    2  A    between atoms: N_3  and  C_4
REMARK    3  A    between atoms: C_4  and  C_5
REMARK    4  A    between atoms: C_5  and  C_6
REMARK    5  A    between atoms: C_6  and  N_7
REMARK    6  A    between atoms: N_14  and  C_15
REMARK                            x       y       z     vdW  Elec       q    Type
REMARK                         _______ _______ _______ _____ _____    ______ ____
ROOT
ATOM      1  O   UNL     1       4.892   7.148  17.132  0.00  0.00    +0.000 OA
ATOM      2  C   UNL     1       5.560   6.383  17.812  0.00  0.00    +0.000 C 
ATOM      3  N   UNL     1       6.926   6.433  17.998  0.00  0.00    +0.000 N 
ATOM      4  H   UNL     1       7.322   5.694  18.572  0.00  0.00    +0.000 HD
ENDROOT
BRANCH   2   5
ATOM      5  C   UNL     1       4.887   5.218  18.565  0.00  0.00    +0.000 C 
ATOM      6  O   UNL     1       5.621   4.362  19.049  0.00  0.00    +0.000 OA
ATOM      7  N   UNL     1       3.508   5.278  18.549  0.00  0.00    +0.000 N 
ATOM      8  H   UNL     1       3.108   6.015  17.975  0.00  0.00    +0.000 HD
BRANCH   7   9
ATOM      9  C   UNL     1       2.634   4.367  19.176  0.00  0.00    +0.000 A 
ATOM     10  C   UNL     1       1.853   3.458  18.457  0.00  0.00    +0.000 A 
ATOM     11  C   UNL     1       0.978   2.591  19.111  0.00  0.00    +0.000 A 
ATOM     12  C   UNL     1       0.870   2.625  20.498  0.00  0.00    +0.000 A 
ATOM     13  C   UNL     1       1.659   3.511  21.229  0.00  0.00    +0.000 A 
ATOM     14  C   UNL     1       2.549   4.370  20.573  0.00  0.00    +0.000 A 
ENDBRANCH   7   9
ENDBRANCH   2   5
BRANCH   3  15
ATOM     15  C   UNL     1       7.769   7.441  17.400  0.00  0.00    +0.000 C 
BRANCH  15  16
ATOM     16  C   UNL     1       8.432   8.349  18.435  0.00  0.00    +0.000 C 
BRANCH  16  17
ATOM     17  C   UNL     1       8.303   9.830  18.085  0.00  0.00    +0.000 C 
BRANCH  17  18
ATOM     18  N   UNL     1       9.311  10.633  18.750  0.00  0.00    +0.000 N 
ATOM     19  C   UNL     1      10.313  11.340  18.146  0.00  0.00    +0.000 A 
ATOM     20  C   UNL     1      10.997  11.935  19.181  0.00  0.00    +0.000 A 
ATOM     21  N   UNL     1      10.446  11.595  20.388  0.00  0.00    +0.000 NA
ATOM     22  C   UNL     1       9.435  10.805  20.098  0.00  0.00    +0.000 A 
ENDBRANCH  17  18
ENDBRANCH  16  17
ENDBRANCH  15  16
ENDBRANCH   3  15
TORSDOF 6
ENDMDL
