MODEL 1
REMARK VINA RESULT:      -7.7      0.000      0.000
REMARK  Name = 
REMARK  11 active torsions:
REMARK  status: ('A' for Active; 'I' for Inactive)
REMARK    1  A    between atoms: C_1  and  C_2
REMARK    2  A    between atoms: C_2  and  S_3
REMARK    3  A    between atoms: S_3  and  N_6
REMARK    4  A    between atoms: N_6  and  C_7
REMARK    5  A    between atoms: C_12  and  C_13
REMARK    6  A    between atoms: C_15  and  C_16
REMARK    7  A    between atoms: C_16  and  O_17
REMARK    8  A    between atoms: O_17  and  C_18
REMARK    9  A    between atoms: C_21  and  C_22
REMARK   10  A    between atoms: C_22  and  C_23
REMARK   11  A    between atoms: C_22  and  C_24
REMARK                            x       y       z     vdW  Elec       q    Type
REMARK                         _______ _______ _______ _____ _____    ______ ____
ROOT
ATOM      1  C   UNL     1       4.459   4.369  18.119  0.00  0.00    +0.000 C 
ATOM      2  C   UNL     1       3.863   3.971  16.760  0.00  0.00    +0.000 C 
ATOM      3  C   UNL     1       4.845   4.268  15.632  0.00  0.00    +0.000 C 
ATOM      4  C   UNL     1       5.378   5.697  15.663  0.00  0.00    +0.000 C 
ATOM      5  N   UNL     1       5.854   6.069  16.997  0.00  0.00    +0.000 N 
ATOM      6  C   UNL     1       7.166   6.494  17.125  0.00  0.00    +0.000 C 
ATOM      7  C   UNL     1       7.729   6.878  18.471  0.00  0.00    +0.000 C 
ATOM      8  O   UNL     1       7.922   6.553  16.151  0.00  0.00    +0.000 OA
ATOM      9  C   UNL     1       4.859   5.881  18.097  0.00  0.00    +0.000 C 
ENDROOT
BRANCH   1  10
ATOM     10  N   UNL     1       3.527   4.032  19.257  0.00  0.00    +0.000 NA
ATOM     11  H   UNL     1       3.682   4.673  20.038  0.00  0.00    +0.000 HD
BRANCH  10  12
ATOM     12  S   UNL     1       3.706   2.429  19.834  0.00  0.00    +0.000 S 
ATOM     13  O   UNL     1       5.109   2.278  20.171  0.00  0.00    +0.000 OA
ATOM     14  O   UNL     1       3.029   1.529  18.926  0.00  0.00    +0.000 OA
BRANCH  12  16
ATOM     15  C   UNL     1       1.966   3.758  21.444  0.00  0.00    +0.000 C 
ATOM     16  C   UNL     1       2.762   2.472  21.348  0.00  0.00    +0.000 C 
ENDBRANCH  12  16
ENDBRANCH  10  12
ENDBRANCH   1  10
BRANCH   9  17
ATOM     17  C   UNL     1       3.628   6.811  17.926  0.00  0.00    +0.000 C 
BRANCH  17  18
ATOM     18  O   UNL     1       2.643   6.610  18.952  0.00  0.00    +0.000 OA
BRANCH  18  19
ATOM     19  C   UNL     1       2.241   7.837  19.591  0.00  0.00    +0.000 C 
ATOM     20  C   UNL     1       1.495   8.696  18.565  0.00  0.00    +0.000 C 
ATOM     21  C   UNL     1       0.986  10.010  19.168  0.00  0.00    +0.000 C 
ATOM     22  C   UNL     1       0.098   9.792  20.414  0.00  0.00    +0.000 C 
ATOM     23  C   UNL     1       0.847   8.904  21.421  0.00  0.00    +0.000 C 
ATOM     24  C   UNL     1       1.332   7.602  20.803  0.00  0.00    +0.000 C 
BRANCH  22  25
ATOM     25  C   UNL     1      -0.350  11.131  21.074  0.00  0.00    +0.000 C 
ATOM     26  C   UNL     1       0.707  12.237  20.921  0.00  0.00    +0.000 C 
ATOM     27  C   UNL     1      -0.658  10.971  22.568  0.00  0.00    +0.000 C 
ENDBRANCH  22  25
ENDBRANCH  18  19
ENDBRANCH  17  18
ENDBRANCH   9  17
TORSDOF 7
ENDMDL
MODEL 2
REMARK VINA RESULT:      -7.6      0.829      1.149
REMARK  Name = 
REMARK  11 active torsions:
REMARK  status: ('A' for Active; 'I' for Inactive)
REMARK    1  A    between atoms: C_1  and  C_2
REMARK    2  A    between atoms: C_2  and  S_3
REMARK    3  A    between atoms: S_3  and  N_6
REMARK    4  A    between atoms: N_6  and  C_7
REMARK    5  A    between atoms: C_12  and  C_13
REMARK    6  A    between atoms: C_15  and  C_16
REMARK    7  A    between atoms: C_16  and  O_17
REMARK    8  A    between atoms: O_17  and  C_18
REMARK    9  A    between atoms: C_21  and  C_22
REMARK   10  A    between atoms: C_22  and  C_23
REMARK   11  A    between atoms: C_22  and  C_24
REMARK                            x       y       z     vdW  Elec       q    Type
REMARK                         _______ _______ _______ _____ _____    ______ ____
ROOT
ATOM      1  C   UNL     1       4.518   4.382  18.296  0.00  0.00    +0.000 C 
ATOM      2  C   UNL     1       3.935   3.799  16.999  0.00  0.00    +0.000 C 
ATOM      3  C   UNL     1       4.903   3.992  15.838  0.00  0.00    +0.000 C 
ATOM      4  C   UNL     1       5.383   5.433  15.691  0.00  0.00    +0.000 C 
ATOM      5  N   UNL     1       5.847   5.982  16.967  0.00  0.00    +0.000 N 
ATOM      6  C   UNL     1       7.142   6.468  17.035  0.00  0.00    +0.000 C 
ATOM      7  C   UNL     1       7.693   7.033  18.321  0.00  0.00    +0.000 C 
ATOM      8  O   UNL     1       7.895   6.435  16.057  0.00  0.00    +0.000 OA
ATOM      9  C   UNL     1       4.861   5.893  18.088  0.00  0.00    +0.000 C 
ENDROOT
BRANCH   1  10
ATOM     10  N   UNL     1       3.601   4.151  19.473  0.00  0.00    +0.000 NA
ATOM     11  H   UNL     1       3.890   4.734  20.261  0.00  0.00    +0.000 HD
BRANCH  10  12
ATOM     12  S   UNL     1       3.557   2.521  19.997  0.00  0.00    +0.000 S 
ATOM     13  O   UNL     1       4.937   2.142  20.243  0.00  0.00    +0.000 OA
ATOM     14  O   UNL     1       2.698   1.770  19.109  0.00  0.00    +0.000 OA
BRANCH  12  16
ATOM     15  C   UNL     1       1.226   2.820  21.361  0.00  0.00    +0.000 C 
ATOM     16  C   UNL     1       2.720   2.657  21.566  0.00  0.00    +0.000 C 
ENDBRANCH  12  16
ENDBRANCH  10  12
ENDBRANCH   1  10
BRANCH   9  17
ATOM     17  C   UNL     1       3.597   6.750  17.812  0.00  0.00    +0.000 C 
BRANCH  17  18
ATOM     18  O   UNL     1       2.709   6.795  18.941  0.00  0.00    +0.000 OA
BRANCH  18  19
ATOM     19  C   UNL     1       2.285   8.133  19.267  0.00  0.00    +0.000 C 
ATOM     20  C   UNL     1       1.647   8.755  18.020  0.00  0.00    +0.000 C 
ATOM     21  C   UNL     1       1.121  10.171  18.282  0.00  0.00    +0.000 C 
ATOM     22  C   UNL     1       0.127  10.230  19.464  0.00  0.00    +0.000 C 
ATOM     23  C   UNL     1       0.768   9.575  20.699  0.00  0.00    +0.000 C 
ATOM     24  C   UNL     1       1.272   8.168  20.418  0.00  0.00    +0.000 C 
BRANCH  22  25
ATOM     25  C   UNL     1      -0.342  11.681  19.782  0.00  0.00    +0.000 C 
ATOM     26  C   UNL     1      -1.871  11.826  19.713  0.00  0.00    +0.000 C 
ATOM     27  C   UNL     1       0.277  12.716  18.836  0.00  0.00    +0.000 C 
ENDBRANCH  22  25
ENDBRANCH  18  19
ENDBRANCH  17  18
ENDBRANCH   9  17
TORSDOF 7
ENDMDL
MODEL 3
REMARK VINA RESULT:      -7.6      0.759      1.307
REMARK  Name = 
REMARK  11 active torsions:
REMARK  status: ('A' for Active; 'I' for Inactive)
REMARK    1  A    between atoms: C_1  and  C_2
REMARK    2  A    between atoms: C_2  and  S_3
REMARK    3  A    between atoms: S_3  and  N_6
REMARK    4  A    between atoms: N_6  and  C_7
REMARK    5  A    between atoms: C_12  and  C_13
REMARK    6  A    between atoms: C_15  and  C_16
REMARK    7  A    between atoms: C_16  and  O_17
REMARK    8  A    between atoms: O_17  and  C_18
REMARK    9  A    between atoms: C_21  and  C_22
REMARK   10  A    between atoms: C_22  and  C_23
REMARK   11  A    between atoms: C_22  and  C_24
REMARK                            x       y       z     vdW  Elec       q    Type
REMARK                         _______ _______ _______ _____ _____    ______ ____
ROOT
ATOM      1  C   UNL     1       4.634   4.326  18.348  0.00  0.00    +0.000 C 
ATOM      2  C   UNL     1       3.991   3.830  17.043  0.00  0.00    +0.000 C 
ATOM      3  C   UNL     1       4.907   4.097  15.855  0.00  0.00    +0.000 C 
ATOM      4  C   UNL     1       5.385   5.545  15.781  0.00  0.00    +0.000 C 
ATOM      5  N   UNL     1       5.908   6.009  17.068  0.00  0.00    +0.000 N 
ATOM      6  C   UNL     1       7.207   6.487  17.109  0.00  0.00    +0.000 C 
ATOM      7  C   UNL     1       7.817   6.967  18.402  0.00  0.00    +0.000 C 
ATOM      8  O   UNL     1       7.915   6.518  16.097  0.00  0.00    +0.000 OA
ATOM      9  C   UNL     1       4.974   5.847  18.223  0.00  0.00    +0.000 C 
ENDROOT
BRANCH   1  10
ATOM     10  N   UNL     1       3.769   4.020  19.547  0.00  0.00    +0.000 NA
ATOM     11  H   UNL     1       4.085   4.564  20.353  0.00  0.00    +0.000 HD
BRANCH  10  12
ATOM     12  S   UNL     1       3.767   2.364  19.983  0.00  0.00    +0.000 S 
ATOM     13  O   UNL     1       5.132   2.046  20.359  0.00  0.00    +0.000 OA
ATOM     14  O   UNL     1       3.052   1.618  18.972  0.00  0.00    +0.000 OA
BRANCH  12  16
ATOM     15  C   UNL     1       1.827   3.563  21.461  0.00  0.00    +0.000 C 
ATOM     16  C   UNL     1       2.761   2.369  21.457  0.00  0.00    +0.000 C 
ENDBRANCH  12  16
ENDBRANCH  10  12
ENDBRANCH   1  10
BRANCH   9  17
ATOM     17  C   UNL     1       3.701   6.722  18.062  0.00  0.00    +0.000 C 
BRANCH  17  18
ATOM     18  O   UNL     1       2.916   6.774  19.264  0.00  0.00    +0.000 OA
BRANCH  18  19
ATOM     19  C   UNL     1       1.800   7.679  19.165  0.00  0.00    +0.000 C 
ATOM     20  C   UNL     1       1.631   8.389  20.513  0.00  0.00    +0.000 C 
ATOM     21  C   UNL     1       0.490   9.411  20.492  0.00  0.00    +0.000 C 
ATOM     22  C   UNL     1       0.644  10.457  19.365  0.00  0.00    +0.000 C 
ATOM     23  C   UNL     1       0.842   9.732  18.024  0.00  0.00    +0.000 C 
ATOM     24  C   UNL     1       1.986   8.731  18.065  0.00  0.00    +0.000 C 
BRANCH  22  25
ATOM     25  C   UNL     1      -0.559  11.445  19.293  0.00  0.00    +0.000 C 
ATOM     26  C   UNL     1      -0.145  12.828  18.765  0.00  0.00    +0.000 C 
ATOM     27  C   UNL     1      -1.239  11.638  20.654  0.00  0.00    +0.000 C 
ENDBRANCH  22  25
ENDBRANCH  18  19
ENDBRANCH  17  18
ENDBRANCH   9  17
TORSDOF 7
ENDMDL
MODEL 4
REMARK VINA RESULT:      -7.5      1.156      1.333
REMARK  Name = 
REMARK  11 active torsions:
REMARK  status: ('A' for Active; 'I' for Inactive)
REMARK    1  A    between atoms: C_1  and  C_2
REMARK    2  A    between atoms: C_2  and  S_3
REMARK    3  A    between atoms: S_3  and  N_6
REMARK    4  A    between atoms: N_6  and  C_7
REMARK    5  A    between atoms: C_12  and  C_13
REMARK    6  A    between atoms: C_15  and  C_16
REMARK    7  A    between atoms: C_16  and  O_17
REMARK    8  A    between atoms: O_17  and  C_18
REMARK    9  A    between atoms: C_21  and  C_22
REMARK   10  A    between atoms: C_22  and  C_23
REMARK   11  A    between atoms: C_22  and  C_24
REMARK                            x       y       z     vdW  Elec       q    Type
REMARK                         _______ _______ _______ _____ _____    ______ ____
ROOT
ATOM      1  C   UNL     1       4.393   4.440  18.422  0.00  0.00    +0.000 C 
ATOM      2  C   UNL     1       3.746   3.887  17.142  0.00  0.00    +0.000 C 
ATOM      3  C   UNL     1       4.692   4.027  15.956  0.00  0.00    +0.000 C 
ATOM      4  C   UNL     1       5.243   5.440  15.792  0.00  0.00    +0.000 C 
ATOM      5  N   UNL     1       5.769   5.966  17.054  0.00  0.00    +0.000 N 
ATOM      6  C   UNL     1       7.089   6.382  17.085  0.00  0.00    +0.000 C 
ATOM      7  C   UNL     1       7.703   6.919  18.354  0.00  0.00    +0.000 C 
ATOM      8  O   UNL     1       7.813   6.308  16.088  0.00  0.00    +0.000 OA
ATOM      9  C   UNL     1       4.810   5.931  18.200  0.00  0.00    +0.000 C 
ENDROOT
BRANCH   1  10
ATOM     10  N   UNL     1       3.496   4.261  19.623  0.00  0.00    +0.000 NA
ATOM     11  H   UNL     1       3.780   4.898  20.369  0.00  0.00    +0.000 HD
BRANCH  10  12
ATOM     12  S   UNL     1       3.502   2.666  20.248  0.00  0.00    +0.000 S 
ATOM     13  O   UNL     1       3.035   2.770  21.618  0.00  0.00    +0.000 OA
ATOM     14  O   UNL     1       4.759   2.037  19.907  0.00  0.00    +0.000 OA
BRANCH  12  16
ATOM     15  C   UNL     1       0.954   2.701  19.302  0.00  0.00    +0.000 C 
ATOM     16  C   UNL     1       2.229   1.881  19.274  0.00  0.00    +0.000 C 
ENDBRANCH  12  16
ENDBRANCH  10  12
ENDBRANCH   1  10
BRANCH   9  17
ATOM     17  C   UNL     1       3.586   6.853  17.956  0.00  0.00    +0.000 C 
BRANCH  17  18
ATOM     18  O   UNL     1       2.697   6.893  19.083  0.00  0.00    +0.000 OA
BRANCH  18  19
ATOM     19  C   UNL     1       2.163   8.209  19.329  0.00  0.00    +0.000 C 
ATOM     20  C   UNL     1       1.420   8.673  18.071  0.00  0.00    +0.000 C 
ATOM     21  C   UNL     1       0.775  10.051  18.253  0.00  0.00    +0.000 C 
ATOM     22  C   UNL     1      -0.171  10.113  19.473  0.00  0.00    +0.000 C 
ATOM     23  C   UNL     1       0.578   9.617  20.720  0.00  0.00    +0.000 C 
ATOM     24  C   UNL     1       1.199   8.243  20.521  0.00  0.00    +0.000 C 
BRANCH  22  25
ATOM     25  C   UNL     1      -0.760  11.537  19.705  0.00  0.00    +0.000 C 
ATOM     26  C   UNL     1      -1.028  12.277  18.384  0.00  0.00    +0.000 C 
ATOM     27  C   UNL     1       0.155  12.415  20.566  0.00  0.00    +0.000 C 
ENDBRANCH  22  25
ENDBRANCH  18  19
ENDBRANCH  17  18
ENDBRANCH   9  17
TORSDOF 7
ENDMDL
MODEL 5
REMARK VINA RESULT:      -7.2      1.195      1.868
REMARK  Name = 
REMARK  11 active torsions:
REMARK  status: ('A' for Active; 'I' for Inactive)
REMARK    1  A    between atoms: C_1  and  C_2
REMARK    2  A    between atoms: C_2  and  S_3
REMARK    3  A    between atoms: S_3  and  N_6
REMARK    4  A    between atoms: N_6  and  C_7
REMARK    5  A    between atoms: C_12  and  C_13
REMARK    6  A    between atoms: C_15  and  C_16
REMARK    7  A    between atoms: C_16  and  O_17
REMARK    8  A    between atoms: O_17  and  C_18
REMARK    9  A    between atoms: C_21  and  C_22
REMARK   10  A    between atoms: C_22  and  C_23
REMARK   11  A    between atoms: C_22  and  C_24
REMARK                            x       y       z     vdW  Elec       q    Type
REMARK                         _______ _______ _______ _____ _____    ______ ____
ROOT
ATOM      1  C   UNL     1       4.451   4.135  18.307  0.00  0.00    +0.000 C 
ATOM      2  C   UNL     1       3.801   3.717  16.979  0.00  0.00    +0.000 C 
ATOM      3  C   UNL     1       4.731   4.009  15.808  0.00  0.00    +0.000 C 
ATOM      4  C   UNL     1       5.254   5.443  15.801  0.00  0.00    +0.000 C 
ATOM      5  N   UNL     1       5.783   5.833  17.110  0.00  0.00    +0.000 N 
ATOM      6  C   UNL     1       7.096   6.269  17.178  0.00  0.00    +0.000 C 
ATOM      7  C   UNL     1       7.712   6.671  18.494  0.00  0.00    +0.000 C 
ATOM      8  O   UNL     1       7.810   6.322  16.172  0.00  0.00    +0.000 OA
ATOM      9  C   UNL     1       4.837   5.649  18.252  0.00  0.00    +0.000 C 
ENDROOT
BRANCH   1  10
ATOM     10  N   UNL     1       3.570   3.803  19.487  0.00  0.00    +0.000 NA
ATOM     11  H   UNL     1       4.051   3.151  20.110  0.00  0.00    +0.000 HD
BRANCH  10  12
ATOM     12  S   UNL     1       2.066   3.113  19.045  0.00  0.00    +0.000 S 
ATOM     13  O   UNL     1       2.356   1.755  18.624  0.00  0.00    +0.000 OA
ATOM     14  O   UNL     1       1.356   4.047  18.200  0.00  0.00    +0.000 OA
BRANCH  12  16
ATOM     15  C   UNL     1       2.198   2.903  21.751  0.00  0.00    +0.000 C 
ATOM     16  C   UNL     1       1.211   3.050  20.610  0.00  0.00    +0.000 C 
ENDBRANCH  12  16
ENDBRANCH  10  12
ENDBRANCH   1  10
BRANCH   9  17
ATOM     17  C   UNL     1       3.593   6.568  18.124  0.00  0.00    +0.000 C 
BRANCH  17  18
ATOM     18  O   UNL     1       3.022   6.898  19.400  0.00  0.00    +0.000 OA
BRANCH  18  19
ATOM     19  C   UNL     1       1.822   7.688  19.290  0.00  0.00    +0.000 C 
ATOM     20  C   UNL     1       1.537   8.328  20.653  0.00  0.00    +0.000 C 
ATOM     21  C   UNL     1       0.298   9.229  20.623  0.00  0.00    +0.000 C 
ATOM     22  C   UNL     1       0.380  10.324  19.537  0.00  0.00    +0.000 C 
ATOM     23  C   UNL     1       0.696   9.672  18.182  0.00  0.00    +0.000 C 
ATOM     24  C   UNL     1       1.936   8.792  18.232  0.00  0.00    +0.000 C 
BRANCH  22  25
ATOM     25  C   UNL     1      -0.915  11.187  19.453  0.00  0.00    +0.000 C 
ATOM     26  C   UNL     1      -1.876  10.687  18.363  0.00  0.00    +0.000 C 
ATOM     27  C   UNL     1      -0.616  12.666  19.182  0.00  0.00    +0.000 C 
ENDBRANCH  22  25
ENDBRANCH  18  19
ENDBRANCH  17  18
ENDBRANCH   9  17
TORSDOF 7
ENDMDL
MODEL 6
REMARK VINA RESULT:      -7.2      1.130      1.404
REMARK  Name = 
REMARK  11 active torsions:
REMARK  status: ('A' for Active; 'I' for Inactive)
REMARK    1  A    between atoms: C_1  and  C_2
REMARK    2  A    between atoms: C_2  and  S_3
REMARK    3  A    between atoms: S_3  and  N_6
REMARK    4  A    between atoms: N_6  and  C_7
REMARK    5  A    between atoms: C_12  and  C_13
REMARK    6  A    between atoms: C_15  and  C_16
REMARK    7  A    between atoms: C_16  and  O_17
REMARK    8  A    between atoms: O_17  and  C_18
REMARK    9  A    between atoms: C_21  and  C_22
REMARK   10  A    between atoms: C_22  and  C_23
REMARK   11  A    between atoms: C_22  and  C_24
REMARK                            x       y       z     vdW  Elec       q    Type
REMARK                         _______ _______ _______ _____ _____    ______ ____
ROOT
ATOM      1  C   UNL     1       3.771   4.273  18.108  0.00  0.00    +0.000 C 
ATOM      2  C   UNL     1       3.540   3.968  16.620  0.00  0.00    +0.000 C 
ATOM      3  C   UNL     1       4.868   3.836  15.884  0.00  0.00    +0.000 C 
ATOM      4  C   UNL     1       5.804   5.017  16.121  0.00  0.00    +0.000 C 
ATOM      5  N   UNL     1       5.928   5.333  17.546  0.00  0.00    +0.000 N 
ATOM      6  C   UNL     1       7.194   5.327  18.107  0.00  0.00    +0.000 C 
ATOM      7  C   UNL     1       7.395   5.627  19.571  0.00  0.00    +0.000 C 
ATOM      8  O   UNL     1       8.195   5.055  17.437  0.00  0.00    +0.000 OA
ATOM      9  C   UNL     1       4.633   5.570  18.253  0.00  0.00    +0.000 C 
ENDROOT
BRANCH   1  10
ATOM     10  N   UNL     1       2.470   4.352  18.870  0.00  0.00    +0.000 NA
ATOM     11  H   UNL     1       2.616   4.825  19.764  0.00  0.00    +0.000 HD
BRANCH  10  12
ATOM     12  S   UNL     1       1.765   2.822  19.180  0.00  0.00    +0.000 S 
ATOM     13  O   UNL     1       2.868   1.882  19.262  0.00  0.00    +0.000 OA
ATOM     14  O   UNL     1       0.654   2.629  18.274  0.00  0.00    +0.000 OA
BRANCH  12  16
ATOM     15  C   UNL     1       2.130   2.728  21.871  0.00  0.00    +0.000 C 
ATOM     16  C   UNL     1       1.090   3.048  20.815  0.00  0.00    +0.000 C 
ENDBRANCH  12  16
ENDBRANCH  10  12
ENDBRANCH   1  10
BRANCH   9  17
ATOM     17  C   UNL     1       3.900   6.826  17.710  0.00  0.00    +0.000 C 
BRANCH  17  18
ATOM     18  O   UNL     1       2.521   6.872  18.111  0.00  0.00    +0.000 OA
BRANCH  18  19
ATOM     19  C   UNL     1       2.252   7.911  19.072  0.00  0.00    +0.000 C 
ATOM     20  C   UNL     1       1.329   8.947  18.419  0.00  0.00    +0.000 C 
ATOM     21  C   UNL     1       0.947  10.074  19.384  0.00  0.00    +0.000 C 
ATOM     22  C   UNL     1       0.308   9.553  20.691  0.00  0.00    +0.000 C 
ATOM     23  C   UNL     1       1.230   8.494  21.318  0.00  0.00    +0.000 C 
ATOM     24  C   UNL     1       1.585   7.380  20.347  0.00  0.00    +0.000 C 
BRANCH  22  25
ATOM     25  C   UNL     1      -0.002  10.695  21.705  0.00  0.00    +0.000 C 
ATOM     26  C   UNL     1      -0.415  10.152  23.082  0.00  0.00    +0.000 C 
ATOM     27  C   UNL     1      -1.112  11.630  21.210  0.00  0.00    +0.000 C 
ENDBRANCH  22  25
ENDBRANCH  18  19
ENDBRANCH  17  18
ENDBRANCH   9  17
TORSDOF 7
ENDMDL
MODEL 7
REMARK VINA RESULT:      -7.1      1.138      1.573
REMARK  Name = 
REMARK  11 active torsions:
REMARK  status: ('A' for Active; 'I' for Inactive)
REMARK    1  A    between atoms: C_1  and  C_2
REMARK    2  A    between atoms: C_2  and  S_3
REMARK    3  A    between atoms: S_3  and  N_6
REMARK    4  A    between atoms: N_6  and  C_7
REMARK    5  A    between atoms: C_12  and  C_13
REMARK    6  A    between atoms: C_15  and  C_16
REMARK    7  A    between atoms: C_16  and  O_17
REMARK    8  A    between atoms: O_17  and  C_18
REMARK    9  A    between atoms: C_21  and  C_22
REMARK   10  A    between atoms: C_22  and  C_23
REMARK   11  A    between atoms: C_22  and  C_24
REMARK                            x       y       z     vdW  Elec       q    Type
REMARK                         _______ _______ _______ _____ _____    ______ ____
ROOT
ATOM      1  C   UNL     1       4.446   4.325  18.443  0.00  0.00    +0.000 C 
ATOM      2  C   UNL     1       3.967   3.449  17.275  0.00  0.00    +0.000 C 
ATOM      3  C   UNL     1       4.954   3.510  16.115  0.00  0.00    +0.000 C 
ATOM      4  C   UNL     1       5.300   4.937  15.698  0.00  0.00    +0.000 C 
ATOM      5  N   UNL     1       5.664   5.764  16.850  0.00  0.00    +0.000 N 
ATOM      6  C   UNL     1       6.905   6.380  16.843  0.00  0.00    +0.000 C 
ATOM      7  C   UNL     1       7.353   7.235  18.003  0.00  0.00    +0.000 C 
ATOM      8  O   UNL     1       7.692   6.235  15.903  0.00  0.00    +0.000 OA
ATOM      9  C   UNL     1       4.652   5.795  17.949  0.00  0.00    +0.000 C 
ENDROOT
BRANCH   1  10
ATOM     10  N   UNL     1       3.513   4.236  19.626  0.00  0.00    +0.000 NA
ATOM     11  H   UNL     1       3.798   4.901  20.347  0.00  0.00    +0.000 HD
BRANCH  10  12
ATOM     12  S   UNL     1       3.449   2.675  20.329  0.00  0.00    +0.000 S 
ATOM     13  O   UNL     1       2.950   2.864  21.679  0.00  0.00    +0.000 OA
ATOM     14  O   UNL     1       4.693   1.990  20.056  0.00  0.00    +0.000 OA
BRANCH  12  16
ATOM     15  C   UNL     1       0.925   2.738  19.323  0.00  0.00    +0.000 C 
ATOM     16  C   UNL     1       2.176   1.883  19.361  0.00  0.00    +0.000 C 
ENDBRANCH  12  16
ENDBRANCH  10  12
ENDBRANCH   1  10
BRANCH   9  17
ATOM     17  C   UNL     1       3.323   6.452  17.491  0.00  0.00    +0.000 C 
BRANCH  17  18
ATOM     18  O   UNL     1       3.277   7.858  17.784  0.00  0.00    +0.000 OA
BRANCH  18  19
ATOM     19  C   UNL     1       2.099   8.239  18.520  0.00  0.00    +0.000 C 
ATOM     20  C   UNL     1       2.269   7.787  19.975  0.00  0.00    +0.000 C 
ATOM     21  C   UNL     1       1.079   8.191  20.851  0.00  0.00    +0.000 C 
ATOM     22  C   UNL     1       0.787   9.708  20.803  0.00  0.00    +0.000 C 
ATOM     23  C   UNL     1       0.648  10.151  19.338  0.00  0.00    +0.000 C 
ATOM     24  C   UNL     1       1.846   9.751  18.491  0.00  0.00    +0.000 C 
BRANCH  22  25
ATOM     25  C   UNL     1      -0.474  10.104  21.628  0.00  0.00    +0.000 C 
ATOM     26  C   UNL     1      -0.697  11.624  21.656  0.00  0.00    +0.000 C 
ATOM     27  C   UNL     1      -0.404   9.607  23.077  0.00  0.00    +0.000 C 
ENDBRANCH  22  25
ENDBRANCH  18  19
ENDBRANCH  17  18
ENDBRANCH   9  17
TORSDOF 7
ENDMDL
MODEL 8
REMARK VINA RESULT:      -7.1      1.411      1.569
REMARK  Name = 
REMARK  11 active torsions:
REMARK  status: ('A' for Active; 'I' for Inactive)
REMARK    1  A    between atoms: C_1  and  C_2
REMARK    2  A    between atoms: C_2  and  S_3
REMARK    3  A    between atoms: S_3  and  N_6
REMARK    4  A    between atoms: N_6  and  C_7
REMARK    5  A    between atoms: C_12  and  C_13
REMARK    6  A    between atoms: C_15  and  C_16
REMARK    7  A    between atoms: C_16  and  O_17
REMARK    8  A    between atoms: O_17  and  C_18
REMARK    9  A    between atoms: C_21  and  C_22
REMARK   10  A    between atoms: C_22  and  C_23
REMARK   11  A    between atoms: C_22  and  C_24
REMARK                            x       y       z     vdW  Elec       q    Type
REMARK                         _______ _______ _______ _____ _____    ______ ____
ROOT
ATOM      1  C   UNL     1       3.907   4.464  18.798  0.00  0.00    +0.000 C 
ATOM      2  C   UNL     1       3.260   3.918  17.516  0.00  0.00    +0.000 C 
ATOM      3  C   UNL     1       4.320   3.608  16.466  0.00  0.00    +0.000 C 
ATOM      4  C   UNL     1       5.272   4.774  16.214  0.00  0.00    +0.000 C 
ATOM      5  N   UNL     1       5.798   5.324  17.466  0.00  0.00    +0.000 N 
ATOM      6  C   UNL     1       7.172   5.362  17.634  0.00  0.00    +0.000 C 
ATOM      7  C   UNL     1       7.784   5.900  18.903  0.00  0.00    +0.000 C 
ATOM      8  O   UNL     1       7.940   4.939  16.764  0.00  0.00    +0.000 OA
ATOM      9  C   UNL     1       4.760   5.730  18.461  0.00  0.00    +0.000 C 
ENDROOT
BRANCH   1  10
ATOM     10  N   UNL     1       2.880   4.725  19.874  0.00  0.00    +0.000 NA
ATOM     11  H   UNL     1       3.259   5.368  20.571  0.00  0.00    +0.000 HD
BRANCH  10  12
ATOM     12  S   UNL     1       2.358   3.306  20.679  0.00  0.00    +0.000 S 
ATOM     13  O   UNL     1       2.284   3.649  22.088  0.00  0.00    +0.000 OA
ATOM     14  O   UNL     1       3.136   2.185  20.199  0.00  0.00    +0.000 OA
BRANCH  12  16
ATOM     15  C   UNL     1       0.678   2.159  18.878  0.00  0.00    +0.000 C 
ATOM     16  C   UNL     1       0.698   3.113  20.056  0.00  0.00    +0.000 C 
ENDBRANCH  12  16
ENDBRANCH  10  12
ENDBRANCH   1  10
BRANCH   9  17
ATOM     17  C   UNL     1       3.888   6.903  17.938  0.00  0.00    +0.000 C 
BRANCH  17  18
ATOM     18  O   UNL     1       2.567   6.898  18.503  0.00  0.00    +0.000 OA
BRANCH  18  19
ATOM     19  C   UNL     1       2.199   8.167  19.077  0.00  0.00    +0.000 C 
ATOM     20  C   UNL     1       1.341   8.928  18.059  0.00  0.00    +0.000 C 
ATOM     21  C   UNL     1       0.859  10.278  18.599  0.00  0.00    +0.000 C 
ATOM     22  C   UNL     1       0.096  10.150  19.937  0.00  0.00    +0.000 C 
ATOM     23  C   UNL     1       0.955   9.361  20.937  0.00  0.00    +0.000 C 
ATOM     24  C   UNL     1       1.411   8.020  20.384  0.00  0.00    +0.000 C 
BRANCH  22  25
ATOM     25  C   UNL     1      -0.319  11.532  20.526  0.00  0.00    +0.000 C 
ATOM     26  C   UNL     1      -0.528  11.475  22.048  0.00  0.00    +0.000 C 
ATOM     27  C   UNL     1      -1.603  12.076  19.889  0.00  0.00    +0.000 C 
ENDBRANCH  22  25
ENDBRANCH  18  19
ENDBRANCH  17  18
ENDBRANCH   9  17
TORSDOF 7
ENDMDL
MODEL 9
REMARK VINA RESULT:      -7.1      0.975      1.184
REMARK  Name = 
REMARK  11 active torsions:
REMARK  status: ('A' for Active; 'I' for Inactive)
REMARK    1  A    between atoms: C_1  and  C_2
REMARK    2  A    between atoms: C_2  and  S_3
REMARK    3  A    between atoms: S_3  and  N_6
REMARK    4  A    between atoms: N_6  and  C_7
REMARK    5  A    between atoms: C_12  and  C_13
REMARK    6  A    between atoms: C_15  and  C_16
REMARK    7  A    between atoms: C_16  and  O_17
REMARK    8  A    between atoms: O_17  and  C_18
REMARK    9  A    between atoms: C_21  and  C_22
REMARK   10  A    between atoms: C_22  and  C_23
REMARK   11  A    between atoms: C_22  and  C_24
REMARK                            x       y       z     vdW  Elec       q    Type
REMARK                         _______ _______ _______ _____ _____    ______ ____
ROOT
ATOM      1  C   UNL     1       4.928   4.041  18.106  0.00  0.00    +0.000 C 
ATOM      2  C   UNL     1       4.355   3.604  16.748  0.00  0.00    +0.000 C 
ATOM      3  C   UNL     1       5.254   4.070  15.609  0.00  0.00    +0.000 C 
ATOM      4  C   UNL     1       5.581   5.559  15.675  0.00  0.00    +0.000 C 
ATOM      5  N   UNL     1       6.038   5.954  17.010  0.00  0.00    +0.000 N 
ATOM      6  C   UNL     1       7.280   6.556  17.121  0.00  0.00    +0.000 C 
ATOM      7  C   UNL     1       7.821   6.975  18.466  0.00  0.00    +0.000 C 
ATOM      8  O   UNL     1       7.993   6.750  16.133  0.00  0.00    +0.000 OA
ATOM      9  C   UNL     1       5.111   5.594  18.125  0.00  0.00    +0.000 C 
ENDROOT
BRANCH   1  10
ATOM     10  N   UNL     1       4.084   3.541  19.254  0.00  0.00    +0.000 NA
ATOM     11  H   UNL     1       4.658   2.988  19.894  0.00  0.00    +0.000 HD
BRANCH  10  12
ATOM     12  S   UNL     1       2.755   2.582  18.758  0.00  0.00    +0.000 S 
ATOM     13  O   UNL     1       3.299   1.272  18.447  0.00  0.00    +0.000 OA
ATOM     14  O   UNL     1       1.967   3.334  17.807  0.00  0.00    +0.000 OA
BRANCH  12  16
ATOM     15  C   UNL     1       0.957   3.698  20.463  0.00  0.00    +0.000 C 
ATOM     16  C   UNL     1       1.804   2.457  20.263  0.00  0.00    +0.000 C 
ENDBRANCH  12  16
ENDBRANCH  10  12
ENDBRANCH   1  10
BRANCH   9  17
ATOM     17  C   UNL     1       3.757   6.346  18.015  0.00  0.00    +0.000 C 
BRANCH  17  18
ATOM     18  O   UNL     1       3.003   6.298  19.237  0.00  0.00    +0.000 OA
BRANCH  18  19
ATOM     19  C   UNL     1       2.495   7.587  19.633  0.00  0.00    +0.000 C 
ATOM     20  C   UNL     1       1.977   8.307  18.382  0.00  0.00    +0.000 C 
ATOM     21  C   UNL     1       1.371   9.676  18.710  0.00  0.00    +0.000 C 
ATOM     22  C   UNL     1       0.251   9.597  19.771  0.00  0.00    +0.000 C 
ATOM     23  C   UNL     1       0.775   8.846  21.006  0.00  0.00    +0.000 C 
ATOM     24  C   UNL     1       1.360   7.487  20.658  0.00  0.00    +0.000 C 
BRANCH  22  25
ATOM     25  C   UNL     1      -0.306  10.998  20.164  0.00  0.00    +0.000 C 
ATOM     26  C   UNL     1      -0.880  11.755  18.955  0.00  0.00    +0.000 C 
ATOM     27  C   UNL     1       0.758  11.886  20.820  0.00  0.00    +0.000 C 
ENDBRANCH  22  25
ENDBRANCH  18  19
ENDBRANCH  17  18
ENDBRANCH   9  17
TORSDOF 7
ENDMDL
