MODEL 1
REMARK VINA RESULT:      -7.2      0.000      0.000
REMARK  Name = 
REMARK  6 active torsions:
REMARK  status: ('A' for Active; 'I' for Inactive)
REMARK    1  A    between atoms: C_1  and  C_2
REMARK    2  A    between atoms: C_2  and  N_3
REMARK    3  A    between atoms: C_5  and  C_6
REMARK    4  A    between atoms: C_5  and  C_7
REMARK    5  A    between atoms: C_11  and  C_12
REMARK    6  A    between atoms: C_12  and  C_13
REMARK                            x       y       z     vdW  Elec       q    Type
REMARK                         _______ _______ _______ _____ _____    ______ ____
ROOT
ATOM      1  N   UNL     1       3.401   5.741  19.133  0.00  0.00    +0.000 NA
ATOM      2  C   UNL     1       3.408   4.833  20.291  0.00  0.00    +0.000 C 
ATOM      3  C   UNL     1       2.375   3.683  20.237  0.00  0.00    +0.000 C 
ATOM      4  C   UNL     1       0.930   4.117  20.534  0.00  0.00    +0.000 C 
ATOM      5  C   UNL     1       2.772   2.602  21.245  0.00  0.00    +0.000 C 
ATOM      6  O   UNL     1       2.376   3.041  18.943  0.00  0.00    +0.000 OA
ATOM      7  C   UNL     1       2.414   3.826  17.836  0.00  0.00    +0.000 C 
ATOM      8  O   UNL     1       1.835   3.486  16.812  0.00  0.00    +0.000 OA
ATOM      9  C   UNL     1       3.430   4.966  17.856  0.00  0.00    +0.000 C 
ENDROOT
BRANCH   1  11
ATOM     10  C   UNL     1       2.534   7.812  18.021  0.00  0.00    +0.000 C 
ATOM     11  C   UNL     1       2.358   6.775  19.127  0.00  0.00    +0.000 C 
ENDBRANCH   1  11
BRANCH   9  12
ATOM     12  C   UNL     1       4.833   4.399  17.587  0.00  0.00    +0.000 C 
BRANCH  12  13
ATOM     13  C   UNL     1       5.459   4.874  16.286  0.00  0.00    +0.000 C 
ATOM     14  O   UNL     1       5.587   6.075  16.057  0.00  0.00    +0.000 OA
ATOM     15  N   UNL     1       5.864   3.863  15.439  0.00  0.00    +0.000 N 
ATOM     16  C   UNL     1       6.454   4.093  14.192  0.00  0.00    +0.000 A 
ATOM     17  C   UNL     1       7.390   5.081  13.986  0.00  0.00    +0.000 A 
ATOM     18  C   UNL     1       7.842   5.211  12.695  0.00  0.00    +0.000 A 
ATOM     19  N   UNL     1       7.401   4.454  11.673  0.00  0.00    +0.000 NA
ATOM     20  C   UNL     1       6.504   3.513  11.998  0.00  0.00    +0.000 A 
ATOM     21  N   UNL     1       6.042   3.257  13.227  0.00  0.00    +0.000 NA
ATOM     22  H   UNL     1       5.338   2.997  15.429  0.00  0.00    +0.000 HD
ENDBRANCH  12  13
ENDBRANCH   9  12
TORSDOF 3
ENDMDL
MODEL 2
REMARK VINA RESULT:      -7.1      1.025      1.318
REMARK  Name = 
REMARK  6 active torsions:
REMARK  status: ('A' for Active; 'I' for Inactive)
REMARK    1  A    between atoms: C_1  and  C_2
REMARK    2  A    between atoms: C_2  and  N_3
REMARK    3  A    between atoms: C_5  and  C_6
REMARK    4  A    between atoms: C_5  and  C_7
REMARK    5  A    between atoms: C_11  and  C_12
REMARK    6  A    between atoms: C_12  and  C_13
REMARK                            x       y       z     vdW  Elec       q    Type
REMARK                         _______ _______ _______ _____ _____    ______ ____
ROOT
ATOM      1  N   UNL     1       3.423   5.866  19.265  0.00  0.00    +0.000 NA
ATOM      2  C   UNL     1       3.302   4.984  20.437  0.00  0.00    +0.000 C 
ATOM      3  C   UNL     1       2.319   3.801  20.277  0.00  0.00    +0.000 C 
ATOM      4  C   UNL     1       0.835   4.196  20.371  0.00  0.00    +0.000 C 
ATOM      5  C   UNL     1       2.610   2.756  21.357  0.00  0.00    +0.000 C 
ATOM      6  O   UNL     1       2.509   3.132  19.012  0.00  0.00    +0.000 OA
ATOM      7  C   UNL     1       2.671   3.893  17.900  0.00  0.00    +0.000 C 
ATOM      8  O   UNL     1       2.241   3.512  16.818  0.00  0.00    +0.000 OA
ATOM      9  C   UNL     1       3.642   5.064  18.023  0.00  0.00    +0.000 C 
ENDROOT
BRANCH   1  11
ATOM     10  C   UNL     1       2.580   7.792  17.903  0.00  0.00    +0.000 C 
ATOM     11  C   UNL     1       2.361   6.866  19.096  0.00  0.00    +0.000 C 
ENDBRANCH   1  11
BRANCH   9  12
ATOM     12  C   UNL     1       5.083   4.537  17.956  0.00  0.00    +0.000 C 
BRANCH  12  13
ATOM     13  C   UNL     1       5.503   4.043  16.581  0.00  0.00    +0.000 C 
ATOM     14  O   UNL     1       5.410   2.853  16.290  0.00  0.00    +0.000 OA
ATOM     15  N   UNL     1       5.960   5.028  15.730  0.00  0.00    +0.000 N 
ATOM     16  C   UNL     1       6.401   4.777  14.427  0.00  0.00    +0.000 A 
ATOM     17  C   UNL     1       5.761   3.895  13.585  0.00  0.00    +0.000 A 
ATOM     18  C   UNL     1       6.342   3.722  12.352  0.00  0.00    +0.000 A 
ATOM     19  N   UNL     1       7.474   4.341  11.971  0.00  0.00    +0.000 NA
ATOM     20  C   UNL     1       7.998   5.190  12.867  0.00  0.00    +0.000 A 
ATOM     21  N   UNL     1       7.484   5.481  14.068  0.00  0.00    +0.000 NA
ATOM     22  H   UNL     1       6.452   5.822  16.124  0.00  0.00    +0.000 HD
ENDBRANCH  12  13
ENDBRANCH   9  12
TORSDOF 3
ENDMDL
MODEL 3
REMARK VINA RESULT:      -6.9      1.602      2.450
REMARK  Name = 
REMARK  6 active torsions:
REMARK  status: ('A' for Active; 'I' for Inactive)
REMARK    1  A    between atoms: C_1  and  C_2
REMARK    2  A    between atoms: C_2  and  N_3
REMARK    3  A    between atoms: C_5  and  C_6
REMARK    4  A    between atoms: C_5  and  C_7
REMARK    5  A    between atoms: C_11  and  C_12
REMARK    6  A    between atoms: C_12  and  C_13
REMARK                            x       y       z     vdW  Elec       q    Type
REMARK                         _______ _______ _______ _____ _____    ______ ____
ROOT
ATOM      1  N   UNL     1       2.683   4.177  17.598  0.00  0.00    +0.000 NA
ATOM      2  C   UNL     1       1.816   4.901  18.542  0.00  0.00    +0.000 C 
ATOM      3  C   UNL     1       2.220   4.789  20.031  0.00  0.00    +0.000 C 
ATOM      4  C   UNL     1       1.868   3.440  20.680  0.00  0.00    +0.000 C 
ATOM      5  C   UNL     1       1.530   5.901  20.824  0.00  0.00    +0.000 C 
ATOM      6  O   UNL     1       3.638   4.994  20.204  0.00  0.00    +0.000 OA
ATOM      7  C   UNL     1       4.487   4.387  19.336  0.00  0.00    +0.000 C 
ATOM      8  O   UNL     1       5.585   3.996  19.712  0.00  0.00    +0.000 OA
ATOM      9  C   UNL     1       4.121   4.488  17.858  0.00  0.00    +0.000 C 
ENDROOT
BRANCH   1  11
ATOM     10  C   UNL     1       3.679   1.884  17.768  0.00  0.00    +0.000 C 
ATOM     11  C   UNL     1       2.444   2.733  17.478  0.00  0.00    +0.000 C 
ENDBRANCH   1  11
BRANCH   9  12
ATOM     12  C   UNL     1       4.483   5.888  17.340  0.00  0.00    +0.000 C 
BRANCH  12  13
ATOM     13  C   UNL     1       5.206   5.891  16.002  0.00  0.00    +0.000 C 
ATOM     14  O   UNL     1       5.553   6.949  15.483  0.00  0.00    +0.000 OA
ATOM     15  N   UNL     1       5.435   4.639  15.470  0.00  0.00    +0.000 N 
ATOM     16  C   UNL     1       6.077   4.430  14.245  0.00  0.00    +0.000 A 
ATOM     17  C   UNL     1       7.180   5.155  13.852  0.00  0.00    +0.000 A 
ATOM     18  C   UNL     1       7.668   4.863  12.602  0.00  0.00    +0.000 A 
ATOM     19  N   UNL     1       7.115   3.950  11.782  0.00  0.00    +0.000 NA
ATOM     20  C   UNL     1       6.057   3.294  12.279  0.00  0.00    +0.000 A 
ATOM     21  N   UNL     1       5.537   3.453  13.502  0.00  0.00    +0.000 NA
ATOM     22  H   UNL     1       4.763   3.903  15.648  0.00  0.00    +0.000 HD
ENDBRANCH  12  13
ENDBRANCH   9  12
TORSDOF 3
ENDMDL
MODEL 4
REMARK VINA RESULT:      -6.8      3.003      7.370
REMARK  Name = 
REMARK  6 active torsions:
REMARK  status: ('A' for Active; 'I' for Inactive)
REMARK    1  A    between atoms: C_1  and  C_2
REMARK    2  A    between atoms: C_2  and  N_3
REMARK    3  A    between atoms: C_5  and  C_6
REMARK    4  A    between atoms: C_5  and  C_7
REMARK    5  A    between atoms: C_11  and  C_12
REMARK    6  A    between atoms: C_12  and  C_13
REMARK                            x       y       z     vdW  Elec       q    Type
REMARK                         _______ _______ _______ _____ _____    ______ ____
ROOT
ATOM      1  N   UNL     1       5.476   6.544  17.487  0.00  0.00    +0.000 NA
ATOM      2  C   UNL     1       5.519   6.163  16.066  0.00  0.00    +0.000 C 
ATOM      3  C   UNL     1       5.733   4.657  15.790  0.00  0.00    +0.000 C 
ATOM      4  C   UNL     1       7.177   4.174  16.005  0.00  0.00    +0.000 C 
ATOM      5  C   UNL     1       5.330   4.347  14.347  0.00  0.00    +0.000 C 
ATOM      6  O   UNL     1       4.878   3.847  16.626  0.00  0.00    +0.000 OA
ATOM      7  C   UNL     1       4.762   4.175  17.938  0.00  0.00    +0.000 C 
ATOM      8  O   UNL     1       4.612   3.304  18.786  0.00  0.00    +0.000 OA
ATOM      9  C   UNL     1       4.542   5.654  18.243  0.00  0.00    +0.000 C 
ENDROOT
BRANCH   1  11
ATOM     10  C   UNL     1       7.678   7.738  17.536  0.00  0.00    +0.000 C 
ATOM     11  C   UNL     1       6.774   6.678  18.160  0.00  0.00    +0.000 C 
ENDBRANCH   1  11
BRANCH   9  12
ATOM     12  C   UNL     1       3.078   6.019  17.951  0.00  0.00    +0.000 C 
BRANCH  12  13
ATOM     13  C   UNL     1       2.646   7.362  18.518  0.00  0.00    +0.000 C 
ATOM     14  O   UNL     1       2.927   8.406  17.934  0.00  0.00    +0.000 OA
ATOM     15  N   UNL     1       1.923   7.285  19.690  0.00  0.00    +0.000 N 
ATOM     16  C   UNL     1       1.442   8.408  20.373  0.00  0.00    +0.000 A 
ATOM     17  C   UNL     1       0.892   9.490  19.724  0.00  0.00    +0.000 A 
ATOM     18  C   UNL     1       0.507  10.534  20.531  0.00  0.00    +0.000 A 
ATOM     19  N   UNL     1       0.666  10.538  21.868  0.00  0.00    +0.000 NA
ATOM     20  C   UNL     1       1.196   9.422  22.389  0.00  0.00    +0.000 A 
ATOM     21  N   UNL     1       1.547   8.325  21.708  0.00  0.00    +0.000 NA
ATOM     22  H   UNL     1       2.126   6.535  20.340  0.00  0.00    +0.000 HD
ENDBRANCH  12  13
ENDBRANCH   9  12
TORSDOF 3
ENDMDL
MODEL 5
REMARK VINA RESULT:      -6.7      3.541      7.047
REMARK  Name = 
REMARK  6 active torsions:
REMARK  status: ('A' for Active; 'I' for Inactive)
REMARK    1  A    between atoms: C_1  and  C_2
REMARK    2  A    between atoms: C_2  and  N_3
REMARK    3  A    between atoms: C_5  and  C_6
REMARK    4  A    between atoms: C_5  and  C_7
REMARK    5  A    between atoms: C_11  and  C_12
REMARK    6  A    between atoms: C_12  and  C_13
REMARK                            x       y       z     vdW  Elec       q    Type
REMARK                         _______ _______ _______ _____ _____    ______ ____
ROOT
ATOM      1  N   UNL     1       4.757   5.332  18.394  0.00  0.00    +0.000 NA
ATOM      2  C   UNL     1       4.393   4.026  17.819  0.00  0.00    +0.000 C 
ATOM      3  C   UNL     1       3.550   3.110  18.737  0.00  0.00    +0.000 C 
ATOM      4  C   UNL     1       4.351   2.436  19.863  0.00  0.00    +0.000 C 
ATOM      5  C   UNL     1       2.893   2.018  17.890  0.00  0.00    +0.000 C 
ATOM      6  O   UNL     1       2.469   3.842  19.353  0.00  0.00    +0.000 OA
ATOM      7  C   UNL     1       2.733   5.072  19.863  0.00  0.00    +0.000 C 
ATOM      8  O   UNL     1       2.146   5.471  20.861  0.00  0.00    +0.000 OA
ATOM      9  C   UNL     1       3.556   6.003  18.977  0.00  0.00    +0.000 C 
ENDROOT
BRANCH   1  11
ATOM     10  C   UNL     1       7.250   5.414  18.623  0.00  0.00    +0.000 C 
ATOM     11  C   UNL     1       5.895   5.335  19.321  0.00  0.00    +0.000 C 
ENDBRANCH   1  11
BRANCH   9  12
ATOM     12  C   UNL     1       2.656   6.578  17.872  0.00  0.00    +0.000 C 
BRANCH  12  13
ATOM     13  C   UNL     1       2.199   8.007  18.120  0.00  0.00    +0.000 C 
ATOM     14  O   UNL     1       2.470   8.897  17.318  0.00  0.00    +0.000 OA
ATOM     15  N   UNL     1       1.467   8.184  19.276  0.00  0.00    +0.000 N 
ATOM     16  C   UNL     1       0.964   9.423  19.687  0.00  0.00    +0.000 A 
ATOM     17  C   UNL     1       0.404  10.323  18.808  0.00  0.00    +0.000 A 
ATOM     18  C   UNL     1      -0.003  11.515  19.358  0.00  0.00    +0.000 A 
ATOM     19  N   UNL     1       0.144  11.822  20.660  0.00  0.00    +0.000 NA
ATOM     20  C   UNL     1       0.685  10.860  21.421  0.00  0.00    +0.000 A 
ATOM     21  N   UNL     1       1.059   9.644  21.006  0.00  0.00    +0.000 NA
ATOM     22  H   UNL     1       1.676   7.603  20.079  0.00  0.00    +0.000 HD
ENDBRANCH  12  13
ENDBRANCH   9  12
TORSDOF 3
ENDMDL
MODEL 6
REMARK VINA RESULT:      -6.7      3.003      7.475
REMARK  Name = 
REMARK  6 active torsions:
REMARK  status: ('A' for Active; 'I' for Inactive)
REMARK    1  A    between atoms: C_1  and  C_2
REMARK    2  A    between atoms: C_2  and  N_3
REMARK    3  A    between atoms: C_5  and  C_6
REMARK    4  A    between atoms: C_5  and  C_7
REMARK    5  A    between atoms: C_11  and  C_12
REMARK    6  A    between atoms: C_12  and  C_13
REMARK                            x       y       z     vdW  Elec       q    Type
REMARK                         _______ _______ _______ _____ _____    ______ ____
ROOT
ATOM      1  N   UNL     1       5.514   6.648  17.482  0.00  0.00    +0.000 NA
ATOM      2  C   UNL     1       5.555   6.228  16.071  0.00  0.00    +0.000 C 
ATOM      3  C   UNL     1       5.770   4.715  15.837  0.00  0.00    +0.000 C 
ATOM      4  C   UNL     1       7.216   4.241  16.063  0.00  0.00    +0.000 C 
ATOM      5  C   UNL     1       5.365   4.365  14.404  0.00  0.00    +0.000 C 
ATOM      6  O   UNL     1       4.918   3.927  16.697  0.00  0.00    +0.000 OA
ATOM      7  C   UNL     1       4.805   4.292  17.999  0.00  0.00    +0.000 C 
ATOM      8  O   UNL     1       4.657   3.445  18.872  0.00  0.00    +0.000 OA
ATOM      9  C   UNL     1       4.583   5.779  18.263  0.00  0.00    +0.000 C 
ENDROOT
BRANCH   1  11
ATOM     10  C   UNL     1       7.700   7.871  17.513  0.00  0.00    +0.000 C 
ATOM     11  C   UNL     1       6.813   6.804  18.148  0.00  0.00    +0.000 C 
ENDBRANCH   1  11
BRANCH   9  12
ATOM     12  C   UNL     1       3.118   6.134  17.964  0.00  0.00    +0.000 C 
BRANCH  12  13
ATOM     13  C   UNL     1       2.347   6.665  19.163  0.00  0.00    +0.000 C 
ATOM     14  O   UNL     1       2.026   5.914  20.081  0.00  0.00    +0.000 OA
ATOM     15  N   UNL     1       2.078   8.017  19.120  0.00  0.00    +0.000 N 
ATOM     16  C   UNL     1       1.374   8.694  20.121  0.00  0.00    +0.000 A 
ATOM     17  C   UNL     1       1.569   8.446  21.461  0.00  0.00    +0.000 A 
ATOM     18  C   UNL     1       0.768   9.160  22.320  0.00  0.00    +0.000 A 
ATOM     19  N   UNL     1      -0.169  10.034  21.909  0.00  0.00    +0.000 NA
ATOM     20  C   UNL     1      -0.256  10.206  20.583  0.00  0.00    +0.000 A 
ATOM     21  N   UNL     1       0.512   9.613  19.661  0.00  0.00    +0.000 NA
ATOM     22  H   UNL     1       1.922   8.455  18.219  0.00  0.00    +0.000 HD
ENDBRANCH  12  13
ENDBRANCH   9  12
TORSDOF 3
ENDMDL
MODEL 7
REMARK VINA RESULT:      -6.7      5.262      6.611
REMARK  Name = 
REMARK  6 active torsions:
REMARK  status: ('A' for Active; 'I' for Inactive)
REMARK    1  A    between atoms: C_1  and  C_2
REMARK    2  A    between atoms: C_2  and  N_3
REMARK    3  A    between atoms: C_5  and  C_6
REMARK    4  A    between atoms: C_5  and  C_7
REMARK    5  A    between atoms: C_11  and  C_12
REMARK    6  A    between atoms: C_12  and  C_13
REMARK                            x       y       z     vdW  Elec       q    Type
REMARK                         _______ _______ _______ _____ _____    ______ ____
ROOT
ATOM      1  N   UNL     1       5.916   6.492  16.929  0.00  0.00    +0.000 NA
ATOM      2  C   UNL     1       4.905   6.070  17.911  0.00  0.00    +0.000 C 
ATOM      3  C   UNL     1       5.019   4.604  18.389  0.00  0.00    +0.000 C 
ATOM      4  C   UNL     1       4.521   3.566  17.369  0.00  0.00    +0.000 C 
ATOM      5  C   UNL     1       4.218   4.433  19.683  0.00  0.00    +0.000 C 
ATOM      6  O   UNL     1       6.383   4.266  18.718  0.00  0.00    +0.000 OA
ATOM      7  C   UNL     1       7.366   4.667  17.872  0.00  0.00    +0.000 C 
ATOM      8  O   UNL     1       8.365   3.978  17.708  0.00  0.00    +0.000 OA
ATOM      9  C   UNL     1       7.287   6.113  17.388  0.00  0.00    +0.000 C 
ENDROOT
BRANCH   1  11
ATOM     10  C   UNL     1       6.784   5.234  14.943  0.00  0.00    +0.000 C 
ATOM     11  C   UNL     1       5.672   6.095  15.537  0.00  0.00    +0.000 C 
ENDBRANCH   1  11
BRANCH   9  12
ATOM     12  C   UNL     1       7.772   7.049  18.506  0.00  0.00    +0.000 C 
BRANCH  12  13
ATOM     13  C   UNL     1       8.208   8.423  18.023  0.00  0.00    +0.000 C 
ATOM     14  O   UNL     1       8.021   8.763  16.858  0.00  0.00    +0.000 OA
ATOM     15  N   UNL     1       8.789   9.215  18.992  0.00  0.00    +0.000 N 
ATOM     16  C   UNL     1       9.264  10.507  18.747  0.00  0.00    +0.000 A 
ATOM     17  C   UNL     1       8.587  11.409  17.956  0.00  0.00    +0.000 A 
ATOM     18  C   UNL     1       9.206  12.622  17.774  0.00  0.00    +0.000 A 
ATOM     19  N   UNL     1      10.405  12.931  18.300  0.00  0.00    +0.000 NA
ATOM     20  C   UNL     1      10.961  11.982  19.066  0.00  0.00    +0.000 A 
ATOM     21  N   UNL     1      10.422  10.793  19.361  0.00  0.00    +0.000 NA
ATOM     22  H   UNL     1       9.332   8.771  19.723  0.00  0.00    +0.000 HD
ENDBRANCH  12  13
ENDBRANCH   9  12
TORSDOF 3
ENDMDL
MODEL 8
REMARK VINA RESULT:      -6.6      3.525      7.331
REMARK  Name = 
REMARK  6 active torsions:
REMARK  status: ('A' for Active; 'I' for Inactive)
REMARK    1  A    between atoms: C_1  and  C_2
REMARK    2  A    between atoms: C_2  and  N_3
REMARK    3  A    between atoms: C_5  and  C_6
REMARK    4  A    between atoms: C_5  and  C_7
REMARK    5  A    between atoms: C_11  and  C_12
REMARK    6  A    between atoms: C_12  and  C_13
REMARK                            x       y       z     vdW  Elec       q    Type
REMARK                         _______ _______ _______ _____ _____    ______ ____
ROOT
ATOM      1  N   UNL     1       3.423   4.919  19.632  0.00  0.00    +0.000 NA
ATOM      2  C   UNL     1       4.554   4.385  18.857  0.00  0.00    +0.000 C 
ATOM      3  C   UNL     1       4.174   3.419  17.710  0.00  0.00    +0.000 C 
ATOM      4  C   UNL     1       3.776   2.009  18.177  0.00  0.00    +0.000 C 
ATOM      5  C   UNL     1       5.356   3.293  16.746  0.00  0.00    +0.000 C 
ATOM      6  O   UNL     1       3.077   3.942  16.930  0.00  0.00    +0.000 OA
ATOM      7  C   UNL     1       2.023   4.488  17.588  0.00  0.00    +0.000 C 
ATOM      8  O   UNL     1       0.889   4.387  17.138  0.00  0.00    +0.000 OA
ATOM      9  C   UNL     1       2.365   5.453  18.721  0.00  0.00    +0.000 C 
ENDROOT
BRANCH   1  11
ATOM     10  C   UNL     1       1.355   4.160  20.826  0.00  0.00    +0.000 C 
ATOM     11  C   UNL     1       2.867   4.031  20.661  0.00  0.00    +0.000 C 
ENDBRANCH   1  11
BRANCH   9  12
ATOM     12  C   UNL     1       2.784   6.806  18.125  0.00  0.00    +0.000 C 
BRANCH  12  13
ATOM     13  C   UNL     1       2.138   8.009  18.795  0.00  0.00    +0.000 C 
ATOM     14  O   UNL     1       2.094   9.094  18.220  0.00  0.00    +0.000 OA
ATOM     15  N   UNL     1       1.616   7.758  20.047  0.00  0.00    +0.000 N 
ATOM     16  C   UNL     1       0.989   8.734  20.828  0.00  0.00    +0.000 A 
ATOM     17  C   UNL     1       0.125   9.666  20.298  0.00  0.00    +0.000 A 
ATOM     18  C   UNL     1      -0.374  10.587  21.188  0.00  0.00    +0.000 A 
ATOM     19  N   UNL     1      -0.043  10.616  22.492  0.00  0.00    +0.000 NA
ATOM     20  C   UNL     1       0.792   9.648  22.897  0.00  0.00    +0.000 A 
ATOM     21  N   UNL     1       1.289   8.667  22.134  0.00  0.00    +0.000 NA
ATOM     22  H   UNL     1       2.070   7.070  20.636  0.00  0.00    +0.000 HD
ENDBRANCH  12  13
ENDBRANCH   9  12
TORSDOF 3
ENDMDL
MODEL 9
REMARK VINA RESULT:      -6.6      3.549      7.403
REMARK  Name = 
REMARK  6 active torsions:
REMARK  status: ('A' for Active; 'I' for Inactive)
REMARK    1  A    between atoms: C_1  and  C_2
REMARK    2  A    between atoms: C_2  and  N_3
REMARK    3  A    between atoms: C_5  and  C_6
REMARK    4  A    between atoms: C_5  and  C_7
REMARK    5  A    between atoms: C_11  and  C_12
REMARK    6  A    between atoms: C_12  and  C_13
REMARK                            x       y       z     vdW  Elec       q    Type
REMARK                         _______ _______ _______ _____ _____    ______ ____
ROOT
ATOM      1  N   UNL     1       3.437   4.319  19.917  0.00  0.00    +0.000 NA
ATOM      2  C   UNL     1       4.588   4.095  19.028  0.00  0.00    +0.000 C 
ATOM      3  C   UNL     1       4.247   3.512  17.637  0.00  0.00    +0.000 C 
ATOM      4  C   UNL     1       3.910   2.012  17.646  0.00  0.00    +0.000 C 
ATOM      5  C   UNL     1       5.431   3.736  16.693  0.00  0.00    +0.000 C 
ATOM      6  O   UNL     1       3.126   4.203  17.042  0.00  0.00    +0.000 OA
ATOM      7  C   UNL     1       2.052   4.478  17.825  0.00  0.00    +0.000 C 
ATOM      8  O   UNL     1       0.921   4.472  17.353  0.00  0.00    +0.000 OA
ATOM      9  C   UNL     1       2.355   5.062  19.202  0.00  0.00    +0.000 C 
ENDROOT
BRANCH   1  11
ATOM     10  C   UNL     1       1.576   3.369  21.300  0.00  0.00    +0.000 C 
ATOM     11  C   UNL     1       2.922   3.136  20.619  0.00  0.00    +0.000 C 
ENDBRANCH   1  11
BRANCH   9  12
ATOM     12  C   UNL     1       2.715   6.549  19.054  0.00  0.00    +0.000 C 
BRANCH  12  13
ATOM     13  C   UNL     1       1.837   7.486  19.868  0.00  0.00    +0.000 C 
ATOM     14  O   UNL     1       1.437   7.157  20.981  0.00  0.00    +0.000 OA
ATOM     15  N   UNL     1       1.568   8.695  19.259  0.00  0.00    +0.000 N 
ATOM     16  C   UNL     1       0.774   9.689  19.840  0.00  0.00    +0.000 A 
ATOM     17  C   UNL     1       0.848  10.010  21.177  0.00  0.00    +0.000 A 
ATOM     18  C   UNL     1      -0.030  10.977  21.605  0.00  0.00    +0.000 A 
ATOM     19  N   UNL     1      -0.929  11.573  20.801  0.00  0.00    +0.000 NA
ATOM     20  C   UNL     1      -0.896  11.193  19.516  0.00  0.00    +0.000 A 
ATOM     21  N   UNL     1      -0.046  10.310  18.979  0.00  0.00    +0.000 NA
ATOM     22  H   UNL     1       1.493   8.726  18.249  0.00  0.00    +0.000 HD
ENDBRANCH  12  13
ENDBRANCH   9  12
TORSDOF 3
ENDMDL
