MODEL 1
REMARK VINA RESULT:      -7.7      0.000      0.000
REMARK  Name = 
REMARK  3 active torsions:
REMARK  status: ('A' for Active; 'I' for Inactive)
REMARK    1  A    between atoms: C_1  and  C_2
REMARK    2  A    between atoms: C_4  and  C_5
REMARK    3  A    between atoms: C_14  and  C_15
REMARK                            x       y       z     vdW  Elec       q    Type
REMARK                         _______ _______ _______ _____ _____    ______ ____
ROOT
ATOM      1  C   UNL     1       7.822   5.607  19.499  0.00  0.00    +0.000 C 
ATOM      2  C   UNL     1       6.817   5.364  18.392  0.00  0.00    +0.000 A 
ATOM      3  C   UNL     1       7.246   5.359  16.950  0.00  0.00    +0.000 A 
ATOM      4  C   UNL     1       6.358   4.841  16.068  0.00  0.00    +0.000 A 
ATOM      5  N   UNL     1       5.080   4.463  16.524  0.00  0.00    +0.000 N 
ATOM      6  N   UNL     1       4.020   4.004  15.805  0.00  0.00    +0.000 NA
ATOM      7  C   UNL     1       3.111   3.671  16.727  0.00  0.00    +0.000 A 
ATOM      8  C   UNL     1       3.557   3.887  18.041  0.00  0.00    +0.000 A 
ATOM      9  C   UNL     1       4.772   4.519  17.883  0.00  0.00    +0.000 A 
ATOM     10  N   UNL     1       5.649   5.011  18.811  0.00  0.00    +0.000 NA
ENDROOT
BRANCH   4  11
ATOM     11  C   UNL     1       6.723   4.622  14.652  0.00  0.00    +0.000 A 
ATOM     12  C   UNL     1       6.074   3.646  13.888  0.00  0.00    +0.000 A 
ATOM     13  C   UNL     1       6.381   3.543  12.539  0.00  0.00    +0.000 A 
ATOM     14  N   UNL     1       7.284   4.327  11.916  0.00  0.00    +0.000 NA
ATOM     15  C   UNL     1       7.892   5.267  12.668  0.00  0.00    +0.000 A 
ATOM     16  C   UNL     1       7.658   5.449  14.025  0.00  0.00    +0.000 A 
ENDBRANCH   4  11
BRANCH   8  17
ATOM     17  C   UNL     1       2.981   3.579  19.345  0.00  0.00    +0.000 A 
ATOM     18  C   UNL     1       1.759   4.140  19.732  0.00  0.00    +0.000 A 
ATOM     19  C   UNL     1       1.154   3.794  20.943  0.00  0.00    +0.000 A 
ATOM     20  C   UNL     1       1.796   2.903  21.795  0.00  0.00    +0.000 A 
ATOM     21  C   UNL     1       3.038   2.374  21.442  0.00  0.00    +0.000 A 
ATOM     22  C   UNL     1       3.635   2.708  20.221  0.00  0.00    +0.000 A 
ENDBRANCH   8  17
TORSDOF 2
ENDMDL
MODEL 2
REMARK VINA RESULT:      -7.5      0.137      1.011
REMARK  Name = 
REMARK  3 active torsions:
REMARK  status: ('A' for Active; 'I' for Inactive)
REMARK    1  A    between atoms: C_1  and  C_2
REMARK    2  A    between atoms: C_4  and  C_5
REMARK    3  A    between atoms: C_14  and  C_15
REMARK                            x       y       z     vdW  Elec       q    Type
REMARK                         _______ _______ _______ _____ _____    ______ ____
ROOT
ATOM      1  C   UNL     1       7.834   5.708  19.379  0.00  0.00    +0.000 C 
ATOM      2  C   UNL     1       6.792   5.449  18.310  0.00  0.00    +0.000 A 
ATOM      3  C   UNL     1       7.165   5.460  16.853  0.00  0.00    +0.000 A 
ATOM      4  C   UNL     1       6.254   4.928  16.003  0.00  0.00    +0.000 A 
ATOM      5  N   UNL     1       5.002   4.521  16.506  0.00  0.00    +0.000 N 
ATOM      6  N   UNL     1       3.925   4.043  15.826  0.00  0.00    +0.000 NA
ATOM      7  C   UNL     1       3.060   3.688  16.781  0.00  0.00    +0.000 A 
ATOM      8  C   UNL     1       3.552   3.907  18.077  0.00  0.00    +0.000 A 
ATOM      9  C   UNL     1       4.747   4.564  17.877  0.00  0.00    +0.000 A 
ATOM     10  N   UNL     1       5.649   5.070  18.772  0.00  0.00    +0.000 NA
ENDROOT
BRANCH   4  11
ATOM     11  C   UNL     1       6.569   4.723  14.573  0.00  0.00    +0.000 A 
ATOM     12  C   UNL     1       7.578   5.466  13.949  0.00  0.00    +0.000 A 
ATOM     13  C   UNL     1       7.904   5.172  12.633  0.00  0.00    +0.000 A 
ATOM     14  N   UNL     1       7.295   4.211  11.909  0.00  0.00    +0.000 NA
ATOM     15  C   UNL     1       6.331   3.502  12.531  0.00  0.00    +0.000 A 
ATOM     16  C   UNL     1       5.929   3.720  13.842  0.00  0.00    +0.000 A 
ENDBRANCH   4  11
BRANCH   8  17
ATOM     17  C   UNL     1       3.033   3.580  19.401  0.00  0.00    +0.000 A 
ATOM     18  C   UNL     1       1.886   4.213  19.890  0.00  0.00    +0.000 A 
ATOM     19  C   UNL     1       1.330   3.856  21.121  0.00  0.00    +0.000 A 
ATOM     20  C   UNL     1       1.950   2.879  21.890  0.00  0.00    +0.000 A 
ATOM     21  C   UNL     1       3.121   2.274  21.436  0.00  0.00    +0.000 A 
ATOM     22  C   UNL     1       3.668   2.621  20.195  0.00  0.00    +0.000 A 
ENDBRANCH   8  17
TORSDOF 2
ENDMDL
MODEL 3
REMARK VINA RESULT:      -7.5      0.114      1.034
REMARK  Name = 
REMARK  3 active torsions:
REMARK  status: ('A' for Active; 'I' for Inactive)
REMARK    1  A    between atoms: C_1  and  C_2
REMARK    2  A    between atoms: C_4  and  C_5
REMARK    3  A    between atoms: C_14  and  C_15
REMARK                            x       y       z     vdW  Elec       q    Type
REMARK                         _______ _______ _______ _____ _____    ______ ____
ROOT
ATOM      1  C   UNL     1       7.687   5.513  19.563  0.00  0.00    +0.000 C 
ATOM      2  C   UNL     1       6.703   5.284  18.434  0.00  0.00    +0.000 A 
ATOM      3  C   UNL     1       7.160   5.299  17.001  0.00  0.00    +0.000 A 
ATOM      4  C   UNL     1       6.289   4.794  16.096  0.00  0.00    +0.000 A 
ATOM      5  N   UNL     1       5.002   4.410  16.522  0.00  0.00    +0.000 N 
ATOM      6  N   UNL     1       3.956   3.960  15.776  0.00  0.00    +0.000 NA
ATOM      7  C   UNL     1       3.030   3.615  16.676  0.00  0.00    +0.000 A 
ATOM      8  C   UNL     1       3.451   3.813  18.001  0.00  0.00    +0.000 A 
ATOM      9  C   UNL     1       4.669   4.447  17.875  0.00  0.00    +0.000 A 
ATOM     10  N   UNL     1       5.528   4.926  18.826  0.00  0.00    +0.000 NA
ENDROOT
BRANCH   4  11
ATOM     11  C   UNL     1       6.681   4.594  14.684  0.00  0.00    +0.000 A 
ATOM     12  C   UNL     1       6.046   3.629  13.894  0.00  0.00    +0.000 A 
ATOM     13  C   UNL     1       6.378   3.544  12.550  0.00  0.00    +0.000 A 
ATOM     14  N   UNL     1       7.293   4.337  11.955  0.00  0.00    +0.000 NA
ATOM     15  C   UNL     1       7.888   5.266  12.732  0.00  0.00    +0.000 A 
ATOM     16  C   UNL     1       7.627   5.429  14.086  0.00  0.00    +0.000 A 
ENDBRANCH   4  11
BRANCH   8  17
ATOM     17  C   UNL     1       2.850   3.487  19.290  0.00  0.00    +0.000 A 
ATOM     18  C   UNL     1       3.516   2.653  20.193  0.00  0.00    +0.000 A 
ATOM     19  C   UNL     1       2.993   2.395  21.463  0.00  0.00    +0.000 A 
ATOM     20  C   UNL     1       1.770   2.949  21.821  0.00  0.00    +0.000 A 
ATOM     21  C   UNL     1       1.073   3.744  20.911  0.00  0.00    +0.000 A 
ATOM     22  C   UNL     1       1.606   4.016  19.646  0.00  0.00    +0.000 A 
ENDBRANCH   8  17
TORSDOF 2
ENDMDL
MODEL 4
REMARK VINA RESULT:      -7.5      3.827      7.628
REMARK  Name = 
REMARK  3 active torsions:
REMARK  status: ('A' for Active; 'I' for Inactive)
REMARK    1  A    between atoms: C_1  and  C_2
REMARK    2  A    between atoms: C_4  and  C_5
REMARK    3  A    between atoms: C_14  and  C_15
REMARK                            x       y       z     vdW  Elec       q    Type
REMARK                         _______ _______ _______ _____ _____    ______ ____
ROOT
ATOM      1  C   UNL     1       2.403   3.579  21.125  0.00  0.00    +0.000 C 
ATOM      2  C   UNL     1       2.275   4.852  20.313  0.00  0.00    +0.000 A 
ATOM      3  C   UNL     1       1.469   6.014  20.826  0.00  0.00    +0.000 A 
ATOM      4  C   UNL     1       1.658   7.194  20.190  0.00  0.00    +0.000 A 
ATOM      5  N   UNL     1       2.480   7.233  19.046  0.00  0.00    +0.000 N 
ATOM      6  N   UNL     1       2.739   8.280  18.217  0.00  0.00    +0.000 NA
ATOM      7  C   UNL     1       3.674   7.820  17.380  0.00  0.00    +0.000 A 
ATOM      8  C   UNL     1       4.049   6.494  17.652  0.00  0.00    +0.000 A 
ATOM      9  C   UNL     1       3.176   6.094  18.640  0.00  0.00    +0.000 A 
ATOM     10  N   UNL     1       3.033   4.888  19.271  0.00  0.00    +0.000 NA
ENDROOT
BRANCH   4  11
ATOM     11  C   UNL     1       1.059   8.445  20.702  0.00  0.00    +0.000 A 
ATOM     12  C   UNL     1       0.451   9.356  19.830  0.00  0.00    +0.000 A 
ATOM     13  C   UNL     1      -0.184  10.467  20.365  0.00  0.00    +0.000 A 
ATOM     14  N   UNL     1      -0.242  10.731  21.687  0.00  0.00    +0.000 NA
ATOM     15  C   UNL     1       0.342   9.836  22.510  0.00  0.00    +0.000 A 
ATOM     16  C   UNL     1       1.004   8.696  22.074  0.00  0.00    +0.000 A 
ENDBRANCH   4  11
BRANCH   8  17
ATOM     17  C   UNL     1       5.081   5.625  17.098  0.00  0.00    +0.000 A 
ATOM     18  C   UNL     1       4.831   4.868  15.949  0.00  0.00    +0.000 A 
ATOM     19  C   UNL     1       5.833   4.092  15.360  0.00  0.00    +0.000 A 
ATOM     20  C   UNL     1       7.091   4.044  15.948  0.00  0.00    +0.000 A 
ATOM     21  C   UNL     1       7.339   4.755  17.122  0.00  0.00    +0.000 A 
ATOM     22  C   UNL     1       6.340   5.546  17.702  0.00  0.00    +0.000 A 
ENDBRANCH   8  17
TORSDOF 2
ENDMDL
MODEL 5
REMARK VINA RESULT:      -7.5      4.116      7.890
REMARK  Name = 
REMARK  3 active torsions:
REMARK  status: ('A' for Active; 'I' for Inactive)
REMARK    1  A    between atoms: C_1  and  C_2
REMARK    2  A    between atoms: C_4  and  C_5
REMARK    3  A    between atoms: C_14  and  C_15
REMARK                            x       y       z     vdW  Elec       q    Type
REMARK                         _______ _______ _______ _____ _____    ______ ____
ROOT
ATOM      1  C   UNL     1       2.366   3.930  21.359  0.00  0.00    +0.000 C 
ATOM      2  C   UNL     1       2.151   5.184  20.536  0.00  0.00    +0.000 A 
ATOM      3  C   UNL     1       1.302   6.311  21.057  0.00  0.00    +0.000 A 
ATOM      4  C   UNL     1       1.413   7.490  20.400  0.00  0.00    +0.000 A 
ATOM      5  N   UNL     1       2.199   7.554  19.232  0.00  0.00    +0.000 N 
ATOM      6  N   UNL     1       2.380   8.601  18.383  0.00  0.00    +0.000 NA
ATOM      7  C   UNL     1       3.314   8.177  17.525  0.00  0.00    +0.000 A 
ATOM      8  C   UNL     1       3.763   6.876  17.803  0.00  0.00    +0.000 A 
ATOM      9  C   UNL     1       2.940   6.446  18.821  0.00  0.00    +0.000 A 
ATOM     10  N   UNL     1       2.876   5.243  19.471  0.00  0.00    +0.000 NA
ENDROOT
BRANCH   4  11
ATOM     11  C   UNL     1       0.765   8.716  20.913  0.00  0.00    +0.000 A 
ATOM     12  C   UNL     1       0.131   9.609  20.041  0.00  0.00    +0.000 A 
ATOM     13  C   UNL     1      -0.547  10.694  20.577  0.00  0.00    +0.000 A 
ATOM     14  N   UNL     1      -0.624  10.949  21.899  0.00  0.00    +0.000 NA
ATOM     15  C   UNL     1      -0.013  10.072  22.722  0.00  0.00    +0.000 A 
ATOM     16  C   UNL     1       0.692   8.959  22.286  0.00  0.00    +0.000 A 
ENDBRANCH   4  11
BRANCH   8  17
ATOM     17  C   UNL     1       4.822   6.051  17.231  0.00  0.00    +0.000 A 
ATOM     18  C   UNL     1       6.164   6.422  17.370  0.00  0.00    +0.000 A 
ATOM     19  C   UNL     1       7.194   5.605  16.898  0.00  0.00    +0.000 A 
ATOM     20  C   UNL     1       6.878   4.418  16.248  0.00  0.00    +0.000 A 
ATOM     21  C   UNL     1       5.543   4.061  16.061  0.00  0.00    +0.000 A 
ATOM     22  C   UNL     1       4.512   4.872  16.548  0.00  0.00    +0.000 A 
ENDBRANCH   8  17
TORSDOF 2
ENDMDL
MODEL 6
REMARK VINA RESULT:      -7.4      7.619     10.832
REMARK  Name = 
REMARK  3 active torsions:
REMARK  status: ('A' for Active; 'I' for Inactive)
REMARK    1  A    between atoms: C_1  and  C_2
REMARK    2  A    between atoms: C_4  and  C_5
REMARK    3  A    between atoms: C_14  and  C_15
REMARK                            x       y       z     vdW  Elec       q    Type
REMARK                         _______ _______ _______ _____ _____    ______ ____
ROOT
ATOM      1  C   UNL     1      -1.710  10.676  17.612  0.00  0.00    +0.000 C 
ATOM      2  C   UNL     1      -1.025  10.806  18.957  0.00  0.00    +0.000 A 
ATOM      3  C   UNL     1      -1.520  11.789  19.982  0.00  0.00    +0.000 A 
ATOM      4  C   UNL     1      -1.048  11.623  21.240  0.00  0.00    +0.000 A 
ATOM      5  N   UNL     1      -0.060  10.648  21.479  0.00  0.00    +0.000 N 
ATOM      6  N   UNL     1       0.604  10.372  22.634  0.00  0.00    +0.000 NA
ATOM      7  C   UNL     1       1.324   9.282  22.353  0.00  0.00    +0.000 A 
ATOM      8  C   UNL     1       1.135   8.824  21.039  0.00  0.00    +0.000 A 
ATOM      9  C   UNL     1       0.345   9.791  20.456  0.00  0.00    +0.000 A 
ATOM     10  N   UNL     1      -0.126   9.908  19.176  0.00  0.00    +0.000 NA
ENDROOT
BRANCH   4  11
ATOM     11  C   UNL     1      -1.585  12.412  22.369  0.00  0.00    +0.000 A 
ATOM     12  C   UNL     1      -0.912  13.549  22.832  0.00  0.00    +0.000 A 
ATOM     13  C   UNL     1      -1.502  14.313  23.828  0.00  0.00    +0.000 A 
ATOM     14  N   UNL     1      -2.692  14.018  24.391  0.00  0.00    +0.000 NA
ATOM     15  C   UNL     1      -3.328  12.924  23.925  0.00  0.00    +0.000 A 
ATOM     16  C   UNL     1      -2.821  12.093  22.934  0.00  0.00    +0.000 A 
ENDBRANCH   4  11
BRANCH   8  17
ATOM     17  C   UNL     1       1.604   7.640  20.327  0.00  0.00    +0.000 A 
ATOM     18  C   UNL     1       2.247   7.763  19.091  0.00  0.00    +0.000 A 
ATOM     19  C   UNL     1       2.773   6.649  18.433  0.00  0.00    +0.000 A 
ATOM     20  C   UNL     1       2.623   5.389  19.001  0.00  0.00    +0.000 A 
ATOM     21  C   UNL     1       1.941   5.247  20.210  0.00  0.00    +0.000 A 
ATOM     22  C   UNL     1       1.429   6.367  20.876  0.00  0.00    +0.000 A 
ENDBRANCH   8  17
TORSDOF 2
ENDMDL
MODEL 7
REMARK VINA RESULT:      -7.4      7.627     10.850
REMARK  Name = 
REMARK  3 active torsions:
REMARK  status: ('A' for Active; 'I' for Inactive)
REMARK    1  A    between atoms: C_1  and  C_2
REMARK    2  A    between atoms: C_4  and  C_5
REMARK    3  A    between atoms: C_14  and  C_15
REMARK                            x       y       z     vdW  Elec       q    Type
REMARK                         _______ _______ _______ _____ _____    ______ ____
ROOT
ATOM      1  C   UNL     1      -1.655  10.731  17.587  0.00  0.00    +0.000 C 
ATOM      2  C   UNL     1      -0.989  10.846  18.943  0.00  0.00    +0.000 A 
ATOM      3  C   UNL     1      -1.499  11.818  19.972  0.00  0.00    +0.000 A 
ATOM      4  C   UNL     1      -1.044  11.638  21.234  0.00  0.00    +0.000 A 
ATOM      5  N   UNL     1      -0.058  10.661  21.476  0.00  0.00    +0.000 N 
ATOM      6  N   UNL     1       0.590  10.373  22.637  0.00  0.00    +0.000 NA
ATOM      7  C   UNL     1       1.315   9.287  22.353  0.00  0.00    +0.000 A 
ATOM      8  C   UNL     1       1.145   8.843  21.032  0.00  0.00    +0.000 A 
ATOM      9  C   UNL     1       0.362   9.816  20.449  0.00  0.00    +0.000 A 
ATOM     10  N   UNL     1      -0.092   9.947  19.165  0.00  0.00    +0.000 NA
ENDROOT
BRANCH   4  11
ATOM     11  C   UNL     1      -1.596  12.414  22.365  0.00  0.00    +0.000 A 
ATOM     12  C   UNL     1      -0.925  13.540  22.857  0.00  0.00    +0.000 A 
ATOM     13  C   UNL     1      -1.529  14.293  23.853  0.00  0.00    +0.000 A 
ATOM     14  N   UNL     1      -2.731  13.998  24.389  0.00  0.00    +0.000 NA
ATOM     15  C   UNL     1      -3.365  12.914  23.895  0.00  0.00    +0.000 A 
ATOM     16  C   UNL     1      -2.845  12.094  22.902  0.00  0.00    +0.000 A 
ENDBRANCH   4  11
BRANCH   8  17
ATOM     17  C   UNL     1       1.625   7.668  20.313  0.00  0.00    +0.000 A 
ATOM     18  C   UNL     1       1.466   6.389  20.857  0.00  0.00    +0.000 A 
ATOM     19  C   UNL     1       1.846   5.247  20.147  0.00  0.00    +0.000 A 
ATOM     20  C   UNL     1       2.427   5.388  18.892  0.00  0.00    +0.000 A 
ATOM     21  C   UNL     1       2.635   6.659  18.360  0.00  0.00    +0.000 A 
ATOM     22  C   UNL     1       2.238   7.802  19.064  0.00  0.00    +0.000 A 
ENDBRANCH   8  17
TORSDOF 2
ENDMDL
MODEL 8
REMARK VINA RESULT:      -7.4      3.859      7.624
REMARK  Name = 
REMARK  3 active torsions:
REMARK  status: ('A' for Active; 'I' for Inactive)
REMARK    1  A    between atoms: C_1  and  C_2
REMARK    2  A    between atoms: C_4  and  C_5
REMARK    3  A    between atoms: C_14  and  C_15
REMARK                            x       y       z     vdW  Elec       q    Type
REMARK                         _______ _______ _______ _____ _____    ______ ____
ROOT
ATOM      1  C   UNL     1       2.435   3.619  21.178  0.00  0.00    +0.000 C 
ATOM      2  C   UNL     1       2.295   4.892  20.368  0.00  0.00    +0.000 A 
ATOM      3  C   UNL     1       1.498   6.054  20.893  0.00  0.00    +0.000 A 
ATOM      4  C   UNL     1       1.678   7.234  20.254  0.00  0.00    +0.000 A 
ATOM      5  N   UNL     1       2.481   7.272  19.096  0.00  0.00    +0.000 N 
ATOM      6  N   UNL     1       2.727   8.319  18.263  0.00  0.00    +0.000 NA
ATOM      7  C   UNL     1       3.648   7.857  17.411  0.00  0.00    +0.000 A 
ATOM      8  C   UNL     1       4.026   6.532  17.677  0.00  0.00    +0.000 A 
ATOM      9  C   UNL     1       3.170   6.132  18.680  0.00  0.00    +0.000 A 
ATOM     10  N   UNL     1       3.036   4.927  19.313  0.00  0.00    +0.000 NA
ENDROOT
BRANCH   4  11
ATOM     11  C   UNL     1       1.087   8.485  20.774  0.00  0.00    +0.000 A 
ATOM     12  C   UNL     1       1.028   8.731  22.151  0.00  0.00    +0.000 A 
ATOM     13  C   UNL     1       0.556   9.959  22.590  0.00  0.00    +0.000 A 
ATOM     14  N   UNL     1       0.136  10.937  21.761  0.00  0.00    +0.000 NA
ATOM     15  C   UNL     1       0.209  10.684  20.438  0.00  0.00    +0.000 A 
ATOM     16  C   UNL     1       0.663   9.487  19.899  0.00  0.00    +0.000 A 
ENDBRANCH   4  11
BRANCH   8  17
ATOM     17  C   UNL     1       5.049   5.661  17.108  0.00  0.00    +0.000 A 
ATOM     18  C   UNL     1       4.803   4.955  15.926  0.00  0.00    +0.000 A 
ATOM     19  C   UNL     1       5.797   4.180  15.324  0.00  0.00    +0.000 A 
ATOM     20  C   UNL     1       7.044   4.081  15.931  0.00  0.00    +0.000 A 
ATOM     21  C   UNL     1       7.287   4.742  17.135  0.00  0.00    +0.000 A 
ATOM     22  C   UNL     1       6.295   5.531  17.728  0.00  0.00    +0.000 A 
ENDBRANCH   8  17
TORSDOF 2
ENDMDL
MODEL 9
REMARK VINA RESULT:      -7.4      1.591      6.820
REMARK  Name = 
REMARK  3 active torsions:
REMARK  status: ('A' for Active; 'I' for Inactive)
REMARK    1  A    between atoms: C_1  and  C_2
REMARK    2  A    between atoms: C_4  and  C_5
REMARK    3  A    between atoms: C_14  and  C_15
REMARK                            x       y       z     vdW  Elec       q    Type
REMARK                         _______ _______ _______ _____ _____    ______ ____
ROOT
ATOM      1  C   UNL     1       8.050   6.684  18.637  0.00  0.00    +0.000 C 
ATOM      2  C   UNL     1       7.025   5.599  18.382  0.00  0.00    +0.000 A 
ATOM      3  C   UNL     1       5.978   5.271  19.413  0.00  0.00    +0.000 A 
ATOM      4  C   UNL     1       4.940   4.516  18.984  0.00  0.00    +0.000 A 
ATOM      5  N   UNL     1       4.963   3.998  17.674  0.00  0.00    +0.000 N 
ATOM      6  N   UNL     1       4.075   3.160  17.073  0.00  0.00    +0.000 NA
ATOM      7  C   UNL     1       4.490   3.090  15.804  0.00  0.00    +0.000 A 
ATOM      8  C   UNL     1       5.623   3.879  15.553  0.00  0.00    +0.000 A 
ATOM      9  C   UNL     1       5.988   4.349  16.796  0.00  0.00    +0.000 A 
ATOM     10  N   UNL     1       7.044   5.130  17.181  0.00  0.00    +0.000 NA
ENDROOT
BRANCH   4  11
ATOM     11  C   UNL     1       3.765   4.269  19.847  0.00  0.00    +0.000 A 
ATOM     12  C   UNL     1       2.754   5.228  19.973  0.00  0.00    +0.000 A 
ATOM     13  C   UNL     1       1.625   4.914  20.715  0.00  0.00    +0.000 A 
ATOM     14  N   UNL     1       1.446   3.731  21.337  0.00  0.00    +0.000 NA
ATOM     15  C   UNL     1       2.428   2.816  21.197  0.00  0.00    +0.000 A 
ATOM     16  C   UNL     1       3.596   3.035  20.479  0.00  0.00    +0.000 A 
ENDBRANCH   4  11
BRANCH   8  17
ATOM     17  C   UNL     1       6.351   4.206  14.331  0.00  0.00    +0.000 A 
ATOM     18  C   UNL     1       6.089   3.517  13.142  0.00  0.00    +0.000 A 
ATOM     19  C   UNL     1       6.718   3.870  11.946  0.00  0.00    +0.000 A 
ATOM     20  C   UNL     1       7.649   4.902  11.945  0.00  0.00    +0.000 A 
ATOM     21  C   UNL     1       7.955   5.565  13.133  0.00  0.00    +0.000 A 
ATOM     22  C   UNL     1       7.311   5.222  14.328  0.00  0.00    +0.000 A 
ENDBRANCH   8  17
TORSDOF 2
ENDMDL
