MODEL 1
REMARK VINA RESULT:      -6.7      0.000      0.000
REMARK  Name = 
REMARK  8 active torsions:
REMARK  status: ('A' for Active; 'I' for Inactive)
REMARK    1  A    between atoms: C_1  and  C_2
REMARK    2  A    between atoms: C_2  and  S_3
REMARK    3  A    between atoms: S_3  and  N_6
REMARK    4  A    between atoms: C_9  and  C_10
REMARK    5  A    between atoms: C_12  and  C_13
REMARK    6  A    between atoms: N_20  and  C_21
REMARK    7  A    between atoms: C_26  and  O_27
REMARK    8  A    between atoms: O_27  and  C_28
REMARK                            x       y       z     vdW  Elec       q    Type
REMARK                         _______ _______ _______ _____ _____    ______ ____
ROOT
ATOM      1  C   UNL     1       0.995  13.501  18.690  0.00  0.00    +0.000 A 
ATOM      2  C   UNL     1      -0.360  13.497  18.318  0.00  0.00    +0.000 A 
ATOM      3  C   UNL     1      -0.945  12.436  18.958  0.00  0.00    +0.000 A 
ATOM      4  N   UNL     1       0.079  11.875  19.751  0.00  0.00    +0.000 N 
ATOM      5  N   UNL     1       1.276  12.463  19.483  0.00  0.00    +0.000 NA
ENDROOT
BRANCH   3   6
ATOM      6  C   UNL     1      -2.335  11.987  18.822  0.00  0.00    +0.000 A 
ATOM      7  C   UNL     1      -3.344  12.507  19.647  0.00  0.00    +0.000 A 
ATOM      8  C   UNL     1      -4.669  12.168  19.467  0.00  0.00    +0.000 A 
ATOM      9  C   UNL     1      -4.996  11.215  18.511  0.00  0.00    +0.000 A 
ATOM     10 CL   UNL     1      -6.637  10.728  18.344  0.00  0.00    +0.000 Cl
ATOM     11  C   UNL     1      -4.019  10.647  17.704  0.00  0.00    +0.000 A 
ATOM     12  C   UNL     1      -2.688  11.036  17.846  0.00  0.00    +0.000 A 
ENDBRANCH   3   6
BRANCH   1  16
ATOM     13  N   UNL     1       2.985  15.593  20.861  0.00  0.00    +0.000 NA
ATOM     14  C   UNL     1       3.519  14.275  20.401  0.00  0.00    +0.000 C 
ATOM     15  C   UNL     1       3.442  14.108  18.888  0.00  0.00    +0.000 C 
ATOM     16  C   UNL     1       2.075  14.475  18.308  0.00  0.00    +0.000 C 
ATOM     17  C   UNL     1       1.755  15.913  18.705  0.00  0.00    +0.000 C 
ATOM     18  C   UNL     1       1.747  16.108  20.216  0.00  0.00    +0.000 C 
BRANCH  13  19
ATOM     19  S   UNL     1       3.105  15.844  22.557  0.00  0.00    +0.000 S 
ATOM     20  O   UNL     1       3.910  14.770  23.101  0.00  0.00    +0.000 OA
ATOM     21  O   UNL     1       1.772  16.115  23.062  0.00  0.00    +0.000 OA
BRANCH  19  23
ATOM     22  C   UNL     1       3.209  18.584  22.700  0.00  0.00    +0.000 C 
ATOM     23  C   UNL     1       4.080  17.347  22.610  0.00  0.00    +0.000 C 
ENDBRANCH  19  23
ENDBRANCH  13  19
ENDBRANCH   1  16
BRANCH   4  24
ATOM     24  C   UNL     1      -0.057  10.950  20.836  0.00  0.00    +0.000 A 
ATOM     25  C   UNL     1      -0.716  11.411  22.019  0.00  0.00    +0.000 A 
ATOM     26  C   UNL     1      -0.899  10.634  23.122  0.00  0.00    +0.000 A 
ATOM     27  C   UNL     1      -0.373   9.367  23.123  0.00  0.00    +0.000 A 
ATOM     28  C   UNL     1       0.293   8.888  22.000  0.00  0.00    +0.000 A 
ATOM     29  C   UNL     1       0.466   9.639  20.830  0.00  0.00    +0.000 A 
BRANCH  29  30
ATOM     30  O   UNL     1       1.151   9.099  19.773  0.00  0.00    +0.000 OA
ATOM     31  C   UNL     1       1.842   7.861  20.003  0.00  0.00    +0.000 C 
ENDBRANCH  29  30
ENDBRANCH   4  24
TORSDOF 6
ENDMDL
MODEL 2
REMARK VINA RESULT:      -6.6      2.162      3.094
REMARK  Name = 
REMARK  8 active torsions:
REMARK  status: ('A' for Active; 'I' for Inactive)
REMARK    1  A    between atoms: C_1  and  C_2
REMARK    2  A    between atoms: C_2  and  S_3
REMARK    3  A    between atoms: S_3  and  N_6
REMARK    4  A    between atoms: C_9  and  C_10
REMARK    5  A    between atoms: C_12  and  C_13
REMARK    6  A    between atoms: N_20  and  C_21
REMARK    7  A    between atoms: C_26  and  O_27
REMARK    8  A    between atoms: O_27  and  C_28
REMARK                            x       y       z     vdW  Elec       q    Type
REMARK                         _______ _______ _______ _____ _____    ______ ____
ROOT
ATOM      1  C   UNL     1       0.577  14.535  21.550  0.00  0.00    +0.000 A 
ATOM      2  C   UNL     1      -0.705  14.540  20.975  0.00  0.00    +0.000 A 
ATOM      3  C   UNL     1      -0.981  13.249  20.609  0.00  0.00    +0.000 A 
ATOM      4  N   UNL     1       0.133  12.498  21.042  0.00  0.00    +0.000 N 
ATOM      5  N   UNL     1       1.117  13.314  21.504  0.00  0.00    +0.000 NA
ENDROOT
BRANCH   3   6
ATOM      6  C   UNL     1      -2.176  12.773  19.904  0.00  0.00    +0.000 A 
ATOM      7  C   UNL     1      -2.065  12.043  18.709  0.00  0.00    +0.000 A 
ATOM      8  C   UNL     1      -3.173  11.507  18.087  0.00  0.00    +0.000 A 
ATOM      9  C   UNL     1      -4.433  11.779  18.603  0.00  0.00    +0.000 A 
ATOM     10 CL   UNL     1      -5.821  11.182  17.780  0.00  0.00    +0.000 Cl
ATOM     11  C   UNL     1      -4.585  12.533  19.760  0.00  0.00    +0.000 A 
ATOM     12  C   UNL     1      -3.461  13.023  20.422  0.00  0.00    +0.000 A 
ENDBRANCH   3   6
BRANCH   1  16
ATOM     13  N   UNL     1       3.152  16.558  20.022  0.00  0.00    +0.000 NA
ATOM     14  C   UNL     1       1.736  17.036  20.032  0.00  0.00    +0.000 C 
ATOM     15  C   UNL     1       1.117  17.003  21.424  0.00  0.00    +0.000 C 
ATOM     16  C   UNL     1       1.343  15.679  22.156  0.00  0.00    +0.000 C 
ATOM     17  C   UNL     1       2.845  15.423  22.232  0.00  0.00    +0.000 C 
ATOM     18  C   UNL     1       3.494  15.372  20.854  0.00  0.00    +0.000 C 
BRANCH  13  19
ATOM     19  S   UNL     1       3.905  16.631  18.480  0.00  0.00    +0.000 S 
ATOM     20  O   UNL     1       5.203  17.250  18.656  0.00  0.00    +0.000 OA
ATOM     21  O   UNL     1       2.940  17.164  17.537  0.00  0.00    +0.000 OA
BRANCH  19  23
ATOM     22  C   UNL     1       5.614  14.587  17.817  0.00  0.00    +0.000 C 
ATOM     23  C   UNL     1       4.166  14.889  18.146  0.00  0.00    +0.000 C 
ENDBRANCH  19  23
ENDBRANCH  13  19
ENDBRANCH   1  16
BRANCH   4  24
ATOM     24  C   UNL     1       0.230  11.076  21.187  0.00  0.00    +0.000 A 
ATOM     25  C   UNL     1      -0.263  10.500  22.401  0.00  0.00    +0.000 A 
ATOM     26  C   UNL     1      -0.217   9.164  22.664  0.00  0.00    +0.000 A 
ATOM     27  C   UNL     1       0.384   8.338  21.749  0.00  0.00    +0.000 A 
ATOM     28  C   UNL     1       0.895   8.862  20.566  0.00  0.00    +0.000 A 
ATOM     29  C   UNL     1       0.831  10.222  20.238  0.00  0.00    +0.000 A 
BRANCH  29  30
ATOM     30  O   UNL     1       1.375  10.661  19.058  0.00  0.00    +0.000 OA
ATOM     31  C   UNL     1       1.664   9.669  18.060  0.00  0.00    +0.000 C 
ENDBRANCH  29  30
ENDBRANCH   4  24
TORSDOF 6
ENDMDL
MODEL 3
REMARK VINA RESULT:      -6.4      2.490      4.516
REMARK  Name = 
REMARK  8 active torsions:
REMARK  status: ('A' for Active; 'I' for Inactive)
REMARK    1  A    between atoms: C_1  and  C_2
REMARK    2  A    between atoms: C_2  and  S_3
REMARK    3  A    between atoms: S_3  and  N_6
REMARK    4  A    between atoms: C_9  and  C_10
REMARK    5  A    between atoms: C_12  and  C_13
REMARK    6  A    between atoms: N_20  and  C_21
REMARK    7  A    between atoms: C_26  and  O_27
REMARK    8  A    between atoms: O_27  and  C_28
REMARK                            x       y       z     vdW  Elec       q    Type
REMARK                         _______ _______ _______ _____ _____    ______ ____
ROOT
ATOM      1  C   UNL     1       1.279  13.715  18.599  0.00  0.00    +0.000 A 
ATOM      2  C   UNL     1       1.976  12.513  18.805  0.00  0.00    +0.000 A 
ATOM      3  C   UNL     1       1.037  11.524  18.928  0.00  0.00    +0.000 A 
ATOM      4  N   UNL     1      -0.203  12.167  18.723  0.00  0.00    +0.000 N 
ATOM      5  N   UNL     1      -0.041  13.514  18.642  0.00  0.00    +0.000 NA
ENDROOT
BRANCH   3   6
ATOM      6  C   UNL     1       1.285  10.108  19.225  0.00  0.00    +0.000 A 
ATOM      7  C   UNL     1       1.852   9.259  18.261  0.00  0.00    +0.000 A 
ATOM      8  C   UNL     1       2.181   7.953  18.556  0.00  0.00    +0.000 A 
ATOM      9  C   UNL     1       1.853   7.441  19.805  0.00  0.00    +0.000 A 
ATOM     10 CL   UNL     1       2.185   5.788  20.145  0.00  0.00    +0.000 Cl
ATOM     11  C   UNL     1       1.254   8.240  20.770  0.00  0.00    +0.000 A 
ATOM     12  C   UNL     1       0.977   9.577  20.491  0.00  0.00    +0.000 A 
ENDBRANCH   3   6
BRANCH   1  16
ATOM     13  N   UNL     1       2.941  15.895  20.953  0.00  0.00    +0.000 NA
ATOM     14  C   UNL     1       3.748  15.031  20.039  0.00  0.00    +0.000 C 
ATOM     15  C   UNL     1       3.339  15.182  18.578  0.00  0.00    +0.000 C 
ATOM     16  C   UNL     1       1.827  15.095  18.361  0.00  0.00    +0.000 C 
ATOM     17  C   UNL     1       1.157  16.164  19.218  0.00  0.00    +0.000 C 
ATOM     18  C   UNL     1       1.478  16.005  20.699  0.00  0.00    +0.000 C 
BRANCH  13  19
ATOM     19  S   UNL     1       3.407  15.795  22.604  0.00  0.00    +0.000 S 
ATOM     20  O   UNL     1       3.953  14.471  22.824  0.00  0.00    +0.000 OA
ATOM     21  O   UNL     1       2.311  16.300  23.408  0.00  0.00    +0.000 OA
BRANCH  19  23
ATOM     22  C   UNL     1       6.112  16.271  22.594  0.00  0.00    +0.000 C 
ATOM     23  C   UNL     1       4.765  16.965  22.644  0.00  0.00    +0.000 C 
ENDBRANCH  19  23
ENDBRANCH  13  19
ENDBRANCH   1  16
BRANCH   4  24
ATOM     24  C   UNL     1      -1.470  11.561  18.441  0.00  0.00    +0.000 A 
ATOM     25  C   UNL     1      -1.505  10.530  17.450  0.00  0.00    +0.000 A 
ATOM     26  C   UNL     1      -2.648   9.885  17.084  0.00  0.00    +0.000 A 
ATOM     27  C   UNL     1      -3.832  10.285  17.649  0.00  0.00    +0.000 A 
ATOM     28  C   UNL     1      -3.844  11.298  18.601  0.00  0.00    +0.000 A 
ATOM     29  C   UNL     1      -2.687  11.958  19.036  0.00  0.00    +0.000 A 
BRANCH  29  30
ATOM     30  O   UNL     1      -2.787  12.960  19.966  0.00  0.00    +0.000 OA
ATOM     31  C   UNL     1      -2.704  12.582  21.349  0.00  0.00    +0.000 C 
ENDBRANCH  29  30
ENDBRANCH   4  24
TORSDOF 6
ENDMDL
MODEL 4
REMARK VINA RESULT:      -6.4      2.114      2.955
REMARK  Name = 
REMARK  8 active torsions:
REMARK  status: ('A' for Active; 'I' for Inactive)
REMARK    1  A    between atoms: C_1  and  C_2
REMARK    2  A    between atoms: C_2  and  S_3
REMARK    3  A    between atoms: S_3  and  N_6
REMARK    4  A    between atoms: C_9  and  C_10
REMARK    5  A    between atoms: C_12  and  C_13
REMARK    6  A    between atoms: N_20  and  C_21
REMARK    7  A    between atoms: C_26  and  O_27
REMARK    8  A    between atoms: O_27  and  C_28
REMARK                            x       y       z     vdW  Elec       q    Type
REMARK                         _______ _______ _______ _____ _____    ______ ____
ROOT
ATOM      1  C   UNL     1       0.291  14.691  21.584  0.00  0.00    +0.000 A 
ATOM      2  C   UNL     1      -0.991  14.616  21.014  0.00  0.00    +0.000 A 
ATOM      3  C   UNL     1      -1.203  13.304  20.685  0.00  0.00    +0.000 A 
ATOM      4  N   UNL     1      -0.053  12.621  21.135  0.00  0.00    +0.000 N 
ATOM      5  N   UNL     1       0.891  13.497  21.571  0.00  0.00    +0.000 NA
ENDROOT
BRANCH   3   6
ATOM      6  C   UNL     1      -2.376  12.750  19.998  0.00  0.00    +0.000 A 
ATOM      7  C   UNL     1      -3.669  12.949  20.507  0.00  0.00    +0.000 A 
ATOM      8  C   UNL     1      -4.786  12.519  19.823  0.00  0.00    +0.000 A 
ATOM      9  C   UNL     1      -4.620  11.787  18.654  0.00  0.00    +0.000 A 
ATOM     10 CL   UNL     1      -6.010  11.177  17.844  0.00  0.00    +0.000 Cl
ATOM     11  C   UNL     1      -3.354  11.535  18.142  0.00  0.00    +0.000 A 
ATOM     12  C   UNL     1      -2.228  12.022  18.802  0.00  0.00    +0.000 A 
ENDBRANCH   3   6
BRANCH   1  16
ATOM     13  N   UNL     1       2.933  16.647  20.083  0.00  0.00    +0.000 NA
ATOM     14  C   UNL     1       1.513  17.100  19.969  0.00  0.00    +0.000 C 
ATOM     15  C   UNL     1       0.806  17.153  21.319  0.00  0.00    +0.000 C 
ATOM     16  C   UNL     1       1.002  15.888  22.155  0.00  0.00    +0.000 C 
ATOM     17  C   UNL     1       2.499  15.664  22.343  0.00  0.00    +0.000 C 
ATOM     18  C   UNL     1       3.236  15.529  21.017  0.00  0.00    +0.000 C 
BRANCH  13  19
ATOM     19  S   UNL     1       3.783  16.626  18.590  0.00  0.00    +0.000 S 
ATOM     20  O   UNL     1       5.083  17.222  18.819  0.00  0.00    +0.000 OA
ATOM     21  O   UNL     1       2.893  17.134  17.563  0.00  0.00    +0.000 OA
BRANCH  19  23
ATOM     22  C   UNL     1       2.726  14.166  17.982  0.00  0.00    +0.000 C 
ATOM     23  C   UNL     1       4.018  14.863  18.358  0.00  0.00    +0.000 C 
ENDBRANCH  19  23
ENDBRANCH  13  19
ENDBRANCH   1  16
BRANCH   4  24
ATOM     24  C   UNL     1       0.115  11.210  21.320  0.00  0.00    +0.000 A 
ATOM     25  C   UNL     1      -0.318  10.650  22.563  0.00  0.00    +0.000 A 
ATOM     26  C   UNL     1      -0.203   9.326  22.864  0.00  0.00    +0.000 A 
ATOM     27  C   UNL     1       0.411   8.501  21.957  0.00  0.00    +0.000 A 
ATOM     28  C   UNL     1       0.865   9.011  20.746  0.00  0.00    +0.000 A 
ATOM     29  C   UNL     1       0.729  10.356  20.379  0.00  0.00    +0.000 A 
BRANCH  29  30
ATOM     30  O   UNL     1       1.219  10.783  19.172  0.00  0.00    +0.000 OA
ATOM     31  C   UNL     1       1.586   9.772  18.219  0.00  0.00    +0.000 C 
ENDBRANCH  29  30
ENDBRANCH   4  24
TORSDOF 6
ENDMDL
MODEL 5
REMARK VINA RESULT:      -6.4      1.265      1.628
REMARK  Name = 
REMARK  8 active torsions:
REMARK  status: ('A' for Active; 'I' for Inactive)
REMARK    1  A    between atoms: C_1  and  C_2
REMARK    2  A    between atoms: C_2  and  S_3
REMARK    3  A    between atoms: S_3  and  N_6
REMARK    4  A    between atoms: C_9  and  C_10
REMARK    5  A    between atoms: C_12  and  C_13
REMARK    6  A    between atoms: N_20  and  C_21
REMARK    7  A    between atoms: C_26  and  O_27
REMARK    8  A    between atoms: O_27  and  C_28
REMARK                            x       y       z     vdW  Elec       q    Type
REMARK                         _______ _______ _______ _____ _____    ______ ____
ROOT
ATOM      1  C   UNL     1       1.137  13.844  18.947  0.00  0.00    +0.000 A 
ATOM      2  C   UNL     1      -0.212  13.856  18.556  0.00  0.00    +0.000 A 
ATOM      3  C   UNL     1      -0.777  12.708  19.045  0.00  0.00    +0.000 A 
ATOM      4  N   UNL     1       0.250  12.075  19.777  0.00  0.00    +0.000 N 
ATOM      5  N   UNL     1       1.434  12.721  19.607  0.00  0.00    +0.000 NA
ENDROOT
BRANCH   3   6
ATOM      6  C   UNL     1      -2.154  12.247  18.829  0.00  0.00    +0.000 A 
ATOM      7  C   UNL     1      -3.168  12.551  19.751  0.00  0.00    +0.000 A 
ATOM      8  C   UNL     1      -4.483  12.208  19.515  0.00  0.00    +0.000 A 
ATOM      9  C   UNL     1      -4.791  11.460  18.386  0.00  0.00    +0.000 A 
ATOM     10 CL   UNL     1      -6.417  10.959  18.133  0.00  0.00    +0.000 Cl
ATOM     11  C   UNL     1      -3.807  11.105  17.472  0.00  0.00    +0.000 A 
ATOM     12  C   UNL     1      -2.489  11.504  17.681  0.00  0.00    +0.000 A 
ENDBRANCH   3   6
BRANCH   1  16
ATOM     13  N   UNL     1       2.099  16.582  21.100  0.00  0.00    +0.000 NA
ATOM     14  C   UNL     1       2.865  15.300  21.138  0.00  0.00    +0.000 C 
ATOM     15  C   UNL     1       3.315  14.846  19.754  0.00  0.00    +0.000 C 
ATOM     16  C   UNL     1       2.197  14.885  18.711  0.00  0.00    +0.000 C 
ATOM     17  C   UNL     1       1.643  16.305  18.655  0.00  0.00    +0.000 C 
ATOM     18  C   UNL     1       1.111  16.773  20.003  0.00  0.00    +0.000 C 
BRANCH  13  19
ATOM     19  S   UNL     1       1.620  17.158  22.646  0.00  0.00    +0.000 S 
ATOM     20  O   UNL     1       1.771  18.598  22.642  0.00  0.00    +0.000 OA
ATOM     21  O   UNL     1       2.271  16.336  23.649  0.00  0.00    +0.000 OA
BRANCH  19  23
ATOM     22  C   UNL     1      -0.415  15.354  23.023  0.00  0.00    +0.000 C 
ATOM     23  C   UNL     1      -0.134  16.787  22.619  0.00  0.00    +0.000 C 
ENDBRANCH  19  23
ENDBRANCH  13  19
ENDBRANCH   1  16
BRANCH   4  24
ATOM     24  C   UNL     1       0.122  11.016  20.733  0.00  0.00    +0.000 A 
ATOM     25  C   UNL     1      -0.540  11.314  21.966  0.00  0.00    +0.000 A 
ATOM     26  C   UNL     1      -0.715  10.398  22.959  0.00  0.00    +0.000 A 
ATOM     27  C   UNL     1      -0.178   9.147  22.795  0.00  0.00    +0.000 A 
ATOM     28  C   UNL     1       0.492   8.823  21.620  0.00  0.00    +0.000 A 
ATOM     29  C   UNL     1       0.657   9.722  20.558  0.00  0.00    +0.000 A 
BRANCH  29  30
ATOM     30  O   UNL     1       1.347   9.330  19.439  0.00  0.00    +0.000 OA
ATOM     31  C   UNL     1       0.667   9.440  18.178  0.00  0.00    +0.000 C 
ENDBRANCH  29  30
ENDBRANCH   4  24
TORSDOF 6
ENDMDL
MODEL 6
REMARK VINA RESULT:      -6.3      2.311      2.965
REMARK  Name = 
REMARK  8 active torsions:
REMARK  status: ('A' for Active; 'I' for Inactive)
REMARK    1  A    between atoms: C_1  and  C_2
REMARK    2  A    between atoms: C_2  and  S_3
REMARK    3  A    between atoms: S_3  and  N_6
REMARK    4  A    between atoms: C_9  and  C_10
REMARK    5  A    between atoms: C_12  and  C_13
REMARK    6  A    between atoms: N_20  and  C_21
REMARK    7  A    between atoms: C_26  and  O_27
REMARK    8  A    between atoms: O_27  and  C_28
REMARK                            x       y       z     vdW  Elec       q    Type
REMARK                         _______ _______ _______ _____ _____    ______ ____
ROOT
ATOM      1  C   UNL     1      -0.111  14.878  21.300  0.00  0.00    +0.000 A 
ATOM      2  C   UNL     1      -1.410  14.740  20.783  0.00  0.00    +0.000 A 
ATOM      3  C   UNL     1      -1.625  13.399  20.602  0.00  0.00    +0.000 A 
ATOM      4  N   UNL     1      -0.457  12.771  21.086  0.00  0.00    +0.000 N 
ATOM      5  N   UNL     1       0.495  13.691  21.395  0.00  0.00    +0.000 NA
ENDROOT
BRANCH   3   6
ATOM      6  C   UNL     1      -2.815  12.773  20.016  0.00  0.00    +0.000 A 
ATOM      7  C   UNL     1      -4.082  12.952  20.594  0.00  0.00    +0.000 A 
ATOM      8  C   UNL     1      -5.221  12.450  20.000  0.00  0.00    +0.000 A 
ATOM      9  C   UNL     1      -5.099  11.669  18.859  0.00  0.00    +0.000 A 
ATOM     10 CL   UNL     1      -6.511  10.972  18.166  0.00  0.00    +0.000 Cl
ATOM     11  C   UNL     1      -3.857  11.436  18.282  0.00  0.00    +0.000 A 
ATOM     12  C   UNL     1      -2.712  11.993  18.848  0.00  0.00    +0.000 A 
ENDBRANCH   3   6
BRANCH   1  16
ATOM     13  N   UNL     1       2.535  16.619  19.561  0.00  0.00    +0.000 NA
ATOM     14  C   UNL     1       1.118  17.064  19.399  0.00  0.00    +0.000 C 
ATOM     15  C   UNL     1       0.418  17.286  20.735  0.00  0.00    +0.000 C 
ATOM     16  C   UNL     1       0.610  16.131  21.718  0.00  0.00    +0.000 C 
ATOM     17  C   UNL     1       2.107  15.921  21.926  0.00  0.00    +0.000 C 
ATOM     18  C   UNL     1       2.836  15.621  20.623  0.00  0.00    +0.000 C 
BRANCH  13  19
ATOM     19  S   UNL     1       3.377  16.410  18.078  0.00  0.00    +0.000 S 
ATOM     20  O   UNL     1       3.014  17.511  17.211  0.00  0.00    +0.000 OA
ATOM     21  O   UNL     1       3.204  15.032  17.658  0.00  0.00    +0.000 OA
BRANCH  19  23
ATOM     22  C   UNL     1       5.910  15.413  18.436  0.00  0.00    +0.000 C 
ATOM     23  C   UNL     1       5.071  16.662  18.611  0.00  0.00    +0.000 C 
ENDBRANCH  19  23
ENDBRANCH  13  19
ENDBRANCH   1  16
BRANCH   4  24
ATOM     24  C   UNL     1      -0.276  11.389  21.413  0.00  0.00    +0.000 A 
ATOM     25  C   UNL     1      -0.725  10.949  22.698  0.00  0.00    +0.000 A 
ATOM     26  C   UNL     1      -0.600   9.664  23.133  0.00  0.00    +0.000 A 
ATOM     27  C   UNL     1       0.043   8.761  22.325  0.00  0.00    +0.000 A 
ATOM     28  C   UNL     1       0.513   9.154  21.076  0.00  0.00    +0.000 A 
ATOM     29  C   UNL     1       0.368  10.453  20.575  0.00  0.00    +0.000 A 
BRANCH  29  30
ATOM     30  O   UNL     1       0.877  10.765  19.340  0.00  0.00    +0.000 OA
ATOM     31  C   UNL     1       0.814   9.746  18.329  0.00  0.00    +0.000 C 
ENDBRANCH  29  30
ENDBRANCH   4  24
TORSDOF 6
ENDMDL
MODEL 7
REMARK VINA RESULT:      -6.3      4.583      7.531
REMARK  Name = 
REMARK  8 active torsions:
REMARK  status: ('A' for Active; 'I' for Inactive)
REMARK    1  A    between atoms: C_1  and  C_2
REMARK    2  A    between atoms: C_2  and  S_3
REMARK    3  A    between atoms: S_3  and  N_6
REMARK    4  A    between atoms: C_9  and  C_10
REMARK    5  A    between atoms: C_12  and  C_13
REMARK    6  A    between atoms: N_20  and  C_21
REMARK    7  A    between atoms: C_26  and  O_27
REMARK    8  A    between atoms: O_27  and  C_28
REMARK                            x       y       z     vdW  Elec       q    Type
REMARK                         _______ _______ _______ _____ _____    ______ ____
ROOT
ATOM      1  C   UNL     1       0.908   8.121  20.437  0.00  0.00    +0.000 A 
ATOM      2  C   UNL     1       1.916   8.213  19.463  0.00  0.00    +0.000 A 
ATOM      3  C   UNL     1       2.530   6.989  19.411  0.00  0.00    +0.000 A 
ATOM      4  N   UNL     1       1.815   6.180  20.319  0.00  0.00    +0.000 N 
ATOM      5  N   UNL     1       0.910   6.918  21.016  0.00  0.00    +0.000 NA
ENDROOT
BRANCH   3   6
ATOM      6  C   UNL     1       3.691   6.624  18.591  0.00  0.00    +0.000 A 
ATOM      7  C   UNL     1       4.676   5.754  19.084  0.00  0.00    +0.000 A 
ATOM      8  C   UNL     1       5.721   5.325  18.293  0.00  0.00    +0.000 A 
ATOM      9  C   UNL     1       5.852   5.845  17.011  0.00  0.00    +0.000 A 
ATOM     10 CL   UNL     1       7.202   5.377  16.053  0.00  0.00    +0.000 Cl
ATOM     11  C   UNL     1       4.920   6.741  16.503  0.00  0.00    +0.000 A 
ATOM     12  C   UNL     1       3.831   7.126  17.283  0.00  0.00    +0.000 A 
ENDBRANCH   3   6
BRANCH   1  16
ATOM     13  N   UNL     1       1.005  11.684  19.840  0.00  0.00    +0.000 NA
ATOM     14  C   UNL     1       0.223  10.796  18.927  0.00  0.00    +0.000 C 
ATOM     15  C   UNL     1      -0.740   9.885  19.679  0.00  0.00    +0.000 C 
ATOM     16  C   UNL     1      -0.091   9.163  20.861  0.00  0.00    +0.000 C 
ATOM     17  C   UNL     1       0.497  10.211  21.800  0.00  0.00    +0.000 C 
ATOM     18  C   UNL     1       1.524  11.099  21.107  0.00  0.00    +0.000 C 
BRANCH  13  19
ATOM     19  S   UNL     1       2.063  12.766  19.028  0.00  0.00    +0.000 S 
ATOM     20  O   UNL     1       2.678  12.039  17.936  0.00  0.00    +0.000 OA
ATOM     21  O   UNL     1       2.868  13.439  20.030  0.00  0.00    +0.000 OA
BRANCH  19  23
ATOM     22  C   UNL     1       0.041  14.587  19.395  0.00  0.00    +0.000 C 
ATOM     23  C   UNL     1       0.890  13.926  18.327  0.00  0.00    +0.000 C 
ENDBRANCH  19  23
ENDBRANCH  13  19
ENDBRANCH   1  16
BRANCH   4  24
ATOM     24  C   UNL     1       1.837   4.752  20.427  0.00  0.00    +0.000 A 
ATOM     25  C   UNL     1       2.171   4.190  21.700  0.00  0.00    +0.000 A 
ATOM     26  C   UNL     1       2.238   2.849  21.929  0.00  0.00    +0.000 A 
ATOM     27  C   UNL     1       2.033   1.996  20.876  0.00  0.00    +0.000 A 
ATOM     28  C   UNL     1       1.725   2.502  19.617  0.00  0.00    +0.000 A 
ATOM     29  C   UNL     1       1.607   3.871  19.349  0.00  0.00    +0.000 A 
BRANCH  29  30
ATOM     30  O   UNL     1       1.318   4.290  18.075  0.00  0.00    +0.000 OA
ATOM     31  C   UNL     1       2.168   3.811  17.020  0.00  0.00    +0.000 C 
ENDBRANCH  29  30
ENDBRANCH   4  24
TORSDOF 6
ENDMDL
MODEL 8
REMARK VINA RESULT:      -6.3      4.289      7.450
REMARK  Name = 
REMARK  8 active torsions:
REMARK  status: ('A' for Active; 'I' for Inactive)
REMARK    1  A    between atoms: C_1  and  C_2
REMARK    2  A    between atoms: C_2  and  S_3
REMARK    3  A    between atoms: S_3  and  N_6
REMARK    4  A    between atoms: C_9  and  C_10
REMARK    5  A    between atoms: C_12  and  C_13
REMARK    6  A    between atoms: N_20  and  C_21
REMARK    7  A    between atoms: C_26  and  O_27
REMARK    8  A    between atoms: O_27  and  C_28
REMARK                            x       y       z     vdW  Elec       q    Type
REMARK                         _______ _______ _______ _____ _____    ______ ____
ROOT
ATOM      1  C   UNL     1       5.654  16.233  19.668  0.00  0.00    +0.000 A 
ATOM      2  C   UNL     1       5.128  14.931  19.723  0.00  0.00    +0.000 A 
ATOM      3  C   UNL     1       3.792  15.031  19.438  0.00  0.00    +0.000 A 
ATOM      4  N   UNL     1       3.577  16.397  19.153  0.00  0.00    +0.000 N 
ATOM      5  N   UNL     1       4.695  17.126  19.413  0.00  0.00    +0.000 NA
ENDROOT
BRANCH   3   6
ATOM      6  C   UNL     1       2.809  13.942  19.447  0.00  0.00    +0.000 A 
ATOM      7  C   UNL     1       2.641  13.113  18.325  0.00  0.00    +0.000 A 
ATOM      8  C   UNL     1       1.792  12.027  18.353  0.00  0.00    +0.000 A 
ATOM      9  C   UNL     1       1.015  11.808  19.482  0.00  0.00    +0.000 A 
ATOM     10 CL   UNL     1      -0.107  10.504  19.486  0.00  0.00    +0.000 Cl
ATOM     11  C   UNL     1       1.123  12.632  20.596  0.00  0.00    +0.000 A 
ATOM     12  C   UNL     1       2.025  13.693  20.589  0.00  0.00    +0.000 A 
ENDBRANCH   3   6
BRANCH   1  16
ATOM     13  N   UNL     1       8.687  14.533  18.684  0.00  0.00    +0.000 NA
ATOM     14  C   UNL     1       8.100  15.582  17.797  0.00  0.00    +0.000 C 
ATOM     15  C   UNL     1       7.821  16.885  18.536  0.00  0.00    +0.000 C 
ATOM     16  C   UNL     1       7.077  16.684  19.858  0.00  0.00    +0.000 C 
ATOM     17  C   UNL     1       7.895  15.738  20.730  0.00  0.00    +0.000 C 
ATOM     18  C   UNL     1       8.134  14.391  20.059  0.00  0.00    +0.000 C 
BRANCH  13  19
ATOM     19  S   UNL     1       9.068  13.065  17.876  0.00  0.00    +0.000 S 
ATOM     20  O   UNL     1      10.275  13.289  17.108  0.00  0.00    +0.000 OA
ATOM     21  O   UNL     1       7.856  12.576  17.247  0.00  0.00    +0.000 OA
BRANCH  19  23
ATOM     22  C   UNL     1       9.217  10.550  18.967  0.00  0.00    +0.000 C 
ATOM     23  C   UNL     1       9.486  12.011  19.265  0.00  0.00    +0.000 C 
ENDBRANCH  19  23
ENDBRANCH  13  19
ENDBRANCH   1  16
BRANCH   4  24
ATOM     24  C   UNL     1       2.446  16.992  18.507  0.00  0.00    +0.000 A 
ATOM     25  C   UNL     1       2.578  17.333  17.124  0.00  0.00    +0.000 A 
ATOM     26  C   UNL     1       1.581  17.913  16.400  0.00  0.00    +0.000 A 
ATOM     27  C   UNL     1       0.414  18.242  17.042  0.00  0.00    +0.000 A 
ATOM     28  C   UNL     1       0.254  17.946  18.391  0.00  0.00    +0.000 A 
ATOM     29  C   UNL     1       1.237  17.312  19.161  0.00  0.00    +0.000 A 
BRANCH  29  30
ATOM     30  O   UNL     1       1.007  17.072  20.492  0.00  0.00    +0.000 OA
ATOM     31  C   UNL     1       0.276  18.071  21.221  0.00  0.00    +0.000 C 
ENDBRANCH  29  30
ENDBRANCH   4  24
TORSDOF 6
ENDMDL
MODEL 9
REMARK VINA RESULT:      -6.2      3.176      5.321
REMARK  Name = 
REMARK  8 active torsions:
REMARK  status: ('A' for Active; 'I' for Inactive)
REMARK    1  A    between atoms: C_1  and  C_2
REMARK    2  A    between atoms: C_2  and  S_3
REMARK    3  A    between atoms: S_3  and  N_6
REMARK    4  A    between atoms: C_9  and  C_10
REMARK    5  A    between atoms: C_12  and  C_13
REMARK    6  A    between atoms: N_20  and  C_21
REMARK    7  A    between atoms: C_26  and  O_27
REMARK    8  A    between atoms: O_27  and  C_28
REMARK                            x       y       z     vdW  Elec       q    Type
REMARK                         _______ _______ _______ _____ _____    ______ ____
ROOT
ATOM      1  C   UNL     1       0.132  13.574  20.665  0.00  0.00    +0.000 A 
ATOM      2  C   UNL     1       1.100  12.580  20.446  0.00  0.00    +0.000 A 
ATOM      3  C   UNL     1       0.472  11.548  19.801  0.00  0.00    +0.000 A 
ATOM      4  N   UNL     1      -0.851  11.995  19.595  0.00  0.00    +0.000 N 
ATOM      5  N   UNL     1      -1.067  13.177  20.231  0.00  0.00    +0.000 NA
ENDROOT
BRANCH   3   6
ATOM      6  C   UNL     1       1.061  10.258  19.427  0.00  0.00    +0.000 A 
ATOM      7  C   UNL     1       1.677  10.082  18.177  0.00  0.00    +0.000 A 
ATOM      8  C   UNL     1       2.320   8.907  17.849  0.00  0.00    +0.000 A 
ATOM      9  C   UNL     1       2.271   7.842  18.738  0.00  0.00    +0.000 A 
ATOM     10 CL   UNL     1       2.999   6.348  18.295  0.00  0.00    +0.000 Cl
ATOM     11  C   UNL     1       1.635   7.965  19.967  0.00  0.00    +0.000 A 
ATOM     12  C   UNL     1       1.038   9.172  20.323  0.00  0.00    +0.000 A 
ENDBRANCH   3   6
BRANCH   1  16
ATOM     13  N   UNL     1       2.278  16.282  19.608  0.00  0.00    +0.000 NA
ATOM     14  C   UNL     1       0.844  16.260  19.189  0.00  0.00    +0.000 C 
ATOM     15  C   UNL     1      -0.107  16.074  20.365  0.00  0.00    +0.000 C 
ATOM     16  C   UNL     1       0.298  14.930  21.296  0.00  0.00    +0.000 C 
ATOM     17  C   UNL     1       1.716  15.193  21.791  0.00  0.00    +0.000 C 
ATOM     18  C   UNL     1       2.717  15.311  20.648  0.00  0.00    +0.000 C 
BRANCH  13  19
ATOM     19  S   UNL     1       3.381  16.545  18.318  0.00  0.00    +0.000 S 
ATOM     20  O   UNL     1       4.560  17.178  18.873  0.00  0.00    +0.000 OA
ATOM     21  O   UNL     1       2.649  17.149  17.222  0.00  0.00    +0.000 OA
BRANCH  19  23
ATOM     22  C   UNL     1       5.313  14.646  17.867  0.00  0.00    +0.000 C 
ATOM     23  C   UNL     1       3.812  14.858  17.890  0.00  0.00    +0.000 C 
ENDBRANCH  19  23
ENDBRANCH  13  19
ENDBRANCH   1  16
BRANCH   4  24
ATOM     24  C   UNL     1      -1.835  11.447  18.710  0.00  0.00    +0.000 A 
ATOM     25  C   UNL     1      -1.372  10.630  17.631  0.00  0.00    +0.000 A 
ATOM     26  C   UNL     1      -2.206  10.061  16.715  0.00  0.00    +0.000 A 
ATOM     27  C   UNL     1      -3.548  10.333  16.797  0.00  0.00    +0.000 A 
ATOM     28  C   UNL     1      -4.036  11.139  17.819  0.00  0.00    +0.000 A 
ATOM     29  C   UNL     1      -3.219  11.709  18.804  0.00  0.00    +0.000 A 
BRANCH  29  30
ATOM     30  O   UNL     1      -3.777  12.508  19.769  0.00  0.00    +0.000 OA
ATOM     31  C   UNL     1      -5.200  12.426  19.946  0.00  0.00    +0.000 C 
ENDBRANCH  29  30
ENDBRANCH   4  24
TORSDOF 6
ENDMDL
