MODEL 1
REMARK VINA RESULT:      -8.2      0.000      0.000
REMARK  Name = 
REMARK  7 active torsions:
REMARK  status: ('A' for Active; 'I' for Inactive)
REMARK    1  A    between atoms: C_2  and  C_3
REMARK    2  A    between atoms: C_3  and  N_4
REMARK    3  A    between atoms: C_5  and  C_7
REMARK    4  A    between atoms: C_7  and  C_8
REMARK    5  A    between atoms: C_7  and  N_16
REMARK    6  A    between atoms: C_8  and  C_9
REMARK    7  A    between atoms: C_17  and  C_19
REMARK                            x       y       z     vdW  Elec       q    Type
REMARK                         _______ _______ _______ _____ _____    ______ ____
ROOT
ATOM      1  C   UNL     1       2.541   6.392  18.130  0.00  0.00    +0.000 C 
ENDROOT
BRANCH   1   3
ATOM      2  N   UNL     1       1.515   4.681  19.631  0.00  0.00    +0.000 N 
ATOM      3  C   UNL     1       1.915   4.975  18.348  0.00  0.00    +0.000 C 
ATOM      4  O   UNL     1       1.707   4.188  17.424  0.00  0.00    +0.000 OA
ATOM      5  H   UNL     1       1.933   5.229  20.386  0.00  0.00    +0.000 HD
BRANCH   2   6
ATOM      6  C   UNL     1       0.888   3.411  19.955  0.00  0.00    +0.000 C 
BRANCH   6   8
ATOM      7  N   UNL     1       1.800   2.357  22.196  0.00  0.00    +0.000 NA
ATOM      8  C   UNL     1       1.390   2.818  21.216  0.00  0.00    +0.000 C 
ENDBRANCH   6   8
ENDBRANCH   2   6
ENDBRANCH   1   3
BRANCH   1   9
ATOM      9  N   UNL     1       1.733   7.467  18.734  0.00  0.00    +0.000 N 
ATOM     10  C   UNL     1       1.678   8.762  18.270  0.00  0.00    +0.000 C 
ATOM     11  O   UNL     1       2.263   9.097  17.249  0.00  0.00    +0.000 OA
ATOM     12  H   UNL     1       1.281   7.244  19.609  0.00  0.00    +0.000 HD
BRANCH  10  13
ATOM     13  C   UNL     1       0.805   9.713  19.041  0.00  0.00    +0.000 A 
ATOM     14  C   UNL     1       1.261  10.189  20.284  0.00  0.00    +0.000 A 
ATOM     15  C   UNL     1       0.494  11.082  21.025  0.00  0.00    +0.000 A 
ATOM     16  C   UNL     1      -0.722  11.534  20.521  0.00  0.00    +0.000 A 
ATOM     17  C   UNL     1      -1.203  11.086  19.284  0.00  0.00    +0.000 A 
ATOM     18  C   UNL     1      -2.432  11.571  18.803  0.00  0.00    +0.000 A 
ATOM     19  C   UNL     1      -2.953  11.132  17.585  0.00  0.00    +0.000 A 
ATOM     20  C   UNL     1      -2.261  10.191  16.845  0.00  0.00    +0.000 A 
ATOM     21  C   UNL     1      -1.036   9.703  17.309  0.00  0.00    +0.000 A 
ATOM     22  C   UNL     1      -0.455  10.147  18.524  0.00  0.00    +0.000 A 
ENDBRANCH  10  13
ENDBRANCH   1   9
BRANCH   1  23
ATOM     23  C   UNL     1       3.956   6.388  18.763  0.00  0.00    +0.000 C 
BRANCH  23  24
ATOM     24  C   UNL     1       5.045   5.667  17.989  0.00  0.00    +0.000 A 
ATOM     25  C   UNL     1       6.276   5.357  18.583  0.00  0.00    +0.000 A 
ATOM     26  C   UNL     1       7.311   4.794  17.826  0.00  0.00    +0.000 A 
ATOM     27  C   UNL     1       7.122   4.508  16.474  0.00  0.00    +0.000 A 
ATOM     28  C   UNL     1       5.885   4.780  15.887  0.00  0.00    +0.000 A 
ATOM     29 CL   UNL     1       5.631   4.383  14.232  0.00  0.00    +0.000 Cl
ATOM     30  C   UNL     1       4.859   5.364  16.630  0.00  0.00    +0.000 A 
ENDBRANCH  23  24
ENDBRANCH   1  23
TORSDOF 7
ENDMDL
MODEL 2
REMARK VINA RESULT:      -8.0      0.955      2.323
REMARK  Name = 
REMARK  7 active torsions:
REMARK  status: ('A' for Active; 'I' for Inactive)
REMARK    1  A    between atoms: C_2  and  C_3
REMARK    2  A    between atoms: C_3  and  N_4
REMARK    3  A    between atoms: C_5  and  C_7
REMARK    4  A    between atoms: C_7  and  C_8
REMARK    5  A    between atoms: C_7  and  N_16
REMARK    6  A    between atoms: C_8  and  C_9
REMARK    7  A    between atoms: C_17  and  C_19
REMARK                            x       y       z     vdW  Elec       q    Type
REMARK                         _______ _______ _______ _____ _____    ______ ____
ROOT
ATOM      1  C   UNL     1       2.570   6.097  17.934  0.00  0.00    +0.000 C 
ENDROOT
BRANCH   1   3
ATOM      2  N   UNL     1       2.412   4.027  19.321  0.00  0.00    +0.000 N 
ATOM      3  C   UNL     1       1.993   4.664  18.175  0.00  0.00    +0.000 C 
ATOM      4  O   UNL     1       1.147   4.152  17.439  0.00  0.00    +0.000 OA
ATOM      5  H   UNL     1       3.280   4.359  19.745  0.00  0.00    +0.000 HD
BRANCH   2   6
ATOM      6  C   UNL     1       1.920   2.707  19.674  0.00  0.00    +0.000 C 
BRANCH   6   8
ATOM      7  N   UNL     1       1.470   2.444  22.262  0.00  0.00    +0.000 NA
ATOM      8  C   UNL     1       1.663   2.551  21.124  0.00  0.00    +0.000 C 
ENDBRANCH   6   8
ENDBRANCH   2   6
ENDBRANCH   1   3
BRANCH   1   9
ATOM      9  N   UNL     1       1.670   7.159  18.419  0.00  0.00    +0.000 N 
ATOM     10  C   UNL     1       1.768   8.489  18.075  0.00  0.00    +0.000 C 
ATOM     11  O   UNL     1       2.595   8.875  17.260  0.00  0.00    +0.000 OA
ATOM     12  H   UNL     1       1.011   6.889  19.134  0.00  0.00    +0.000 HD
BRANCH  10  13
ATOM     13  C   UNL     1       0.761   9.417  18.694  0.00  0.00    +0.000 A 
ATOM     14  C   UNL     1      -0.066  10.178  17.846  0.00  0.00    +0.000 A 
ATOM     15  C   UNL     1      -1.022  11.039  18.375  0.00  0.00    +0.000 A 
ATOM     16  C   UNL     1      -1.186  11.128  19.753  0.00  0.00    +0.000 A 
ATOM     17  C   UNL     1      -0.385  10.380  20.627  0.00  0.00    +0.000 A 
ATOM     18  C   UNL     1      -0.585  10.491  22.014  0.00  0.00    +0.000 A 
ATOM     19  C   UNL     1       0.207   9.778  22.916  0.00  0.00    +0.000 A 
ATOM     20  C   UNL     1       1.218   8.962  22.440  0.00  0.00    +0.000 A 
ATOM     21  C   UNL     1       1.425   8.841  21.064  0.00  0.00    +0.000 A 
ATOM     22  C   UNL     1       0.623   9.520  20.113  0.00  0.00    +0.000 A 
ENDBRANCH  10  13
ENDBRANCH   1   9
BRANCH   1  23
ATOM     23  C   UNL     1       3.930   6.192  18.671  0.00  0.00    +0.000 C 
BRANCH  23  24
ATOM     24  C   UNL     1       5.127   5.575  17.970  0.00  0.00    +0.000 A 
ATOM     25  C   UNL     1       6.334   5.359  18.648  0.00  0.00    +0.000 A 
ATOM     26  C   UNL     1       7.465   4.895  17.963  0.00  0.00    +0.000 A 
ATOM     27  C   UNL     1       7.396   4.616  16.598  0.00  0.00    +0.000 A 
ATOM     28  C   UNL     1       6.186   4.794  15.925  0.00  0.00    +0.000 A 
ATOM     29 CL   UNL     1       6.084   4.404  14.253  0.00  0.00    +0.000 Cl
ATOM     30  C   UNL     1       5.064   5.280  16.599  0.00  0.00    +0.000 A 
ENDBRANCH  23  24
ENDBRANCH   1  23
TORSDOF 7
ENDMDL
MODEL 3
REMARK VINA RESULT:      -8.0      1.496      2.345
REMARK  Name = 
REMARK  7 active torsions:
REMARK  status: ('A' for Active; 'I' for Inactive)
REMARK    1  A    between atoms: C_2  and  C_3
REMARK    2  A    between atoms: C_3  and  N_4
REMARK    3  A    between atoms: C_5  and  C_7
REMARK    4  A    between atoms: C_7  and  C_8
REMARK    5  A    between atoms: C_7  and  N_16
REMARK    6  A    between atoms: C_8  and  C_9
REMARK    7  A    between atoms: C_17  and  C_19
REMARK                            x       y       z     vdW  Elec       q    Type
REMARK                         _______ _______ _______ _____ _____    ______ ____
ROOT
ATOM      1  C   UNL     1       2.719   6.159  17.806  0.00  0.00    +0.000 C 
ENDROOT
BRANCH   1   3
ATOM      2  N   UNL     1       1.710   4.650  19.521  0.00  0.00    +0.000 N 
ATOM      3  C   UNL     1       1.817   4.936  18.179  0.00  0.00    +0.000 C 
ATOM      4  O   UNL     1       1.165   4.307  17.343  0.00  0.00    +0.000 OA
ATOM      5  H   UNL     1       2.445   5.009  20.132  0.00  0.00    +0.000 HD
BRANCH   2   6
ATOM      6  C   UNL     1       0.875   3.561  19.996  0.00  0.00    +0.000 C 
BRANCH   6   8
ATOM      7  N   UNL     1       1.811   2.395  22.172  0.00  0.00    +0.000 NA
ATOM      8  C   UNL     1       1.409   2.906  21.213  0.00  0.00    +0.000 C 
ENDBRANCH   6   8
ENDBRANCH   2   6
ENDBRANCH   1   3
BRANCH   1   9
ATOM      9  N   UNL     1       2.088   7.450  18.136  0.00  0.00    +0.000 N 
ATOM     10  C   UNL     1       1.889   7.921  19.414  0.00  0.00    +0.000 C 
ATOM     11  O   UNL     1       2.301   7.308  20.389  0.00  0.00    +0.000 OA
ATOM     12  H   UNL     1       1.685   7.957  17.362  0.00  0.00    +0.000 HD
BRANCH  10  13
ATOM     13  C   UNL     1       1.210   9.257  19.537  0.00  0.00    +0.000 A 
ATOM     14  C   UNL     1       1.224  10.125  18.429  0.00  0.00    +0.000 A 
ATOM     15  C   UNL     1       0.595  11.364  18.492  0.00  0.00    +0.000 A 
ATOM     16  C   UNL     1      -0.080  11.739  19.649  0.00  0.00    +0.000 A 
ATOM     17  C   UNL     1      -0.120  10.897  20.769  0.00  0.00    +0.000 A 
ATOM     18  C   UNL     1      -0.819  11.307  21.917  0.00  0.00    +0.000 A 
ATOM     19  C   UNL     1      -0.864  10.505  23.058  0.00  0.00    +0.000 A 
ATOM     20  C   UNL     1      -0.195   9.294  23.069  0.00  0.00    +0.000 A 
ATOM     21  C   UNL     1       0.501   8.873  21.933  0.00  0.00    +0.000 A 
ATOM     22  C   UNL     1       0.544   9.641  20.742  0.00  0.00    +0.000 A 
ENDBRANCH  10  13
ENDBRANCH   1   9
BRANCH   1  23
ATOM     23  C   UNL     1       4.053   6.019  18.582  0.00  0.00    +0.000 C 
BRANCH  23  24
ATOM     24  C   UNL     1       5.210   5.380  17.836  0.00  0.00    +0.000 A 
ATOM     25  C   UNL     1       6.455   5.192  18.450  0.00  0.00    +0.000 A 
ATOM     26  C   UNL     1       7.546   4.705  17.717  0.00  0.00    +0.000 A 
ATOM     27  C   UNL     1       7.399   4.375  16.370  0.00  0.00    +0.000 A 
ATOM     28  C   UNL     1       6.151   4.525  15.763  0.00  0.00    +0.000 A 
ATOM     29 CL   UNL     1       5.952   4.072  14.115  0.00  0.00    +0.000 Cl
ATOM     30  C   UNL     1       5.068   5.033  16.483  0.00  0.00    +0.000 A 
ENDBRANCH  23  24
ENDBRANCH   1  23
TORSDOF 7
ENDMDL
MODEL 4
REMARK VINA RESULT:      -7.9      3.741      6.328
REMARK  Name = 
REMARK  7 active torsions:
REMARK  status: ('A' for Active; 'I' for Inactive)
REMARK    1  A    between atoms: C_2  and  C_3
REMARK    2  A    between atoms: C_3  and  N_4
REMARK    3  A    between atoms: C_5  and  C_7
REMARK    4  A    between atoms: C_7  and  C_8
REMARK    5  A    between atoms: C_7  and  N_16
REMARK    6  A    between atoms: C_8  and  C_9
REMARK    7  A    between atoms: C_17  and  C_19
REMARK                            x       y       z     vdW  Elec       q    Type
REMARK                         _______ _______ _______ _____ _____    ______ ____
ROOT
ATOM      1  C   UNL     1       5.796   4.162  16.563  0.00  0.00    +0.000 C 
ENDROOT
BRANCH   1   3
ATOM      2  N   UNL     1       6.866   5.968  17.916  0.00  0.00    +0.000 N 
ATOM      3  C   UNL     1       7.065   4.796  17.223  0.00  0.00    +0.000 C 
ATOM      4  O   UNL     1       8.170   4.250  17.207  0.00  0.00    +0.000 OA
ATOM      5  H   UNL     1       6.027   6.505  17.689  0.00  0.00    +0.000 HD
BRANCH   2   6
ATOM      6  C   UNL     1       7.958   6.635  18.602  0.00  0.00    +0.000 C 
BRANCH   6   8
ATOM      7  N   UNL     1       8.243   9.160  17.889  0.00  0.00    +0.000 NA
ATOM      8  C   UNL     1       8.124   8.049  18.195  0.00  0.00    +0.000 C 
ENDBRANCH   6   8
ENDBRANCH   2   6
ENDBRANCH   1   3
BRANCH   1   9
ATOM      9  N   UNL     1       4.631   4.158  17.465  0.00  0.00    +0.000 N 
ATOM     10  C   UNL     1       4.650   3.717  18.769  0.00  0.00    +0.000 C 
ATOM     11  O   UNL     1       5.689   3.352  19.302  0.00  0.00    +0.000 OA
ATOM     12  H   UNL     1       3.745   4.400  17.046  0.00  0.00    +0.000 HD
BRANCH  10  13
ATOM     13  C   UNL     1       3.347   3.780  19.516  0.00  0.00    +0.000 A 
ATOM     14  C   UNL     1       2.768   2.578  19.965  0.00  0.00    +0.000 A 
ATOM     15  C   UNL     1       1.571   2.589  20.674  0.00  0.00    +0.000 A 
ATOM     16  C   UNL     1       0.953   3.800  20.969  0.00  0.00    +0.000 A 
ATOM     17  C   UNL     1       1.504   5.016  20.544  0.00  0.00    +0.000 A 
ATOM     18  C   UNL     1       0.856   6.220  20.868  0.00  0.00    +0.000 A 
ATOM     19  C   UNL     1       1.363   7.449  20.444  0.00  0.00    +0.000 A 
ATOM     20  C   UNL     1       2.514   7.486  19.677  0.00  0.00    +0.000 A 
ATOM     21  C   UNL     1       3.171   6.296  19.350  0.00  0.00    +0.000 A 
ATOM     22  C   UNL     1       2.708   5.030  19.788  0.00  0.00    +0.000 A 
ENDBRANCH  10  13
ENDBRANCH   1   9
BRANCH   1  23
ATOM     23  C   UNL     1       5.465   4.981  15.289  0.00  0.00    +0.000 C 
BRANCH  23  24
ATOM     24  C   UNL     1       6.147   4.546  14.005  0.00  0.00    +0.000 A 
ATOM     25  C   UNL     1       7.212   5.278  13.463  0.00  0.00    +0.000 A 
ATOM     26  C   UNL     1       7.758   4.931  12.221  0.00  0.00    +0.000 A 
ATOM     27  C   UNL     1       7.266   3.832  11.517  0.00  0.00    +0.000 A 
ATOM     28  C   UNL     1       6.230   3.077  12.069  0.00  0.00    +0.000 A 
ATOM     29 CL   UNL     1       5.652   1.692  11.227  0.00  0.00    +0.000 Cl
ATOM     30  C   UNL     1       5.666   3.434  13.295  0.00  0.00    +0.000 A 
ENDBRANCH  23  24
ENDBRANCH   1  23
TORSDOF 7
ENDMDL
MODEL 5
REMARK VINA RESULT:      -7.8      1.121      1.452
REMARK  Name = 
REMARK  7 active torsions:
REMARK  status: ('A' for Active; 'I' for Inactive)
REMARK    1  A    between atoms: C_2  and  C_3
REMARK    2  A    between atoms: C_3  and  N_4
REMARK    3  A    between atoms: C_5  and  C_7
REMARK    4  A    between atoms: C_7  and  C_8
REMARK    5  A    between atoms: C_7  and  N_16
REMARK    6  A    between atoms: C_8  and  C_9
REMARK    7  A    between atoms: C_17  and  C_19
REMARK                            x       y       z     vdW  Elec       q    Type
REMARK                         _______ _______ _______ _____ _____    ______ ____
ROOT
ATOM      1  C   UNL     1       2.830   6.371  18.056  0.00  0.00    +0.000 C 
ENDROOT
BRANCH   1   3
ATOM      2  N   UNL     1       3.256   4.529  19.688  0.00  0.00    +0.000 N 
ATOM      3  C   UNL     1       2.865   4.848  18.407  0.00  0.00    +0.000 C 
ATOM      4  O   UNL     1       2.487   3.973  17.625  0.00  0.00    +0.000 OA
ATOM      5  H   UNL     1       3.795   5.232  20.197  0.00  0.00    +0.000 HD
BRANCH   2   6
ATOM      6  C   UNL     1       3.295   3.152  20.145  0.00  0.00    +0.000 C 
BRANCH   6   8
ATOM      7  N   UNL     1       1.634   2.692  22.144  0.00  0.00    +0.000 NA
ATOM      8  C   UNL     1       2.367   2.885  21.268  0.00  0.00    +0.000 C 
ENDBRANCH   6   8
ENDBRANCH   2   6
ENDBRANCH   1   3
BRANCH   1   9
ATOM      9  N   UNL     1       2.119   7.170  19.071  0.00  0.00    +0.000 N 
ATOM     10  C   UNL     1       1.718   8.476  18.901  0.00  0.00    +0.000 C 
ATOM     11  O   UNL     1       1.871   9.055  17.834  0.00  0.00    +0.000 OA
ATOM     12  H   UNL     1       2.024   6.746  19.982  0.00  0.00    +0.000 HD
BRANCH  10  13
ATOM     13  C   UNL     1       1.021   9.120  20.068  0.00  0.00    +0.000 A 
ATOM     14  C   UNL     1       1.340   8.684  21.367  0.00  0.00    +0.000 A 
ATOM     15  C   UNL     1       0.731   9.261  22.477  0.00  0.00    +0.000 A 
ATOM     16  C   UNL     1      -0.180  10.298  22.306  0.00  0.00    +0.000 A 
ATOM     17  C   UNL     1      -0.516  10.761  21.026  0.00  0.00    +0.000 A 
ATOM     18  C   UNL     1      -1.434  11.817  20.893  0.00  0.00    +0.000 A 
ATOM     19  C   UNL     1      -1.810  12.291  19.635  0.00  0.00    +0.000 A 
ATOM     20  C   UNL     1      -1.284  11.703  18.498  0.00  0.00    +0.000 A 
ATOM     21  C   UNL     1      -0.368  10.654  18.617  0.00  0.00    +0.000 A 
ATOM     22  C   UNL     1       0.066  10.165  19.875  0.00  0.00    +0.000 A 
ENDBRANCH  10  13
ENDBRANCH   1   9
BRANCH   1  23
ATOM     23  C   UNL     1       4.295   6.865  17.940  0.00  0.00    +0.000 C 
BRANCH  23  24
ATOM     24  C   UNL     1       5.288   5.904  17.313  0.00  0.00    +0.000 A 
ATOM     25  C   UNL     1       6.422   5.470  18.014  0.00  0.00    +0.000 A 
ATOM     26  C   UNL     1       7.388   4.674  17.386  0.00  0.00    +0.000 A 
ATOM     27  C   UNL     1       7.221   4.279  16.059  0.00  0.00    +0.000 A 
ATOM     28  C   UNL     1       6.076   4.676  15.368  0.00  0.00    +0.000 A 
ATOM     29 CL   UNL     1       5.842   4.150  13.746  0.00  0.00    +0.000 Cl
ATOM     30  C   UNL     1       5.123   5.490  15.982  0.00  0.00    +0.000 A 
ENDBRANCH  23  24
ENDBRANCH   1  23
TORSDOF 7
ENDMDL
MODEL 6
REMARK VINA RESULT:      -7.7      1.247      1.293
REMARK  Name = 
REMARK  7 active torsions:
REMARK  status: ('A' for Active; 'I' for Inactive)
REMARK    1  A    between atoms: C_2  and  C_3
REMARK    2  A    between atoms: C_3  and  N_4
REMARK    3  A    between atoms: C_5  and  C_7
REMARK    4  A    between atoms: C_7  and  C_8
REMARK    5  A    between atoms: C_7  and  N_16
REMARK    6  A    between atoms: C_8  and  C_9
REMARK    7  A    between atoms: C_17  and  C_19
REMARK                            x       y       z     vdW  Elec       q    Type
REMARK                         _______ _______ _______ _____ _____    ______ ____
ROOT
ATOM      1  C   UNL     1       2.534   6.702  18.196  0.00  0.00    +0.000 C 
ENDROOT
BRANCH   1   3
ATOM      2  N   UNL     1       1.790   4.321  18.083  0.00  0.00    +0.000 N 
ATOM      3  C   UNL     1       2.313   5.313  18.880  0.00  0.00    +0.000 C 
ATOM      4  O   UNL     1       2.660   5.077  20.039  0.00  0.00    +0.000 OA
ATOM      5  H   UNL     1       1.287   4.617  17.243  0.00  0.00    +0.000 HD
BRANCH   2   6
ATOM      6  C   UNL     1       1.570   2.979  18.592  0.00  0.00    +0.000 C 
BRANCH   6   8
ATOM      7  N   UNL     1       3.659   1.402  18.249  0.00  0.00    +0.000 NA
ATOM      8  C   UNL     1       2.738   2.087  18.404  0.00  0.00    +0.000 C 
ENDBRANCH   6   8
ENDBRANCH   2   6
ENDBRANCH   1   3
BRANCH   1   9
ATOM      9  N   UNL     1       1.707   7.766  18.793  0.00  0.00    +0.000 N 
ATOM     10  C   UNL     1       1.572   9.036  18.279  0.00  0.00    +0.000 C 
ATOM     11  O   UNL     1       2.094   9.351  17.218  0.00  0.00    +0.000 OA
ATOM     12  H   UNL     1       1.306   7.561  19.696  0.00  0.00    +0.000 HD
BRANCH  10  13
ATOM     13  C   UNL     1       0.693   9.980  19.051  0.00  0.00    +0.000 A 
ATOM     14  C   UNL     1       1.177  10.517  20.259  0.00  0.00    +0.000 A 
ATOM     15  C   UNL     1       0.405  11.406  20.999  0.00  0.00    +0.000 A 
ATOM     16  C   UNL     1      -0.845  11.795  20.528  0.00  0.00    +0.000 A 
ATOM     17  C   UNL     1      -1.356  11.286  19.326  0.00  0.00    +0.000 A 
ATOM     18  C   UNL     1      -2.619  11.707  18.879  0.00  0.00    +0.000 A 
ATOM     19  C   UNL     1      -3.170  11.207  17.698  0.00  0.00    +0.000 A 
ATOM     20  C   UNL     1      -2.470  10.267  16.963  0.00  0.00    +0.000 A 
ATOM     21  C   UNL     1      -1.211   9.841  17.395  0.00  0.00    +0.000 A 
ATOM     22  C   UNL     1      -0.601  10.349  18.570  0.00  0.00    +0.000 A 
ENDBRANCH  10  13
ENDBRANCH   1   9
BRANCH   1  23
ATOM     23  C   UNL     1       4.034   7.068  18.338  0.00  0.00    +0.000 C 
BRANCH  23  24
ATOM     24  C   UNL     1       5.031   6.102  17.724  0.00  0.00    +0.000 A 
ATOM     25  C   UNL     1       6.148   5.656  18.444  0.00  0.00    +0.000 A 
ATOM     26  C   UNL     1       7.119   4.855  17.829  0.00  0.00    +0.000 A 
ATOM     27  C   UNL     1       6.973   4.468  16.497  0.00  0.00    +0.000 A 
ATOM     28  C   UNL     1       5.844   4.878  15.787  0.00  0.00    +0.000 A 
ATOM     29 CL   UNL     1       5.635   4.362  14.159  0.00  0.00    +0.000 Cl
ATOM     30  C   UNL     1       4.886   5.696  16.388  0.00  0.00    +0.000 A 
ENDBRANCH  23  24
ENDBRANCH   1  23
TORSDOF 7
ENDMDL
MODEL 7
REMARK VINA RESULT:      -7.7      1.541      2.026
REMARK  Name = 
REMARK  7 active torsions:
REMARK  status: ('A' for Active; 'I' for Inactive)
REMARK    1  A    between atoms: C_2  and  C_3
REMARK    2  A    between atoms: C_3  and  N_4
REMARK    3  A    between atoms: C_5  and  C_7
REMARK    4  A    between atoms: C_7  and  C_8
REMARK    5  A    between atoms: C_7  and  N_16
REMARK    6  A    between atoms: C_8  and  C_9
REMARK    7  A    between atoms: C_17  and  C_19
REMARK                            x       y       z     vdW  Elec       q    Type
REMARK                         _______ _______ _______ _____ _____    ______ ____
ROOT
ATOM      1  C   UNL     1       2.743   6.369  18.208  0.00  0.00    +0.000 C 
ENDROOT
BRANCH   1   3
ATOM      2  N   UNL     1       1.686   4.641  19.667  0.00  0.00    +0.000 N 
ATOM      3  C   UNL     1       1.972   5.019  18.375  0.00  0.00    +0.000 C 
ATOM      4  O   UNL     1       1.562   4.360  17.418  0.00  0.00    +0.000 OA
ATOM      5  H   UNL     1       2.253   5.057  20.409  0.00  0.00    +0.000 HD
BRANCH   2   6
ATOM      6  C   UNL     1       0.945   3.425  19.953  0.00  0.00    +0.000 C 
BRANCH   6   8
ATOM      7  N   UNL     1       1.615   2.312  22.250  0.00  0.00    +0.000 NA
ATOM      8  C   UNL     1       1.329   2.797  21.238  0.00  0.00    +0.000 C 
ENDBRANCH   6   8
ENDBRANCH   2   6
ENDBRANCH   1   3
BRANCH   1   9
ATOM      9  N   UNL     1       2.071   7.493  18.884  0.00  0.00    +0.000 N 
ATOM     10  C   UNL     1       1.898   8.746  18.341  0.00  0.00    +0.000 C 
ATOM     11  O   UNL     1       2.242   8.994  17.193  0.00  0.00    +0.000 OA
ATOM     12  H   UNL     1       1.823   7.344  19.851  0.00  0.00    +0.000 HD
BRANCH  10  13
ATOM     13  C   UNL     1       1.200   9.760  19.204  0.00  0.00    +0.000 A 
ATOM     14  C   UNL     1       0.289   9.305  20.176  0.00  0.00    +0.000 A 
ATOM     15  C   UNL     1      -0.369  10.206  21.007  0.00  0.00    +0.000 A 
ATOM     16  C   UNL     1      -0.103  11.567  20.899  0.00  0.00    +0.000 A 
ATOM     17  C   UNL     1       0.803  12.055  19.947  0.00  0.00    +0.000 A 
ATOM     18  C   UNL     1       1.052  13.436  19.874  0.00  0.00    +0.000 A 
ATOM     19  C   UNL     1       1.931  13.961  18.925  0.00  0.00    +0.000 A 
ATOM     20  C   UNL     1       2.556  13.111  18.030  0.00  0.00    +0.000 A 
ATOM     21  C   UNL     1       2.320  11.735  18.094  0.00  0.00    +0.000 A 
ATOM     22  C   UNL     1       1.461  11.158  19.063  0.00  0.00    +0.000 A 
ENDBRANCH  10  13
ENDBRANCH   1   9
BRANCH   1  23
ATOM     23  C   UNL     1       4.164   6.182  18.799  0.00  0.00    +0.000 C 
BRANCH  23  24
ATOM     24  C   UNL     1       5.186   5.499  17.908  0.00  0.00    +0.000 A 
ATOM     25  C   UNL     1       6.473   5.201  18.375  0.00  0.00    +0.000 A 
ATOM     26  C   UNL     1       7.442   4.675  17.511  0.00  0.00    +0.000 A 
ATOM     27  C   UNL     1       7.129   4.414  16.177  0.00  0.00    +0.000 A 
ATOM     28  C   UNL     1       5.838   4.674  15.716  0.00  0.00    +0.000 A 
ATOM     29 CL   UNL     1       5.433   4.307  14.084  0.00  0.00    +0.000 Cl
ATOM     30  C   UNL     1       4.877   5.221  16.567  0.00  0.00    +0.000 A 
ENDBRANCH  23  24
ENDBRANCH   1  23
TORSDOF 7
ENDMDL
MODEL 8
REMARK VINA RESULT:      -7.7      1.630      2.165
REMARK  Name = 
REMARK  7 active torsions:
REMARK  status: ('A' for Active; 'I' for Inactive)
REMARK    1  A    between atoms: C_2  and  C_3
REMARK    2  A    between atoms: C_3  and  N_4
REMARK    3  A    between atoms: C_5  and  C_7
REMARK    4  A    between atoms: C_7  and  C_8
REMARK    5  A    between atoms: C_7  and  N_16
REMARK    6  A    between atoms: C_8  and  C_9
REMARK    7  A    between atoms: C_17  and  C_19
REMARK                            x       y       z     vdW  Elec       q    Type
REMARK                         _______ _______ _______ _____ _____    ______ ____
ROOT
ATOM      1  C   UNL     1       2.878   6.446  18.294  0.00  0.00    +0.000 C 
ENDROOT
BRANCH   1   3
ATOM      2  N   UNL     1       1.725   4.841  19.820  0.00  0.00    +0.000 N 
ATOM      3  C   UNL     1       1.963   5.196  18.512  0.00  0.00    +0.000 C 
ATOM      4  O   UNL     1       1.410   4.603  17.585  0.00  0.00    +0.000 OA
ATOM      5  H   UNL     1       2.388   5.176  20.521  0.00  0.00    +0.000 HD
BRANCH   2   6
ATOM      6  C   UNL     1       0.863   3.720  20.154  0.00  0.00    +0.000 C 
BRANCH   6   8
ATOM      7  N   UNL     1       1.738   2.342  22.228  0.00  0.00    +0.000 NA
ATOM      8  C   UNL     1       1.346   2.941  21.318  0.00  0.00    +0.000 C 
ENDBRANCH   6   8
ENDBRANCH   2   6
ENDBRANCH   1   3
BRANCH   1   9
ATOM      9  N   UNL     1       2.322   7.668  18.903  0.00  0.00    +0.000 N 
ATOM     10  C   UNL     1       2.038   8.827  18.216  0.00  0.00    +0.000 C 
ATOM     11  O   UNL     1       2.168   8.894  17.002  0.00  0.00    +0.000 OA
ATOM     12  H   UNL     1       2.253   7.669  19.910  0.00  0.00    +0.000 HD
BRANCH  10  13
ATOM     13  C   UNL     1       1.492   9.969  19.027  0.00  0.00    +0.000 A 
ATOM     14  C   UNL     1       1.605  11.274  18.514  0.00  0.00    +0.000 A 
ATOM     15  C   UNL     1       1.101  12.360  19.223  0.00  0.00    +0.000 A 
ATOM     16  C   UNL     1       0.452  12.154  20.435  0.00  0.00    +0.000 A 
ATOM     17  C   UNL     1       0.315  10.867  20.973  0.00  0.00    +0.000 A 
ATOM     18  C   UNL     1      -0.355  10.696  22.196  0.00  0.00    +0.000 A 
ATOM     19  C   UNL     1      -0.493   9.433  22.773  0.00  0.00    +0.000 A 
ATOM     20  C   UNL     1       0.053   8.330  22.141  0.00  0.00    +0.000 A 
ATOM     21  C   UNL     1       0.719   8.485  20.922  0.00  0.00    +0.000 A 
ATOM     22  C   UNL     1       0.852   9.745  20.285  0.00  0.00    +0.000 A 
ENDBRANCH  10  13
ENDBRANCH   1   9
BRANCH   1  23
ATOM     23  C   UNL     1       4.262   6.136  18.921  0.00  0.00    +0.000 C 
BRANCH  23  24
ATOM     24  C   UNL     1       5.284   5.470  18.017  0.00  0.00    +0.000 A 
ATOM     25  C   UNL     1       6.575   5.175  18.474  0.00  0.00    +0.000 A 
ATOM     26  C   UNL     1       7.542   4.665  17.599  0.00  0.00    +0.000 A 
ATOM     27  C   UNL     1       7.224   4.418  16.263  0.00  0.00    +0.000 A 
ATOM     28  C   UNL     1       5.929   4.676  15.812  0.00  0.00    +0.000 A 
ATOM     29 CL   UNL     1       5.519   4.327  14.178  0.00  0.00    +0.000 Cl
ATOM     30  C   UNL     1       4.969   5.207  16.674  0.00  0.00    +0.000 A 
ENDBRANCH  23  24
ENDBRANCH   1  23
TORSDOF 7
ENDMDL
MODEL 9
REMARK VINA RESULT:      -7.7      2.634      4.192
REMARK  Name = 
REMARK  7 active torsions:
REMARK  status: ('A' for Active; 'I' for Inactive)
REMARK    1  A    between atoms: C_2  and  C_3
REMARK    2  A    between atoms: C_3  and  N_4
REMARK    3  A    between atoms: C_5  and  C_7
REMARK    4  A    between atoms: C_7  and  C_8
REMARK    5  A    between atoms: C_7  and  N_16
REMARK    6  A    between atoms: C_8  and  C_9
REMARK    7  A    between atoms: C_17  and  C_19
REMARK                            x       y       z     vdW  Elec       q    Type
REMARK                         _______ _______ _______ _____ _____    ______ ____
ROOT
ATOM      1  C   UNL     1       2.782   7.058  18.495  0.00  0.00    +0.000 C 
ENDROOT
BRANCH   1   3
ATOM      2  N   UNL     1       5.103   6.471  17.786  0.00  0.00    +0.000 N 
ATOM      3  C   UNL     1       3.968   7.189  17.485  0.00  0.00    +0.000 C 
ATOM      4  O   UNL     1       3.882   7.824  16.432  0.00  0.00    +0.000 OA
ATOM      5  H   UNL     1       5.227   6.185  18.759  0.00  0.00    +0.000 HD
BRANCH   2   6
ATOM      6  C   UNL     1       6.260   6.482  16.908  0.00  0.00    +0.000 C 
BRANCH   6   8
ATOM      7  N   UNL     1       7.869   4.421  17.267  0.00  0.00    +0.000 NA
ATOM      8  C   UNL     1       7.155   5.320  17.110  0.00  0.00    +0.000 C 
ENDBRANCH   6   8
ENDBRANCH   2   6
ENDBRANCH   1   3
BRANCH   1   9
ATOM      9  N   UNL     1       2.090   8.340  18.726  0.00  0.00    +0.000 N 
ATOM     10  C   UNL     1       1.358   8.645  19.852  0.00  0.00    +0.000 C 
ATOM     11  O   UNL     1       1.291   7.869  20.796  0.00  0.00    +0.000 OA
ATOM     12  H   UNL     1       2.077   8.983  17.948  0.00  0.00    +0.000 HD
BRANCH  10  13
ATOM     13  C   UNL     1       0.715  10.003  19.885  0.00  0.00    +0.000 A 
ATOM     14  C   UNL     1       1.145  10.928  20.855  0.00  0.00    +0.000 A 
ATOM     15  C   UNL     1       0.589  12.202  20.913  0.00  0.00    +0.000 A 
ATOM     16  C   UNL     1      -0.379  12.579  19.987  0.00  0.00    +0.000 A 
ATOM     17  C   UNL     1      -0.825  11.685  19.004  0.00  0.00    +0.000 A 
ATOM     18  C   UNL     1      -1.798  12.103  18.080  0.00  0.00    +0.000 A 
ATOM     19  C   UNL     1      -2.281  11.235  17.100  0.00  0.00    +0.000 A 
ATOM     20  C   UNL     1      -1.810   9.936  17.045  0.00  0.00    +0.000 A 
ATOM     21  C   UNL     1      -0.840   9.508  17.955  0.00  0.00    +0.000 A 
ATOM     22  C   UNL     1      -0.298  10.366  18.945  0.00  0.00    +0.000 A 
ENDBRANCH  10  13
ENDBRANCH   1   9
BRANCH   1  23
ATOM     23  C   UNL     1       1.780   6.024  17.921  0.00  0.00    +0.000 C 
BRANCH  23  24
ATOM     24  C   UNL     1       1.939   4.590  18.393  0.00  0.00    +0.000 A 
ATOM     25  C   UNL     1       2.293   3.567  17.503  0.00  0.00    +0.000 A 
ATOM     26  C   UNL     1       2.325   2.232  17.927  0.00  0.00    +0.000 A 
ATOM     27  C   UNL     1       2.031   1.906  19.250  0.00  0.00    +0.000 A 
ATOM     28  C   UNL     1       1.714   2.924  20.150  0.00  0.00    +0.000 A 
ATOM     29 CL   UNL     1       1.398   2.531  21.795  0.00  0.00    +0.000 Cl
ATOM     30  C   UNL     1       1.656   4.253  19.726  0.00  0.00    +0.000 A 
ENDBRANCH  23  24
ENDBRANCH   1  23
TORSDOF 7
ENDMDL
