MODEL 1
REMARK VINA RESULT:      -7.7      0.000      0.000
REMARK  Name = 
REMARK  2 active torsions:
REMARK  status: ('A' for Active; 'I' for Inactive)
REMARK    1  A    between atoms: C_1  and  C_2
REMARK    2  A    between atoms: C_10  and  C_11
REMARK                            x       y       z     vdW  Elec       q    Type
REMARK                         _______ _______ _______ _____ _____    ______ ____
ROOT
ATOM      1  C   UNL     1       7.346   7.445  17.505  0.00  0.00    +0.000 C 
ATOM      2  C   UNL     1       6.678   6.257  16.871  0.00  0.00    +0.000 A 
ATOM      3  N   UNL     1       7.456   5.505  16.072  0.00  0.00    +0.000 NA
ATOM      4  C   UNL     1       6.884   4.410  15.561  0.00  0.00    +0.000 A 
ATOM      5  N   UNL     1       5.638   3.995  15.793  0.00  0.00    +0.000 NA
ATOM      6  C   UNL     1       4.879   4.740  16.592  0.00  0.00    +0.000 A 
ATOM      7  N   UNL     1       3.642   4.314  16.843  0.00  0.00    +0.000 NA
ATOM      8  C   UNL     1       2.821   5.006  17.664  0.00  0.00    +0.000 A 
ATOM      9  N   UNL     1       1.581   4.404  17.822  0.00  0.00    +0.000 N 
ATOM     10  C   UNL     1       3.166   6.231  18.264  0.00  0.00    +0.000 A 
ATOM     11  C   UNL     1       4.458   6.682  17.946  0.00  0.00    +0.000 A 
ATOM     12  C   UNL     1       5.348   5.927  17.142  0.00  0.00    +0.000 A 
ATOM     13  H   UNL     1       1.594   3.530  17.306  0.00  0.00    +0.000 HD
ATOM     14  H   UNL     1       1.272   4.306  18.778  0.00  0.00    +0.000 HD
ENDROOT
BRANCH  10  15
ATOM     15  C   UNL     1       2.308   7.038  19.197  0.00  0.00    +0.000 A 
ATOM     16  C   UNL     1       1.955   6.554  20.491  0.00  0.00    +0.000 A 
ATOM     17 CL   UNL     1       2.329   4.947  21.049  0.00  0.00    +0.000 Cl
ATOM     18  C   UNL     1       1.246   7.336  21.420  0.00  0.00    +0.000 A 
ATOM     19  C   UNL     1       0.782   8.593  21.071  0.00  0.00    +0.000 A 
ATOM     20  C   UNL     1       1.060   9.082  19.803  0.00  0.00    +0.000 A 
ATOM     21  C   UNL     1       1.846   8.345  18.898  0.00  0.00    +0.000 A 
ATOM     22 CL   UNL     1       2.287   9.219  17.466  0.00  0.00    +0.000 Cl
ENDBRANCH  10  15
TORSDOF 1
ENDMDL
MODEL 2
REMARK VINA RESULT:      -7.7      0.066      2.064
REMARK  Name = 
REMARK  2 active torsions:
REMARK  status: ('A' for Active; 'I' for Inactive)
REMARK    1  A    between atoms: C_1  and  C_2
REMARK    2  A    between atoms: C_10  and  C_11
REMARK                            x       y       z     vdW  Elec       q    Type
REMARK                         _______ _______ _______ _____ _____    ______ ____
ROOT
ATOM      1  C   UNL     1       7.385   7.430  17.438  0.00  0.00    +0.000 C 
ATOM      2  C   UNL     1       6.691   6.254  16.809  0.00  0.00    +0.000 A 
ATOM      3  N   UNL     1       7.443   5.503  15.984  0.00  0.00    +0.000 NA
ATOM      4  C   UNL     1       6.848   4.417  15.478  0.00  0.00    +0.000 A 
ATOM      5  N   UNL     1       5.604   4.012  15.736  0.00  0.00    +0.000 NA
ATOM      6  C   UNL     1       4.872   4.756  16.560  0.00  0.00    +0.000 A 
ATOM      7  N   UNL     1       3.637   4.339  16.837  0.00  0.00    +0.000 NA
ATOM      8  C   UNL     1       2.843   5.031  17.685  0.00  0.00    +0.000 A 
ATOM      9  N   UNL     1       1.602   4.438  17.868  0.00  0.00    +0.000 N 
ATOM     10  C   UNL     1       3.214   6.246  18.287  0.00  0.00    +0.000 A 
ATOM     11  C   UNL     1       4.502   6.689  17.942  0.00  0.00    +0.000 A 
ATOM     12  C   UNL     1       5.364   5.933  17.110  0.00  0.00    +0.000 A 
ATOM     13  H   UNL     1       1.594   3.569  17.343  0.00  0.00    +0.000 HD
ATOM     14  H   UNL     1       1.315   4.334  18.830  0.00  0.00    +0.000 HD
ENDROOT
BRANCH  10  15
ATOM     15  C   UNL     1       2.387   7.052  19.249  0.00  0.00    +0.000 A 
ATOM     16  C   UNL     1       1.896   8.347  18.907  0.00  0.00    +0.000 A 
ATOM     17 CL   UNL     1       2.331   9.181  17.442  0.00  0.00    +0.000 Cl
ATOM     18  C   UNL     1       1.033   9.072  19.748  0.00  0.00    +0.000 A 
ATOM     19  C   UNL     1       0.694   8.581  20.998  0.00  0.00    +0.000 A 
ATOM     20  C   UNL     1       1.192   7.347  21.391  0.00  0.00    +0.000 A 
ATOM     21  C   UNL     1       1.983   6.573  20.521  0.00  0.00    +0.000 A 
ATOM     22 CL   UNL     1       2.303   4.967  21.092  0.00  0.00    +0.000 Cl
ENDBRANCH  10  15
TORSDOF 1
ENDMDL
MODEL 3
REMARK VINA RESULT:      -7.6      2.901      4.453
REMARK  Name = 
REMARK  2 active torsions:
REMARK  status: ('A' for Active; 'I' for Inactive)
REMARK    1  A    between atoms: C_1  and  C_2
REMARK    2  A    between atoms: C_10  and  C_11
REMARK                            x       y       z     vdW  Elec       q    Type
REMARK                         _______ _______ _______ _____ _____    ______ ____
ROOT
ATOM      1  C   UNL     1       4.720   3.361  12.870  0.00  0.00    +0.000 C 
ATOM      2  C   UNL     1       5.820   4.035  13.642  0.00  0.00    +0.000 A 
ATOM      3  N   UNL     1       6.870   4.459  12.917  0.00  0.00    +0.000 NA
ATOM      4  C   UNL     1       7.818   5.120  13.592  0.00  0.00    +0.000 A 
ATOM      5  N   UNL     1       7.797   5.409  14.893  0.00  0.00    +0.000 NA
ATOM      6  C   UNL     1       6.750   4.994  15.600  0.00  0.00    +0.000 A 
ATOM      7  N   UNL     1       6.717   5.304  16.895  0.00  0.00    +0.000 NA
ATOM      8  C   UNL     1       5.673   4.936  17.673  0.00  0.00    +0.000 A 
ATOM      9  N   UNL     1       5.802   5.361  18.987  0.00  0.00    +0.000 N 
ATOM     10  C   UNL     1       4.589   4.168  17.212  0.00  0.00    +0.000 A 
ATOM     11  C   UNL     1       4.669   3.815  15.855  0.00  0.00    +0.000 A 
ATOM     12  C   UNL     1       5.726   4.255  15.020  0.00  0.00    +0.000 A 
ATOM     13  H   UNL     1       6.655   5.908  19.053  0.00  0.00    +0.000 HD
ATOM     14  H   UNL     1       4.992   5.826  19.368  0.00  0.00    +0.000 HD
ENDROOT
BRANCH  10  15
ATOM     15  C   UNL     1       3.393   3.744  18.018  0.00  0.00    +0.000 A 
ATOM     16  C   UNL     1       2.366   4.667  18.372  0.00  0.00    +0.000 A 
ATOM     17 CL   UNL     1       2.466   6.378  18.061  0.00  0.00    +0.000 Cl
ATOM     18  C   UNL     1       1.189   4.270  19.030  0.00  0.00    +0.000 A 
ATOM     19  C   UNL     1       1.024   2.958  19.443  0.00  0.00    +0.000 A 
ATOM     20  C   UNL     1       2.023   2.037  19.164  0.00  0.00    +0.000 A 
ATOM     21  C   UNL     1       3.164   2.405  18.426  0.00  0.00    +0.000 A 
ATOM     22 CL   UNL     1       4.174   1.071  17.970  0.00  0.00    +0.000 Cl
ENDBRANCH  10  15
TORSDOF 1
ENDMDL
MODEL 4
REMARK VINA RESULT:      -7.5      2.876      4.082
REMARK  Name = 
REMARK  2 active torsions:
REMARK  status: ('A' for Active; 'I' for Inactive)
REMARK    1  A    between atoms: C_1  and  C_2
REMARK    2  A    between atoms: C_10  and  C_11
REMARK                            x       y       z     vdW  Elec       q    Type
REMARK                         _______ _______ _______ _____ _____    ______ ____
ROOT
ATOM      1  C   UNL     1       4.740   3.356  12.818  0.00  0.00    +0.000 C 
ATOM      2  C   UNL     1       5.831   4.026  13.606  0.00  0.00    +0.000 A 
ATOM      3  N   UNL     1       6.897   4.439  12.897  0.00  0.00    +0.000 NA
ATOM      4  C   UNL     1       7.837   5.096  13.584  0.00  0.00    +0.000 A 
ATOM      5  N   UNL     1       7.795   5.393  14.884  0.00  0.00    +0.000 NA
ATOM      6  C   UNL     1       6.733   4.990  15.574  0.00  0.00    +0.000 A 
ATOM      7  N   UNL     1       6.679   5.307  16.867  0.00  0.00    +0.000 NA
ATOM      8  C   UNL     1       5.620   4.951  17.628  0.00  0.00    +0.000 A 
ATOM      9  N   UNL     1       5.728   5.382  18.942  0.00  0.00    +0.000 N 
ATOM     10  C   UNL     1       4.538   4.188  17.153  0.00  0.00    +0.000 A 
ATOM     11  C   UNL     1       4.640   3.826  15.799  0.00  0.00    +0.000 A 
ATOM     12  C   UNL     1       5.714   4.255  14.980  0.00  0.00    +0.000 A 
ATOM     13  H   UNL     1       6.584   5.923  19.020  0.00  0.00    +0.000 HD
ATOM     14  H   UNL     1       4.915   5.855  19.306  0.00  0.00    +0.000 HD
ENDROOT
BRANCH  10  15
ATOM     15  C   UNL     1       3.325   3.777  17.939  0.00  0.00    +0.000 A 
ATOM     16  C   UNL     1       3.144   2.433  18.382  0.00  0.00    +0.000 A 
ATOM     17 CL   UNL     1       4.199   1.124  17.928  0.00  0.00    +0.000 Cl
ATOM     18  C   UNL     1       2.074   2.050  19.209  0.00  0.00    +0.000 A 
ATOM     19  C   UNL     1       1.092   2.964  19.556  0.00  0.00    +0.000 A 
ATOM     20  C   UNL     1       1.202   4.271  19.104  0.00  0.00    +0.000 A 
ATOM     21  C   UNL     1       2.318   4.686  18.351  0.00  0.00    +0.000 A 
ATOM     22 CL   UNL     1       2.398   6.398  18.088  0.00  0.00    +0.000 Cl
ENDBRANCH  10  15
TORSDOF 1
ENDMDL
MODEL 5
REMARK VINA RESULT:      -7.2      2.462      5.609
REMARK  Name = 
REMARK  2 active torsions:
REMARK  status: ('A' for Active; 'I' for Inactive)
REMARK    1  A    between atoms: C_1  and  C_2
REMARK    2  A    between atoms: C_10  and  C_11
REMARK                            x       y       z     vdW  Elec       q    Type
REMARK                         _______ _______ _______ _____ _____    ______ ____
ROOT
ATOM      1  C   UNL     1       1.623   5.580  20.790  0.00  0.00    +0.000 C 
ATOM      2  C   UNL     1       1.826   4.351  19.947  0.00  0.00    +0.000 A 
ATOM      3  N   UNL     1       0.845   3.432  20.006  0.00  0.00    +0.000 NA
ATOM      4  C   UNL     1       0.991   2.371  19.205  0.00  0.00    +0.000 A 
ATOM      5  N   UNL     1       1.995   2.164  18.352  0.00  0.00    +0.000 NA
ATOM      6  C   UNL     1       2.954   3.082  18.294  0.00  0.00    +0.000 A 
ATOM      7  N   UNL     1       3.945   2.887  17.425  0.00  0.00    +0.000 NA
ATOM      8  C   UNL     1       4.943   3.790  17.294  0.00  0.00    +0.000 A 
ATOM      9  N   UNL     1       5.874   3.430  16.330  0.00  0.00    +0.000 N 
ATOM     10  C   UNL     1       5.054   4.952  18.078  0.00  0.00    +0.000 A 
ATOM     11  C   UNL     1       4.023   5.111  19.019  0.00  0.00    +0.000 A 
ATOM     12  C   UNL     1       2.938   4.204  19.114  0.00  0.00    +0.000 A 
ATOM     13  H   UNL     1       5.555   2.568  15.899  0.00  0.00    +0.000 HD
ATOM     14  H   UNL     1       6.104   4.154  15.666  0.00  0.00    +0.000 HD
ENDROOT
BRANCH  10  15
ATOM     15  C   UNL     1       6.125   6.000  17.970  0.00  0.00    +0.000 A 
ATOM     16  C   UNL     1       6.032   7.067  17.027  0.00  0.00    +0.000 A 
ATOM     17 CL   UNL     1       4.782   7.172  15.819  0.00  0.00    +0.000 Cl
ATOM     18  C   UNL     1       6.967   8.116  16.982  0.00  0.00    +0.000 A 
ATOM     19  C   UNL     1       8.078   8.103  17.809  0.00  0.00    +0.000 A 
ATOM     20  C   UNL     1       8.235   7.056  18.705  0.00  0.00    +0.000 A 
ATOM     21  C   UNL     1       7.258   6.049  18.821  0.00  0.00    +0.000 A 
ATOM     22 CL   UNL     1       7.507   4.969  20.156  0.00  0.00    +0.000 Cl
ENDBRANCH  10  15
TORSDOF 1
ENDMDL
MODEL 6
REMARK VINA RESULT:      -6.9      2.516      5.870
REMARK  Name = 
REMARK  2 active torsions:
REMARK  status: ('A' for Active; 'I' for Inactive)
REMARK    1  A    between atoms: C_1  and  C_2
REMARK    2  A    between atoms: C_10  and  C_11
REMARK                            x       y       z     vdW  Elec       q    Type
REMARK                         _______ _______ _______ _____ _____    ______ ____
ROOT
ATOM      1  C   UNL     1       1.868   9.637  17.634  0.00  0.00    +0.000 C 
ATOM      2  C   UNL     1       1.766   8.795  18.875  0.00  0.00    +0.000 A 
ATOM      3  N   UNL     1       0.919   9.242  19.818  0.00  0.00    +0.000 NA
ATOM      4  C   UNL     1       0.775   8.460  20.893  0.00  0.00    +0.000 A 
ATOM      5  N   UNL     1       1.371   7.283  21.092  0.00  0.00    +0.000 NA
ATOM      6  C   UNL     1       2.199   6.844  20.150  0.00  0.00    +0.000 A 
ATOM      7  N   UNL     1       2.776   5.659  20.337  0.00  0.00    +0.000 NA
ATOM      8  C   UNL     1       3.612   5.137  19.411  0.00  0.00    +0.000 A 
ATOM      9  N   UNL     1       4.103   3.889  19.767  0.00  0.00    +0.000 N 
ATOM     10  C   UNL     1       3.983   5.804  18.229  0.00  0.00    +0.000 A 
ATOM     11  C   UNL     1       3.397   7.072  18.077  0.00  0.00    +0.000 A 
ATOM     12  C   UNL     1       2.467   7.594  19.010  0.00  0.00    +0.000 A 
ATOM     13  H   UNL     1       3.670   3.627  20.647  0.00  0.00    +0.000 HD
ATOM     14  H   UNL     1       4.031   3.181  19.052  0.00  0.00    +0.000 HD
ENDROOT
BRANCH  10  15
ATOM     15  C   UNL     1       4.890   5.273  17.155  0.00  0.00    +0.000 A 
ATOM     16  C   UNL     1       4.507   4.174  16.331  0.00  0.00    +0.000 A 
ATOM     17 CL   UNL     1       3.055   3.245  16.585  0.00  0.00    +0.000 Cl
ATOM     18  C   UNL     1       5.291   3.732  15.252  0.00  0.00    +0.000 A 
ATOM     19  C   UNL     1       6.528   4.303  15.002  0.00  0.00    +0.000 A 
ATOM     20  C   UNL     1       6.963   5.342  15.812  0.00  0.00    +0.000 A 
ATOM     21  C   UNL     1       6.145   5.853  16.838  0.00  0.00    +0.000 A 
ATOM     22 CL   UNL     1       6.753   7.299  17.576  0.00  0.00    +0.000 Cl
ENDBRANCH  10  15
TORSDOF 1
ENDMDL
MODEL 7
REMARK VINA RESULT:      -6.9      2.521      6.027
REMARK  Name = 
REMARK  2 active torsions:
REMARK  status: ('A' for Active; 'I' for Inactive)
REMARK    1  A    between atoms: C_1  and  C_2
REMARK    2  A    between atoms: C_10  and  C_11
REMARK                            x       y       z     vdW  Elec       q    Type
REMARK                         _______ _______ _______ _____ _____    ______ ____
ROOT
ATOM      1  C   UNL     1       1.772   9.726  17.628  0.00  0.00    +0.000 C 
ATOM      2  C   UNL     1       1.696   8.895  18.879  0.00  0.00    +0.000 A 
ATOM      3  N   UNL     1       0.867   9.349  19.835  0.00  0.00    +0.000 NA
ATOM      4  C   UNL     1       0.746   8.576  20.920  0.00  0.00    +0.000 A 
ATOM      5  N   UNL     1       1.348   7.402  21.118  0.00  0.00    +0.000 NA
ATOM      6  C   UNL     1       2.159   6.956  20.162  0.00  0.00    +0.000 A 
ATOM      7  N   UNL     1       2.741   5.773  20.349  0.00  0.00    +0.000 NA
ATOM      8  C   UNL     1       3.560   5.245  19.411  0.00  0.00    +0.000 A 
ATOM      9  N   UNL     1       4.060   4.001  19.768  0.00  0.00    +0.000 N 
ATOM     10  C   UNL     1       3.905   5.901  18.216  0.00  0.00    +0.000 A 
ATOM     11  C   UNL     1       3.315   7.167  18.064  0.00  0.00    +0.000 A 
ATOM     12  C   UNL     1       2.403   7.696  19.011  0.00  0.00    +0.000 A 
ATOM     13  H   UNL     1       3.645   3.746  20.659  0.00  0.00    +0.000 HD
ATOM     14  H   UNL     1       3.974   3.286  19.061  0.00  0.00    +0.000 HD
ENDROOT
BRANCH  10  15
ATOM     15  C   UNL     1       4.791   5.363  17.128  0.00  0.00    +0.000 A 
ATOM     16  C   UNL     1       6.064   5.942  16.847  0.00  0.00    +0.000 A 
ATOM     17 CL   UNL     1       6.640   7.401  17.603  0.00  0.00    +0.000 Cl
ATOM     18  C   UNL     1       6.953   5.389  15.910  0.00  0.00    +0.000 A 
ATOM     19  C   UNL     1       6.580   4.292  15.150  0.00  0.00    +0.000 A 
ATOM     20  C   UNL     1       5.329   3.729  15.354  0.00  0.00    +0.000 A 
ATOM     21  C   UNL     1       4.468   4.219  16.354  0.00  0.00    +0.000 A 
ATOM     22 CL   UNL     1       3.062   3.239  16.623  0.00  0.00    +0.000 Cl
ENDBRANCH  10  15
TORSDOF 1
ENDMDL
MODEL 8
REMARK VINA RESULT:      -6.9      2.491      5.293
REMARK  Name = 
REMARK  2 active torsions:
REMARK  status: ('A' for Active; 'I' for Inactive)
REMARK    1  A    between atoms: C_1  and  C_2
REMARK    2  A    between atoms: C_10  and  C_11
REMARK                            x       y       z     vdW  Elec       q    Type
REMARK                         _______ _______ _______ _____ _____    ______ ____
ROOT
ATOM      1  C   UNL     1       1.526   5.436  20.777  0.00  0.00    +0.000 C 
ATOM      2  C   UNL     1       1.778   4.223  19.926  0.00  0.00    +0.000 A 
ATOM      3  N   UNL     1       0.832   3.269  19.970  0.00  0.00    +0.000 NA
ATOM      4  C   UNL     1       1.021   2.220  19.162  0.00  0.00    +0.000 A 
ATOM      5  N   UNL     1       2.036   2.057  18.313  0.00  0.00    +0.000 NA
ATOM      6  C   UNL     1       2.962   3.011  18.269  0.00  0.00    +0.000 A 
ATOM      7  N   UNL     1       3.964   2.859  17.404  0.00  0.00    +0.000 NA
ATOM      8  C   UNL     1       4.930   3.799  17.287  0.00  0.00    +0.000 A 
ATOM      9  N   UNL     1       5.879   3.481  16.326  0.00  0.00    +0.000 N 
ATOM     10  C   UNL     1       4.994   4.957  18.082  0.00  0.00    +0.000 A 
ATOM     11  C   UNL     1       3.952   5.070  19.018  0.00  0.00    +0.000 A 
ATOM     12  C   UNL     1       2.900   4.124  19.098  0.00  0.00    +0.000 A 
ATOM     13  H   UNL     1       5.593   2.612  15.886  0.00  0.00    +0.000 HD
ATOM     14  H   UNL     1       6.086   4.219  15.670  0.00  0.00    +0.000 HD
ENDROOT
BRANCH  10  15
ATOM     15  C   UNL     1       6.027   6.044  17.989  0.00  0.00    +0.000 A 
ATOM     16  C   UNL     1       7.179   6.054  18.830  0.00  0.00    +0.000 A 
ATOM     17 CL   UNL     1       7.421   4.927  20.136  0.00  0.00    +0.000 Cl
ATOM     18  C   UNL     1       8.209   6.999  18.687  0.00  0.00    +0.000 A 
ATOM     19  C   UNL     1       8.097   8.026  17.764  0.00  0.00    +0.000 A 
ATOM     20  C   UNL     1       6.968   8.085  16.960  0.00  0.00    +0.000 A 
ATOM     21  C   UNL     1       5.973   7.091  17.033  0.00  0.00    +0.000 A 
ATOM     22 CL   UNL     1       4.769   7.200  15.790  0.00  0.00    +0.000 Cl
ENDBRANCH  10  15
TORSDOF 1
ENDMDL
MODEL 9
REMARK VINA RESULT:      -6.7      2.409      3.510
REMARK  Name = 
REMARK  2 active torsions:
REMARK  status: ('A' for Active; 'I' for Inactive)
REMARK    1  A    between atoms: C_1  and  C_2
REMARK    2  A    between atoms: C_10  and  C_11
REMARK                            x       y       z     vdW  Elec       q    Type
REMARK                         _______ _______ _______ _____ _____    ______ ____
ROOT
ATOM      1  C   UNL     1       7.515   6.667  17.833  0.00  0.00    +0.000 C 
ATOM      2  C   UNL     1       6.969   5.852  16.694  0.00  0.00    +0.000 A 
ATOM      3  N   UNL     1       7.645   5.939  15.534  0.00  0.00    +0.000 NA
ATOM      4  C   UNL     1       7.201   5.163  14.539  0.00  0.00    +0.000 A 
ATOM      5  N   UNL     1       6.180   4.308  14.607  0.00  0.00    +0.000 NA
ATOM      6  C   UNL     1       5.524   4.222  15.760  0.00  0.00    +0.000 A 
ATOM      7  N   UNL     1       4.519   3.351  15.836  0.00  0.00    +0.000 NA
ATOM      8  C   UNL     1       3.821   3.191  16.983  0.00  0.00    +0.000 A 
ATOM      9  N   UNL     1       2.826   2.230  16.881  0.00  0.00    +0.000 N 
ATOM     10  C   UNL     1       4.047   3.947  18.147  0.00  0.00    +0.000 A 
ATOM     11  C   UNL     1       5.081   4.892  18.027  0.00  0.00    +0.000 A 
ATOM     12  C   UNL     1       5.861   5.015  16.851  0.00  0.00    +0.000 A 
ATOM     13  H   UNL     1       2.885   1.822  15.953  0.00  0.00    +0.000 HD
ATOM     14  H   UNL     1       2.812   1.548  17.624  0.00  0.00    +0.000 HD
ENDROOT
BRANCH  10  15
ATOM     15  C   UNL     1       3.321   3.807  19.455  0.00  0.00    +0.000 A 
ATOM     16  C   UNL     1       2.303   4.726  19.846  0.00  0.00    +0.000 A 
ATOM     17 CL   UNL     1       1.920   6.169  18.950  0.00  0.00    +0.000 Cl
ATOM     18  C   UNL     1       1.539   4.552  21.013  0.00  0.00    +0.000 A 
ATOM     19  C   UNL     1       1.812   3.510  21.883  0.00  0.00    +0.000 A 
ATOM     20  C   UNL     1       2.829   2.621  21.566  0.00  0.00    +0.000 A 
ATOM     21  C   UNL     1       3.540   2.734  20.356  0.00  0.00    +0.000 A 
ATOM     22 CL   UNL     1       4.596   1.398  20.027  0.00  0.00    +0.000 Cl
ENDBRANCH  10  15
TORSDOF 1
ENDMDL
