MODEL 1
REMARK VINA RESULT:      -7.7      0.000      0.000
REMARK  Name = 
REMARK  10 active torsions:
REMARK  status: ('A' for Active; 'I' for Inactive)
REMARK    1  A    between atoms: C_1  and  N_2
REMARK    2  A    between atoms: C_6  and  C_7
REMARK    3  A    between atoms: C_7  and  N_8
REMARK    4  A    between atoms: C_13  and  C_14
REMARK    5  A    between atoms: C_14  and  N_15
REMARK    6  A    between atoms: C_16  and  O_18
REMARK    7  A    between atoms: O_18  and  C_19
REMARK    8  A    between atoms: C_19  and  C_20
REMARK    9  A    between atoms: C_19  and  C_21
REMARK   10  A    between atoms: C_19  and  C_22
REMARK                            x       y       z     vdW  Elec       q    Type
REMARK                         _______ _______ _______ _____ _____    ______ ____
ROOT
ATOM      1  N   UNL     1       2.729   4.599  19.268  0.00  0.00    +0.000 NA
ATOM      2  C   UNL     1       1.248   4.528  19.147  0.00  0.00    +0.000 C 
ATOM      3  C   UNL     1       0.688   3.149  19.559  0.00  0.00    +0.000 C 
ATOM      4  C   UNL     1       1.342   2.094  18.670  0.00  0.00    +0.000 C 
ATOM      5  C   UNL     1       2.859   2.180  18.848  0.00  0.00    +0.000 C 
ATOM      6  C   UNL     1       3.257   3.321  19.842  0.00  0.00    +0.000 C 
ATOM      7  C   UNL     1       2.573   3.015  21.202  0.00  0.00    +0.000 C 
ATOM      8  C   UNL     1       1.065   2.840  21.015  0.00  0.00    +0.000 C 
ENDROOT
BRANCH   1   9
ATOM      9  C   UNL     1       3.140   5.839  19.958  0.00  0.00    +0.000 C 
BRANCH   9  15
ATOM     10  C   UNL     1       1.258   8.065  21.120  0.00  0.00    +0.000 C 
ATOM     11  N   UNL     1       1.832   8.023  19.796  0.00  0.00    +0.000 N 
ATOM     12  N   UNL     1       1.482   9.000  18.934  0.00  0.00    +0.000 NA
ATOM     13  C   UNL     1       2.122   8.682  17.811  0.00  0.00    +0.000 A 
ATOM     14  C   UNL     1       2.866   7.497  17.943  0.00  0.00    +0.000 A 
ATOM     15  C   UNL     1       2.667   7.076  19.247  0.00  0.00    +0.000 A 
ENDBRANCH   9  15
ENDBRANCH   1   9
BRANCH   6  16
ATOM     16  C   UNL     1       4.793   3.262  20.033  0.00  0.00    +0.000 C 
BRANCH  16  17
ATOM     17  N   UNL     1       5.554   3.419  18.811  0.00  0.00    +0.000 N 
ATOM     18  C   UNL     1       6.439   4.445  18.696  0.00  0.00    +0.000 C 
ATOM     19  O   UNL     1       6.638   5.259  19.589  0.00  0.00    +0.000 OA
ATOM     20  H   UNL     1       5.417   2.795  18.027  0.00  0.00    +0.000 HD
BRANCH  18  21
ATOM     21  O   UNL     1       7.048   4.430  17.484  0.00  0.00    +0.000 OA
BRANCH  21  22
ATOM     22  C   UNL     1       6.592   5.372  16.473  0.00  0.00    +0.000 C 
ATOM     23  C   UNL     1       7.111   4.983  15.081  0.00  0.00    +0.000 C 
ATOM     24  C   UNL     1       5.057   5.283  16.444  0.00  0.00    +0.000 C 
ATOM     25  C   UNL     1       6.966   6.810  16.862  0.00  0.00    +0.000 C 
ENDBRANCH  21  22
ENDBRANCH  18  21
ENDBRANCH  16  17
ENDBRANCH   6  16
TORSDOF 6
ENDMDL
MODEL 2
REMARK VINA RESULT:      -7.7      0.998      1.188
REMARK  Name = 
REMARK  10 active torsions:
REMARK  status: ('A' for Active; 'I' for Inactive)
REMARK    1  A    between atoms: C_1  and  N_2
REMARK    2  A    between atoms: C_6  and  C_7
REMARK    3  A    between atoms: C_7  and  N_8
REMARK    4  A    between atoms: C_13  and  C_14
REMARK    5  A    between atoms: C_14  and  N_15
REMARK    6  A    between atoms: C_16  and  O_18
REMARK    7  A    between atoms: O_18  and  C_19
REMARK    8  A    between atoms: C_19  and  C_20
REMARK    9  A    between atoms: C_19  and  C_21
REMARK   10  A    between atoms: C_19  and  C_22
REMARK                            x       y       z     vdW  Elec       q    Type
REMARK                         _______ _______ _______ _____ _____    ______ ____
ROOT
ATOM      1  N   UNL     1       2.914   4.772  18.809  0.00  0.00    +0.000 NA
ATOM      2  C   UNL     1       1.513   4.297  18.649  0.00  0.00    +0.000 C 
ATOM      3  C   UNL     1       1.397   2.760  18.744  0.00  0.00    +0.000 C 
ATOM      4  C   UNL     1       2.287   2.156  17.660  0.00  0.00    +0.000 C 
ATOM      5  C   UNL     1       3.720   2.644  17.879  0.00  0.00    +0.000 C 
ATOM      6  C   UNL     1       3.817   3.613  19.103  0.00  0.00    +0.000 C 
ATOM      7  C   UNL     1       3.316   2.841  20.353  0.00  0.00    +0.000 C 
ATOM      8  C   UNL     1       1.916   2.275  20.106  0.00  0.00    +0.000 C 
ENDROOT
BRANCH   1   9
ATOM      9  C   UNL     1       2.980   5.903  19.757  0.00  0.00    +0.000 C 
BRANCH   9  15
ATOM     10  C   UNL     1       1.235   8.135  21.106  0.00  0.00    +0.000 C 
ATOM     11  N   UNL     1       1.770   8.148  19.765  0.00  0.00    +0.000 N 
ATOM     12  N   UNL     1       1.440   9.190  18.974  0.00  0.00    +0.000 NA
ATOM     13  C   UNL     1       2.034   8.913  17.814  0.00  0.00    +0.000 A 
ATOM     14  C   UNL     1       2.727   7.691  17.853  0.00  0.00    +0.000 A 
ATOM     15  C   UNL     1       2.545   7.200  19.135  0.00  0.00    +0.000 A 
ENDBRANCH   9  15
ENDBRANCH   1   9
BRANCH   6  16
ATOM     16  C   UNL     1       5.311   3.969  19.303  0.00  0.00    +0.000 C 
BRANCH  16  17
ATOM     17  N   UNL     1       6.098   3.953  18.087  0.00  0.00    +0.000 N 
ATOM     18  C   UNL     1       6.581   5.119  17.583  0.00  0.00    +0.000 C 
ATOM     19  O   UNL     1       6.389   6.206  18.112  0.00  0.00    +0.000 OA
ATOM     20  H   UNL     1       6.271   3.090  17.588  0.00  0.00    +0.000 HD
BRANCH  18  21
ATOM     21  O   UNL     1       7.285   4.904  16.443  0.00  0.00    +0.000 OA
BRANCH  21  22
ATOM     22  C   UNL     1       6.575   4.966  15.174  0.00  0.00    +0.000 C 
ATOM     23  C   UNL     1       7.539   5.266  14.016  0.00  0.00    +0.000 C 
ATOM     24  C   UNL     1       5.974   3.571  14.934  0.00  0.00    +0.000 C 
ATOM     25  C   UNL     1       5.413   5.966  15.250  0.00  0.00    +0.000 C 
ENDBRANCH  21  22
ENDBRANCH  18  21
ENDBRANCH  16  17
ENDBRANCH   6  16
TORSDOF 6
ENDMDL
MODEL 3
REMARK VINA RESULT:      -7.7      2.473      5.769
REMARK  Name = 
REMARK  10 active torsions:
REMARK  status: ('A' for Active; 'I' for Inactive)
REMARK    1  A    between atoms: C_1  and  N_2
REMARK    2  A    between atoms: C_6  and  C_7
REMARK    3  A    between atoms: C_7  and  N_8
REMARK    4  A    between atoms: C_13  and  C_14
REMARK    5  A    between atoms: C_14  and  N_15
REMARK    6  A    between atoms: C_16  and  O_18
REMARK    7  A    between atoms: O_18  and  C_19
REMARK    8  A    between atoms: C_19  and  C_20
REMARK    9  A    between atoms: C_19  and  C_21
REMARK   10  A    between atoms: C_19  and  C_22
REMARK                            x       y       z     vdW  Elec       q    Type
REMARK                         _______ _______ _______ _____ _____    ______ ____
ROOT
ATOM      1  N   UNL     1       3.591   4.008  19.191  0.00  0.00    +0.000 NA
ATOM      2  C   UNL     1       3.291   2.673  19.774  0.00  0.00    +0.000 C 
ATOM      3  C   UNL     1       1.788   2.485  20.076  0.00  0.00    +0.000 C 
ATOM      4  C   UNL     1       1.362   3.590  21.039  0.00  0.00    +0.000 C 
ATOM      5  C   UNL     1       1.658   4.943  20.389  0.00  0.00    +0.000 C 
ATOM      6  C   UNL     1       2.319   4.772  18.981  0.00  0.00    +0.000 C 
ATOM      7  C   UNL     1       1.337   3.955  18.099  0.00  0.00    +0.000 C 
ATOM      8  C   UNL     1       0.968   2.639  18.787  0.00  0.00    +0.000 C 
ENDROOT
BRANCH   1   9
ATOM      9  C   UNL     1       4.472   3.880  18.012  0.00  0.00    +0.000 C 
BRANCH   9  15
ATOM     10  C   UNL     1       6.665   4.312  15.810  0.00  0.00    +0.000 C 
ATOM     11  N   UNL     1       6.674   4.840  17.153  0.00  0.00    +0.000 N 
ATOM     12  N   UNL     1       7.760   5.540  17.540  0.00  0.00    +0.000 NA
ATOM     13  C   UNL     1       7.502   5.859  18.808  0.00  0.00    +0.000 A 
ATOM     14  C   UNL     1       6.265   5.351  19.240  0.00  0.00    +0.000 A 
ATOM     15  C   UNL     1       5.733   4.687  18.148  0.00  0.00    +0.000 A 
ENDBRANCH   9  15
ENDBRANCH   1   9
BRANCH   6  16
ATOM     16  C   UNL     1       2.485   6.184  18.366  0.00  0.00    +0.000 C 
BRANCH  16  17
ATOM     17  N   UNL     1       2.290   7.271  19.302  0.00  0.00    +0.000 N 
ATOM     18  C   UNL     1       1.855   8.478  18.852  0.00  0.00    +0.000 C 
ATOM     19  O   UNL     1       1.608   8.701  17.675  0.00  0.00    +0.000 OA
ATOM     20  H   UNL     1       2.501   7.158  20.286  0.00  0.00    +0.000 HD
BRANCH  18  21
ATOM     21  O   UNL     1       1.739   9.366  19.871  0.00  0.00    +0.000 OA
BRANCH  21  22
ATOM     22  C   UNL     1       0.411   9.638  20.400  0.00  0.00    +0.000 C 
ATOM     23  C   UNL     1      -0.076   8.485  21.290  0.00  0.00    +0.000 C 
ATOM     24  C   UNL     1       0.533  10.892  21.282  0.00  0.00    +0.000 C 
ATOM     25  C   UNL     1      -0.570   9.962  19.264  0.00  0.00    +0.000 C 
ENDBRANCH  21  22
ENDBRANCH  18  21
ENDBRANCH  16  17
ENDBRANCH   6  16
TORSDOF 6
ENDMDL
MODEL 4
REMARK VINA RESULT:      -7.6      2.526      5.607
REMARK  Name = 
REMARK  10 active torsions:
REMARK  status: ('A' for Active; 'I' for Inactive)
REMARK    1  A    between atoms: C_1  and  N_2
REMARK    2  A    between atoms: C_6  and  C_7
REMARK    3  A    between atoms: C_7  and  N_8
REMARK    4  A    between atoms: C_13  and  C_14
REMARK    5  A    between atoms: C_14  and  N_15
REMARK    6  A    between atoms: C_16  and  O_18
REMARK    7  A    between atoms: O_18  and  C_19
REMARK    8  A    between atoms: C_19  and  C_20
REMARK    9  A    between atoms: C_19  and  C_21
REMARK   10  A    between atoms: C_19  and  C_22
REMARK                            x       y       z     vdW  Elec       q    Type
REMARK                         _______ _______ _______ _____ _____    ______ ____
ROOT
ATOM      1  N   UNL     1       3.638   3.888  19.174  0.00  0.00    +0.000 NA
ATOM      2  C   UNL     1       3.269   2.558  19.730  0.00  0.00    +0.000 C 
ATOM      3  C   UNL     1       1.752   2.427  19.988  0.00  0.00    +0.000 C 
ATOM      4  C   UNL     1       1.343   3.536  20.955  0.00  0.00    +0.000 C 
ATOM      5  C   UNL     1       1.712   4.884  20.332  0.00  0.00    +0.000 C 
ATOM      6  C   UNL     1       2.404   4.705  18.940  0.00  0.00    +0.000 C 
ATOM      7  C   UNL     1       1.415   3.940  18.020  0.00  0.00    +0.000 C 
ATOM      8  C   UNL     1       0.974   2.631  18.679  0.00  0.00    +0.000 C 
ENDROOT
BRANCH   1   9
ATOM      9  C   UNL     1       4.546   3.739  18.019  0.00  0.00    +0.000 C 
BRANCH   9  15
ATOM     10  C   UNL     1       6.667   4.295  15.773  0.00  0.00    +0.000 C 
ATOM     11  N   UNL     1       6.678   4.814  17.120  0.00  0.00    +0.000 N 
ATOM     12  N   UNL     1       7.736   5.564  17.490  0.00  0.00    +0.000 NA
ATOM     13  C   UNL     1       7.491   5.861  18.765  0.00  0.00    +0.000 A 
ATOM     14  C   UNL     1       6.290   5.289  19.219  0.00  0.00    +0.000 A 
ATOM     15  C   UNL     1       5.768   4.607  18.133  0.00  0.00    +0.000 A 
ENDBRANCH   9  15
ENDBRANCH   1   9
BRANCH   6  16
ATOM     16  C   UNL     1       2.644   6.117  18.350  0.00  0.00    +0.000 C 
BRANCH  16  17
ATOM     17  N   UNL     1       2.144   7.201  19.169  0.00  0.00    +0.000 N 
ATOM     18  C   UNL     1       1.998   8.440  18.630  0.00  0.00    +0.000 C 
ATOM     19  O   UNL     1       2.267   8.697  17.464  0.00  0.00    +0.000 OA
ATOM     20  H   UNL     1       1.928   7.059  20.148  0.00  0.00    +0.000 HD
BRANCH  18  21
ATOM     21  O   UNL     1       1.525   9.319  19.549  0.00  0.00    +0.000 OA
BRANCH  21  22
ATOM     22  C   UNL     1       0.741  10.452  19.078  0.00  0.00    +0.000 C 
ATOM     23  C   UNL     1      -0.340  10.001  18.084  0.00  0.00    +0.000 C 
ATOM     24  C   UNL     1       0.030  11.041  20.308  0.00  0.00    +0.000 C 
ATOM     25  C   UNL     1       1.655  11.543  18.503  0.00  0.00    +0.000 C 
ENDBRANCH  21  22
ENDBRANCH  18  21
ENDBRANCH  16  17
ENDBRANCH   6  16
TORSDOF 6
ENDMDL
MODEL 5
REMARK VINA RESULT:      -7.6      1.074      1.623
REMARK  Name = 
REMARK  10 active torsions:
REMARK  status: ('A' for Active; 'I' for Inactive)
REMARK    1  A    between atoms: C_1  and  N_2
REMARK    2  A    between atoms: C_6  and  C_7
REMARK    3  A    between atoms: C_7  and  N_8
REMARK    4  A    between atoms: C_13  and  C_14
REMARK    5  A    between atoms: C_14  and  N_15
REMARK    6  A    between atoms: C_16  and  O_18
REMARK    7  A    between atoms: O_18  and  C_19
REMARK    8  A    between atoms: C_19  and  C_20
REMARK    9  A    between atoms: C_19  and  C_21
REMARK   10  A    between atoms: C_19  and  C_22
REMARK                            x       y       z     vdW  Elec       q    Type
REMARK                         _______ _______ _______ _____ _____    ______ ____
ROOT
ATOM      1  N   UNL     1       2.383   4.811  19.233  0.00  0.00    +0.000 NA
ATOM      2  C   UNL     1       1.004   4.474  19.677  0.00  0.00    +0.000 C 
ATOM      3  C   UNL     1       0.840   2.973  20.003  0.00  0.00    +0.000 C 
ATOM      4  C   UNL     1       1.201   2.179  18.749  0.00  0.00    +0.000 C 
ATOM      5  C   UNL     1       2.633   2.532  18.346  0.00  0.00    +0.000 C 
ATOM      6  C   UNL     1       3.256   3.597  19.308  0.00  0.00    +0.000 C 
ATOM      7  C   UNL     1       3.233   3.002  20.742  0.00  0.00    +0.000 C 
ATOM      8  C   UNL     1       1.816   2.565  21.117  0.00  0.00    +0.000 C 
ENDROOT
BRANCH   1   9
ATOM      9  C   UNL     1       2.880   6.013  19.934  0.00  0.00    +0.000 C 
BRANCH   9  15
ATOM     10  C   UNL     1       1.140   8.335  21.129  0.00  0.00    +0.000 C 
ATOM     11  N   UNL     1       1.710   8.276  19.804  0.00  0.00    +0.000 N 
ATOM     12  N   UNL     1       1.422   9.284  18.956  0.00  0.00    +0.000 NA
ATOM     13  C   UNL     1       2.042   8.944  17.828  0.00  0.00    +0.000 A 
ATOM     14  C   UNL     1       2.711   7.713  17.943  0.00  0.00    +0.000 A 
ATOM     15  C   UNL     1       2.486   7.287  19.240  0.00  0.00    +0.000 A 
ENDBRANCH   9  15
ENDBRANCH   1   9
BRANCH   6  16
ATOM     16  C   UNL     1       4.730   3.810  18.882  0.00  0.00    +0.000 C 
BRANCH  16  17
ATOM     17  N   UNL     1       5.003   3.494  17.495  0.00  0.00    +0.000 N 
ATOM     18  C   UNL     1       6.143   3.950  16.912  0.00  0.00    +0.000 C 
ATOM     19  O   UNL     1       6.973   4.625  17.507  0.00  0.00    +0.000 OA
ATOM     20  H   UNL     1       4.344   2.961  16.941  0.00  0.00    +0.000 HD
BRANCH  18  21
ATOM     21  O   UNL     1       6.219   3.558  15.615  0.00  0.00    +0.000 OA
BRANCH  21  22
ATOM     22  C   UNL     1       6.012   4.559  14.580  0.00  0.00    +0.000 C 
ATOM     23  C   UNL     1       5.280   5.789  15.139  0.00  0.00    +0.000 C 
ATOM     24  C   UNL     1       7.406   5.014  14.118  0.00  0.00    +0.000 C 
ATOM     25  C   UNL     1       5.297   3.947  13.367  0.00  0.00    +0.000 C 
ENDBRANCH  21  22
ENDBRANCH  18  21
ENDBRANCH  16  17
ENDBRANCH   6  16
TORSDOF 6
ENDMDL
MODEL 6
REMARK VINA RESULT:      -7.5      1.153      1.629
REMARK  Name = 
REMARK  10 active torsions:
REMARK  status: ('A' for Active; 'I' for Inactive)
REMARK    1  A    between atoms: C_1  and  N_2
REMARK    2  A    between atoms: C_6  and  C_7
REMARK    3  A    between atoms: C_7  and  N_8
REMARK    4  A    between atoms: C_13  and  C_14
REMARK    5  A    between atoms: C_14  and  N_15
REMARK    6  A    between atoms: C_16  and  O_18
REMARK    7  A    between atoms: O_18  and  C_19
REMARK    8  A    between atoms: C_19  and  C_20
REMARK    9  A    between atoms: C_19  and  C_21
REMARK   10  A    between atoms: C_19  and  C_22
REMARK                            x       y       z     vdW  Elec       q    Type
REMARK                         _______ _______ _______ _____ _____    ______ ____
ROOT
ATOM      1  N   UNL     1       2.696   5.019  18.861  0.00  0.00    +0.000 NA
ATOM      2  C   UNL     1       1.421   4.255  18.789  0.00  0.00    +0.000 C 
ATOM      3  C   UNL     1       1.647   2.728  18.818  0.00  0.00    +0.000 C 
ATOM      4  C   UNL     1       2.548   2.365  17.640  0.00  0.00    +0.000 C 
ATOM      5  C   UNL     1       3.856   3.147  17.769  0.00  0.00    +0.000 C 
ATOM      6  C   UNL     1       3.848   4.077  19.028  0.00  0.00    +0.000 C 
ATOM      7  C   UNL     1       3.635   3.176  20.274  0.00  0.00    +0.000 C 
ATOM      8  C   UNL     1       2.373   2.326  20.110  0.00  0.00    +0.000 C 
ENDROOT
BRANCH   1   9
ATOM      9  C   UNL     1       2.599   6.108  19.855  0.00  0.00    +0.000 C 
BRANCH   9  15
ATOM     10  C   UNL     1       1.024   8.488  21.158  0.00  0.00    +0.000 C 
ATOM     11  N   UNL     1       1.592   8.452  19.832  0.00  0.00    +0.000 N 
ATOM     12  N   UNL     1       1.378   9.517  19.033  0.00  0.00    +0.000 NA
ATOM     13  C   UNL     1       1.975   9.186  17.890  0.00  0.00    +0.000 A 
ATOM     14  C   UNL     1       2.555   7.908  17.946  0.00  0.00    +0.000 A 
ATOM     15  C   UNL     1       2.297   7.438  19.222  0.00  0.00    +0.000 A 
ENDBRANCH   9  15
ENDBRANCH   1   9
BRANCH   6  16
ATOM     16  C   UNL     1       5.243   4.743  19.128  0.00  0.00    +0.000 C 
BRANCH  16  17
ATOM     17  N   UNL     1       5.777   5.206  17.864  0.00  0.00    +0.000 N 
ATOM     18  C   UNL     1       7.072   4.945  17.543  0.00  0.00    +0.000 C 
ATOM     19  O   UNL     1       7.828   4.322  18.277  0.00  0.00    +0.000 OA
ATOM     20  H   UNL     1       5.210   5.749  17.225  0.00  0.00    +0.000 HD
BRANCH  18  21
ATOM     21  O   UNL     1       7.388   5.461  16.329  0.00  0.00    +0.000 OA
BRANCH  21  22
ATOM     22  C   UNL     1       6.590   5.056  15.181  0.00  0.00    +0.000 C 
ATOM     23  C   UNL     1       5.339   5.935  15.039  0.00  0.00    +0.000 C 
ATOM     24  C   UNL     1       7.463   5.279  13.934  0.00  0.00    +0.000 C 
ATOM     25  C   UNL     1       6.256   3.559  15.252  0.00  0.00    +0.000 C 
ENDBRANCH  21  22
ENDBRANCH  18  21
ENDBRANCH  16  17
ENDBRANCH   6  16
TORSDOF 6
ENDMDL
MODEL 7
REMARK VINA RESULT:      -7.4      2.618      5.758
REMARK  Name = 
REMARK  10 active torsions:
REMARK  status: ('A' for Active; 'I' for Inactive)
REMARK    1  A    between atoms: C_1  and  N_2
REMARK    2  A    between atoms: C_6  and  C_7
REMARK    3  A    between atoms: C_7  and  N_8
REMARK    4  A    between atoms: C_13  and  C_14
REMARK    5  A    between atoms: C_14  and  N_15
REMARK    6  A    between atoms: C_16  and  O_18
REMARK    7  A    between atoms: O_18  and  C_19
REMARK    8  A    between atoms: C_19  and  C_20
REMARK    9  A    between atoms: C_19  and  C_21
REMARK   10  A    between atoms: C_19  and  C_22
REMARK                            x       y       z     vdW  Elec       q    Type
REMARK                         _______ _______ _______ _____ _____    ______ ____
ROOT
ATOM      1  N   UNL     1       3.866   4.163  18.805  0.00  0.00    +0.000 NA
ATOM      2  C   UNL     1       3.762   2.845  19.487  0.00  0.00    +0.000 C 
ATOM      3  C   UNL     1       2.369   2.614  20.114  0.00  0.00    +0.000 C 
ATOM      4  C   UNL     1       2.110   3.745  21.107  0.00  0.00    +0.000 C 
ATOM      5  C   UNL     1       2.196   5.077  20.360  0.00  0.00    +0.000 C 
ATOM      6  C   UNL     1       2.546   4.868  18.850  0.00  0.00    +0.000 C 
ATOM      7  C   UNL     1       1.435   3.977  18.232  0.00  0.00    +0.000 C 
ATOM      8  C   UNL     1       1.284   2.680  19.029  0.00  0.00    +0.000 C 
ENDROOT
BRANCH   1   9
ATOM      9  C   UNL     1       4.478   4.015  17.469  0.00  0.00    +0.000 C 
BRANCH   9  15
ATOM     10  C   UNL     1       6.301   4.201  14.922  0.00  0.00    +0.000 C 
ATOM     11  N   UNL     1       6.415   4.990  16.125  0.00  0.00    +0.000 N 
ATOM     12  N   UNL     1       7.445   5.857  16.206  0.00  0.00    +0.000 NA
ATOM     13  C   UNL     1       7.313   6.400  17.415  0.00  0.00    +0.000 A 
ATOM     14  C   UNL     1       6.214   5.873  18.115  0.00  0.00    +0.000 A 
ATOM     15  C   UNL     1       5.635   4.951  17.260  0.00  0.00    +0.000 A 
ENDBRANCH   9  15
ENDBRANCH   1   9
BRANCH   6  16
ATOM     16  C   UNL     1       2.510   6.256  18.163  0.00  0.00    +0.000 C 
BRANCH  16  17
ATOM     17  N   UNL     1       2.075   7.338  19.022  0.00  0.00    +0.000 N 
ATOM     18  C   UNL     1       1.986   8.600  18.524  0.00  0.00    +0.000 C 
ATOM     19  O   UNL     1       2.254   8.879  17.363  0.00  0.00    +0.000 OA
ATOM     20  H   UNL     1       1.863   7.177  19.998  0.00  0.00    +0.000 HD
BRANCH  18  21
ATOM     21  O   UNL     1       1.569   9.472  19.476  0.00  0.00    +0.000 OA
BRANCH  21  22
ATOM     22  C   UNL     1       0.429  10.325  19.176  0.00  0.00    +0.000 C 
ATOM     23  C   UNL     1      -0.463  10.511  20.413  0.00  0.00    +0.000 C 
ATOM     24  C   UNL     1       0.995  11.703  18.794  0.00  0.00    +0.000 C 
ATOM     25  C   UNL     1      -0.347   9.789  17.963  0.00  0.00    +0.000 C 
ENDBRANCH  21  22
ENDBRANCH  18  21
ENDBRANCH  16  17
ENDBRANCH   6  16
TORSDOF 6
ENDMDL
MODEL 8
REMARK VINA RESULT:      -7.3      2.498      5.939
REMARK  Name = 
REMARK  10 active torsions:
REMARK  status: ('A' for Active; 'I' for Inactive)
REMARK    1  A    between atoms: C_1  and  N_2
REMARK    2  A    between atoms: C_6  and  C_7
REMARK    3  A    between atoms: C_7  and  N_8
REMARK    4  A    between atoms: C_13  and  C_14
REMARK    5  A    between atoms: C_14  and  N_15
REMARK    6  A    between atoms: C_16  and  O_18
REMARK    7  A    between atoms: O_18  and  C_19
REMARK    8  A    between atoms: C_19  and  C_20
REMARK    9  A    between atoms: C_19  and  C_21
REMARK   10  A    between atoms: C_19  and  C_22
REMARK                            x       y       z     vdW  Elec       q    Type
REMARK                         _______ _______ _______ _____ _____    ______ ____
ROOT
ATOM      1  N   UNL     1       3.855   4.215  18.578  0.00  0.00    +0.000 NA
ATOM      2  C   UNL     1       3.906   2.742  18.776  0.00  0.00    +0.000 C 
ATOM      3  C   UNL     1       2.704   2.214  19.590  0.00  0.00    +0.000 C 
ATOM      4  C   UNL     1       2.702   2.929  20.939  0.00  0.00    +0.000 C 
ATOM      5  C   UNL     1       2.616   4.436  20.690  0.00  0.00    +0.000 C 
ATOM      6  C   UNL     1       2.589   4.766  19.161  0.00  0.00    +0.000 C 
ATOM      7  C   UNL     1       1.355   4.050  18.549  0.00  0.00    +0.000 C 
ATOM      8  C   UNL     1       1.390   2.554  18.871  0.00  0.00    +0.000 C 
ENDROOT
BRANCH   1   9
ATOM      9  C   UNL     1       4.125   4.564  17.168  0.00  0.00    +0.000 C 
BRANCH   9  15
ATOM     10  C   UNL     1       6.264   4.116  14.916  0.00  0.00    +0.000 C 
ATOM     11  N   UNL     1       6.334   5.070  15.997  0.00  0.00    +0.000 N 
ATOM     12  N   UNL     1       7.458   5.808  16.103  0.00  0.00    +0.000 NA
ATOM     13  C   UNL     1       7.252   6.552  17.189  0.00  0.00    +0.000 A 
ATOM     14  C   UNL     1       6.010   6.281  17.788  0.00  0.00    +0.000 A 
ATOM     15  C   UNL     1       5.420   5.309  16.999  0.00  0.00    +0.000 A 
ENDBRANCH   9  15
ENDBRANCH   1   9
BRANCH   6  16
ATOM     16  C   UNL     1       2.401   6.297  19.014  0.00  0.00    +0.000 C 
BRANCH  16  17
ATOM     17  N   UNL     1       2.161   6.992  20.261  0.00  0.00    +0.000 N 
ATOM     18  C   UNL     1       1.777   8.296  20.242  0.00  0.00    +0.000 C 
ATOM     19  O   UNL     1       1.612   8.928  19.207  0.00  0.00    +0.000 OA
ATOM     20  H   UNL     1       2.305   6.533  21.151  0.00  0.00    +0.000 HD
BRANCH  18  21
ATOM     21  O   UNL     1       1.608   8.773  21.501  0.00  0.00    +0.000 OA
BRANCH  21  22
ATOM     22  C   UNL     1       0.302   9.300  21.868  0.00  0.00    +0.000 C 
ATOM     23  C   UNL     1       0.007  10.612  21.126  0.00  0.00    +0.000 C 
ATOM     24  C   UNL     1      -0.738   8.261  21.414  0.00  0.00    +0.000 C 
ATOM     25  C   UNL     1       0.181   9.442  23.392  0.00  0.00    +0.000 C 
ENDBRANCH  21  22
ENDBRANCH  18  21
ENDBRANCH  16  17
ENDBRANCH   6  16
TORSDOF 6
ENDMDL
MODEL 9
REMARK VINA RESULT:      -7.3      2.643      5.587
REMARK  Name = 
REMARK  10 active torsions:
REMARK  status: ('A' for Active; 'I' for Inactive)
REMARK    1  A    between atoms: C_1  and  N_2
REMARK    2  A    between atoms: C_6  and  C_7
REMARK    3  A    between atoms: C_7  and  N_8
REMARK    4  A    between atoms: C_13  and  C_14
REMARK    5  A    between atoms: C_14  and  N_15
REMARK    6  A    between atoms: C_16  and  O_18
REMARK    7  A    between atoms: O_18  and  C_19
REMARK    8  A    between atoms: C_19  and  C_20
REMARK    9  A    between atoms: C_19  and  C_21
REMARK   10  A    between atoms: C_19  and  C_22
REMARK                            x       y       z     vdW  Elec       q    Type
REMARK                         _______ _______ _______ _____ _____    ______ ____
ROOT
ATOM      1  N   UNL     1       3.818   4.085  18.962  0.00  0.00    +0.000 NA
ATOM      2  C   UNL     1       3.412   2.799  19.589  0.00  0.00    +0.000 C 
ATOM      3  C   UNL     1       1.911   2.768  19.953  0.00  0.00    +0.000 C 
ATOM      4  C   UNL     1       1.637   3.930  20.906  0.00  0.00    +0.000 C 
ATOM      5  C   UNL     1       2.039   5.233  20.213  0.00  0.00    +0.000 C 
ATOM      6  C   UNL     1       2.621   4.968  18.784  0.00  0.00    +0.000 C 
ATOM      7  C   UNL     1       1.527   4.237  17.961  0.00  0.00    +0.000 C 
ATOM      8  C   UNL     1       1.057   2.979  18.694  0.00  0.00    +0.000 C 
ENDROOT
BRANCH   1   9
ATOM      9  C   UNL     1       4.632   3.846  17.753  0.00  0.00    +0.000 C 
BRANCH   9  15
ATOM     10  C   UNL     1       5.947   4.793  15.066  0.00  0.00    +0.000 C 
ATOM     11  N   UNL     1       6.296   5.226  16.398  0.00  0.00    +0.000 N 
ATOM     12  N   UNL     1       7.335   6.075  16.524  0.00  0.00    +0.000 NA
ATOM     13  C   UNL     1       7.441   6.261  17.839  0.00  0.00    +0.000 A 
ATOM     14  C   UNL     1       6.486   5.521  18.556  0.00  0.00    +0.000 A 
ATOM     15  C   UNL     1       5.743   4.847  17.601  0.00  0.00    +0.000 A 
ENDBRANCH   9  15
ENDBRANCH   1   9
BRANCH   6  16
ATOM     16  C   UNL     1       2.901   6.344  18.129  0.00  0.00    +0.000 C 
BRANCH  16  17
ATOM     17  N   UNL     1       1.768   7.246  18.126  0.00  0.00    +0.000 N 
ATOM     18  C   UNL     1       1.953   8.558  17.818  0.00  0.00    +0.000 C 
ATOM     19  O   UNL     1       3.046   9.029  17.532  0.00  0.00    +0.000 OA
ATOM     20  H   UNL     1       0.843   6.924  18.378  0.00  0.00    +0.000 HD
BRANCH  18  21
ATOM     21  O   UNL     1       0.782   9.241  17.873  0.00  0.00    +0.000 OA
BRANCH  21  22
ATOM     22  C   UNL     1       0.549  10.115  19.013  0.00  0.00    +0.000 C 
ATOM     23  C   UNL     1       1.278  11.456  18.840  0.00  0.00    +0.000 C 
ATOM     24  C   UNL     1      -0.961  10.404  19.049  0.00  0.00    +0.000 C 
ATOM     25  C   UNL     1       0.918   9.407  20.325  0.00  0.00    +0.000 C 
ENDBRANCH  21  22
ENDBRANCH  18  21
ENDBRANCH  16  17
ENDBRANCH   6  16
TORSDOF 6
ENDMDL
