MODEL 1
REMARK VINA RESULT:      -7.6      0.000      0.000
REMARK  Name = 
REMARK  10 active torsions:
REMARK  status: ('A' for Active; 'I' for Inactive)
REMARK    1  A    between atoms: C_1  and  O_2
REMARK    2  A    between atoms: O_2  and  C_3
REMARK    3  A    between atoms: C_3  and  C_4
REMARK    4  A    between atoms: C_4  and  O_5
REMARK    5  A    between atoms: O_5  and  C_6
REMARK    6  A    between atoms: N_13  and  C_14
REMARK    7  A    between atoms: C_18  and  C_19
REMARK    8  A    between atoms: C_22  and  C_23
REMARK    9  A    between atoms: C_28  and  O_29
REMARK   10  A    between atoms: O_29  and  C_30
REMARK                            x       y       z     vdW  Elec       q    Type
REMARK                         _______ _______ _______ _____ _____    ______ ____
ROOT
ATOM      1  C   UNL     1       5.373   4.425  16.328  0.00  0.00    +0.000 A 
ATOM      2  C   UNL     1       4.288   3.714  16.892  0.00  0.00    +0.000 A 
ATOM      3  C   UNL     1       3.455   4.237  17.877  0.00  0.00    +0.000 A 
ATOM      4  N   UNL     1       2.481   3.470  18.386  0.00  0.00    +0.000 NA
ATOM      5  C   UNL     1       1.693   4.031  19.309  0.00  0.00    +0.000 A 
ATOM      6  N   UNL     1       1.771   5.290  19.742  0.00  0.00    +0.000 NA
ATOM      7  C   UNL     1       2.759   6.059  19.224  0.00  0.00    +0.000 A 
ATOM      8  N   UNL     1       2.823   7.420  19.616  0.00  0.00    +0.000 N 
ATOM      9  C   UNL     1       3.668   5.554  18.289  0.00  0.00    +0.000 A 
ATOM     10  C   UNL     1       4.751   6.278  17.733  0.00  0.00    +0.000 A 
ATOM     11  C   UNL     1       5.610   5.735  16.763  0.00  0.00    +0.000 A 
ATOM     12  H   UNL     1       3.722   7.644  20.023  0.00  0.00    +0.000 HD
ENDROOT
BRANCH   8  13
ATOM     13  C   UNL     1       1.750   8.167  20.143  0.00  0.00    +0.000 A 
ATOM     14  C   UNL     1       1.611   8.342  21.530  0.00  0.00    +0.000 A 
ATOM     15  C   UNL     1       0.582   9.113  22.060  0.00  0.00    +0.000 A 
ATOM     16  C   UNL     1      -0.325   9.731  21.212  0.00  0.00    +0.000 A 
ATOM     17  C   UNL     1      -0.228   9.563  19.820  0.00  0.00    +0.000 A 
ATOM     18  C   UNL     1       0.790   8.747  19.299  0.00  0.00    +0.000 A 
BRANCH  17  19
ATOM     19  C   UNL     1      -1.148  10.247  18.922  0.00  0.00    +0.000 A 
ATOM     20  C   UNL     1      -1.878  11.360  19.285  0.00  0.00    +0.000 A 
ATOM     21  S   UNL     1      -2.844  11.889  17.976  0.00  0.00    +0.000 S 
ATOM     22  C   UNL     1      -2.220  10.608  17.017  0.00  0.00    +0.000 A 
ATOM     23  C   UNL     1      -2.689  10.424  15.618  0.00  0.00    +0.000 C 
ATOM     24  N   UNL     1      -1.327   9.839  17.608  0.00  0.00    +0.000 NA
ENDBRANCH  17  19
ENDBRANCH   8  13
BRANCH  11  25
ATOM     25  O   UNL     1       6.649   6.587  16.524  0.00  0.00    +0.000 OA
ATOM     26  C   UNL     1       7.428   7.111  17.585  0.00  0.00    +0.000 C 
ENDBRANCH  11  25
BRANCH   1  27
ATOM     27  O   UNL     1       6.045   3.626  15.439  0.00  0.00    +0.000 OA
BRANCH  27  28
ATOM     28  C   UNL     1       6.384   4.177  14.186  0.00  0.00    +0.000 C 
BRANCH  28  29
ATOM     29  C   UNL     1       5.418   3.807  13.070  0.00  0.00    +0.000 C 
BRANCH  29  31
ATOM     30  C   UNL     1       5.686   2.022  11.517  0.00  0.00    +0.000 C 
ATOM     31  O   UNL     1       6.231   3.213  12.057  0.00  0.00    +0.000 OA
ENDBRANCH  29  31
ENDBRANCH  28  29
ENDBRANCH  27  28
ENDBRANCH   1  27
TORSDOF 7
ENDMDL
MODEL 2
REMARK VINA RESULT:      -7.5      0.936      1.018
REMARK  Name = 
REMARK  10 active torsions:
REMARK  status: ('A' for Active; 'I' for Inactive)
REMARK    1  A    between atoms: C_1  and  O_2
REMARK    2  A    between atoms: O_2  and  C_3
REMARK    3  A    between atoms: C_3  and  C_4
REMARK    4  A    between atoms: C_4  and  O_5
REMARK    5  A    between atoms: O_5  and  C_6
REMARK    6  A    between atoms: N_13  and  C_14
REMARK    7  A    between atoms: C_18  and  C_19
REMARK    8  A    between atoms: C_22  and  C_23
REMARK    9  A    between atoms: C_28  and  O_29
REMARK   10  A    between atoms: O_29  and  C_30
REMARK                            x       y       z     vdW  Elec       q    Type
REMARK                         _______ _______ _______ _____ _____    ______ ____
ROOT
ATOM      1  C   UNL     1       5.224   4.798  16.908  0.00  0.00    +0.000 A 
ATOM      2  C   UNL     1       4.237   4.150  17.687  0.00  0.00    +0.000 A 
ATOM      3  C   UNL     1       3.357   4.824  18.529  0.00  0.00    +0.000 A 
ATOM      4  N   UNL     1       2.486   4.121  19.265  0.00  0.00    +0.000 NA
ATOM      5  C   UNL     1       1.646   4.820  20.036  0.00  0.00    +0.000 A 
ATOM      6  N   UNL     1       1.579   6.149  20.112  0.00  0.00    +0.000 NA
ATOM      7  C   UNL     1       2.464   6.854  19.366  0.00  0.00    +0.000 A 
ATOM      8  N   UNL     1       2.370   8.268  19.376  0.00  0.00    +0.000 N 
ATOM      9  C   UNL     1       3.417   6.219  18.564  0.00  0.00    +0.000 A 
ATOM     10  C   UNL     1       4.401   6.881  17.790  0.00  0.00    +0.000 A 
ATOM     11  C   UNL     1       5.309   6.194  16.966  0.00  0.00    +0.000 A 
ATOM     12  H   UNL     1       3.240   8.693  19.671  0.00  0.00    +0.000 HD
ENDROOT
BRANCH   8  13
ATOM     13  C   UNL     1       1.221   9.006  19.727  0.00  0.00    +0.000 A 
ATOM     14  C   UNL     1       1.058   9.501  21.032  0.00  0.00    +0.000 A 
ATOM     15  C   UNL     1      -0.049  10.267  21.380  0.00  0.00    +0.000 A 
ATOM     16  C   UNL     1      -1.013  10.559  20.426  0.00  0.00    +0.000 A 
ATOM     17  C   UNL     1      -0.892  10.066  19.116  0.00  0.00    +0.000 A 
ATOM     18  C   UNL     1       0.209   9.258  18.788  0.00  0.00    +0.000 A 
BRANCH  17  19
ATOM     19  C   UNL     1      -1.876  10.408  18.098  0.00  0.00    +0.000 A 
ATOM     20  C   UNL     1      -2.959  11.229  18.334  0.00  0.00    +0.000 A 
ATOM     21  S   UNL     1      -3.891  11.406  16.910  0.00  0.00    +0.000 S 
ATOM     22  C   UNL     1      -2.786  10.389  16.078  0.00  0.00    +0.000 A 
ATOM     23  C   UNL     1      -3.011  10.051  14.647  0.00  0.00    +0.000 C 
ATOM     24  N   UNL     1      -1.766   9.954  16.791  0.00  0.00    +0.000 NA
ENDBRANCH  17  19
ENDBRANCH   8  13
BRANCH  11  25
ATOM     25  O   UNL     1       6.237   7.060  16.465  0.00  0.00    +0.000 OA
ATOM     26  C   UNL     1       7.329   7.504  17.252  0.00  0.00    +0.000 C 
ENDBRANCH  11  25
BRANCH   1  27
ATOM     27  O   UNL     1       5.978   3.867  16.239  0.00  0.00    +0.000 OA
BRANCH  27  28
ATOM     28  C   UNL     1       6.532   4.241  14.997  0.00  0.00    +0.000 C 
BRANCH  28  29
ATOM     29  C   UNL     1       5.558   4.135  13.832  0.00  0.00    +0.000 C 
BRANCH  29  31
ATOM     30  C   UNL     1       5.421   2.945  11.775  0.00  0.00    +0.000 C 
ATOM     31  O   UNL     1       6.250   3.380  12.837  0.00  0.00    +0.000 OA
ENDBRANCH  29  31
ENDBRANCH  28  29
ENDBRANCH  27  28
ENDBRANCH   1  27
TORSDOF 7
ENDMDL
MODEL 3
REMARK VINA RESULT:      -7.2      4.995      9.811
REMARK  Name = 
REMARK  10 active torsions:
REMARK  status: ('A' for Active; 'I' for Inactive)
REMARK    1  A    between atoms: C_1  and  O_2
REMARK    2  A    between atoms: O_2  and  C_3
REMARK    3  A    between atoms: C_3  and  C_4
REMARK    4  A    between atoms: C_4  and  O_5
REMARK    5  A    between atoms: O_5  and  C_6
REMARK    6  A    between atoms: N_13  and  C_14
REMARK    7  A    between atoms: C_18  and  C_19
REMARK    8  A    between atoms: C_22  and  C_23
REMARK    9  A    between atoms: C_28  and  O_29
REMARK   10  A    between atoms: O_29  and  C_30
REMARK                            x       y       z     vdW  Elec       q    Type
REMARK                         _______ _______ _______ _____ _____    ______ ____
ROOT
ATOM      1  C   UNL     1      -0.806  11.418  21.324  0.00  0.00    +0.000 A 
ATOM      2  C   UNL     1      -0.451  11.355  19.956  0.00  0.00    +0.000 A 
ATOM      3  C   UNL     1       0.388  10.380  19.424  0.00  0.00    +0.000 A 
ATOM      4  N   UNL     1       0.707  10.429  18.123  0.00  0.00    +0.000 NA
ATOM      5  C   UNL     1       1.494   9.453  17.659  0.00  0.00    +0.000 A 
ATOM      6  N   UNL     1       1.961   8.423  18.365  0.00  0.00    +0.000 NA
ATOM      7  C   UNL     1       1.636   8.381  19.680  0.00  0.00    +0.000 A 
ATOM      8  N   UNL     1       2.063   7.263  20.439  0.00  0.00    +0.000 N 
ATOM      9  C   UNL     1       0.860   9.379  20.277  0.00  0.00    +0.000 A 
ATOM     10  C   UNL     1       0.513   9.430  21.648  0.00  0.00    +0.000 A 
ATOM     11  C   UNL     1      -0.308  10.435  22.188  0.00  0.00    +0.000 A 
ATOM     12  H   UNL     1       2.623   7.547  21.232  0.00  0.00    +0.000 HD
ENDROOT
BRANCH   8  13
ATOM     13  C   UNL     1       2.415   6.004  19.909  0.00  0.00    +0.000 A 
ATOM     14  C   UNL     1       1.635   4.868  20.183  0.00  0.00    +0.000 A 
ATOM     15  C   UNL     1       1.947   3.630  19.632  0.00  0.00    +0.000 A 
ATOM     16  C   UNL     1       3.040   3.506  18.788  0.00  0.00    +0.000 A 
ATOM     17  C   UNL     1       3.853   4.616  18.507  0.00  0.00    +0.000 A 
ATOM     18  C   UNL     1       3.554   5.852  19.104  0.00  0.00    +0.000 A 
BRANCH  17  19
ATOM     19  C   UNL     1       4.976   4.503  17.585  0.00  0.00    +0.000 A 
ATOM     20  C   UNL     1       6.292   4.652  17.970  0.00  0.00    +0.000 A 
ATOM     21  S   UNL     1       7.330   4.449  16.624  0.00  0.00    +0.000 S 
ATOM     22  C   UNL     1       5.959   4.170  15.628  0.00  0.00    +0.000 A 
ATOM     23  C   UNL     1       6.131   3.920  14.172  0.00  0.00    +0.000 C 
ATOM     24  N   UNL     1       4.794   4.196  16.244  0.00  0.00    +0.000 NA
ENDBRANCH  17  19
ENDBRANCH   8  13
BRANCH  11  25
ATOM     25  O   UNL     1      -0.347  10.331  23.548  0.00  0.00    +0.000 OA
ATOM     26  C   UNL     1       0.362   9.309  24.227  0.00  0.00    +0.000 C 
ENDBRANCH  11  25
BRANCH   1  27
ATOM     27  O   UNL     1      -1.584  12.523  21.555  0.00  0.00    +0.000 OA
BRANCH  27  28
ATOM     28  C   UNL     1      -2.927  12.314  21.928  0.00  0.00    +0.000 C 
BRANCH  28  29
ATOM     29  C   UNL     1      -3.179  12.446  23.423  0.00  0.00    +0.000 C 
BRANCH  29  31
ATOM     30  C   UNL     1      -5.312  13.088  22.582  0.00  0.00    +0.000 C 
ATOM     31  O   UNL     1      -4.598  12.367  23.570  0.00  0.00    +0.000 OA
ENDBRANCH  29  31
ENDBRANCH  28  29
ENDBRANCH  27  28
ENDBRANCH   1  27
TORSDOF 7
ENDMDL
MODEL 4
REMARK VINA RESULT:      -7.2      1.523      1.928
REMARK  Name = 
REMARK  10 active torsions:
REMARK  status: ('A' for Active; 'I' for Inactive)
REMARK    1  A    between atoms: C_1  and  O_2
REMARK    2  A    between atoms: O_2  and  C_3
REMARK    3  A    between atoms: C_3  and  C_4
REMARK    4  A    between atoms: C_4  and  O_5
REMARK    5  A    between atoms: O_5  and  C_6
REMARK    6  A    between atoms: N_13  and  C_14
REMARK    7  A    between atoms: C_18  and  C_19
REMARK    8  A    between atoms: C_22  and  C_23
REMARK    9  A    between atoms: C_28  and  O_29
REMARK   10  A    between atoms: O_29  and  C_30
REMARK                            x       y       z     vdW  Elec       q    Type
REMARK                         _______ _______ _______ _____ _____    ______ ____
ROOT
ATOM      1  C   UNL     1       5.700   4.594  15.715  0.00  0.00    +0.000 A 
ATOM      2  C   UNL     1       4.527   3.870  16.029  0.00  0.00    +0.000 A 
ATOM      3  C   UNL     1       3.642   4.240  17.038  0.00  0.00    +0.000 A 
ATOM      4  N   UNL     1       2.580   3.464  17.295  0.00  0.00    +0.000 NA
ATOM      5  C   UNL     1       1.748   3.880  18.256  0.00  0.00    +0.000 A 
ATOM      6  N   UNL     1       1.865   5.010  18.955  0.00  0.00    +0.000 NA
ATOM      7  C   UNL     1       2.942   5.788  18.691  0.00  0.00    +0.000 A 
ATOM      8  N   UNL     1       3.054   7.027  19.371  0.00  0.00    +0.000 N 
ATOM      9  C   UNL     1       3.899   5.420  17.740  0.00  0.00    +0.000 A 
ATOM     10  C   UNL     1       5.070   6.155  17.436  0.00  0.00    +0.000 A 
ATOM     11  C   UNL     1       5.978   5.760  16.439  0.00  0.00    +0.000 A 
ATOM     12  H   UNL     1       3.925   7.088  19.884  0.00  0.00    +0.000 HD
ENDROOT
BRANCH   8  13
ATOM     13  C   UNL     1       1.987   7.731  19.965  0.00  0.00    +0.000 A 
ATOM     14  C   UNL     1       1.324   7.212  21.089  0.00  0.00    +0.000 A 
ATOM     15  C   UNL     1       0.298   7.916  21.710  0.00  0.00    +0.000 A 
ATOM     16  C   UNL     1      -0.080   9.158  21.222  0.00  0.00    +0.000 A 
ATOM     17  C   UNL     1       0.548   9.700  20.088  0.00  0.00    +0.000 A 
ATOM     18  C   UNL     1       1.554   8.960  19.444  0.00  0.00    +0.000 A 
BRANCH  17  19
ATOM     19  C   UNL     1       0.189  11.024  19.599  0.00  0.00    +0.000 A 
ATOM     20  C   UNL     1      -0.722  11.237  18.585  0.00  0.00    +0.000 A 
ATOM     21  S   UNL     1      -0.892  12.913  18.283  0.00  0.00    +0.000 S 
ATOM     22  C   UNL     1       0.249  13.237  19.525  0.00  0.00    +0.000 A 
ATOM     23  C   UNL     1       0.646  14.638  19.829  0.00  0.00    +0.000 C 
ATOM     24  N   UNL     1       0.720  12.179  20.155  0.00  0.00    +0.000 NA
ENDBRANCH  17  19
ENDBRANCH   8  13
BRANCH  11  25
ATOM     25  O   UNL     1       7.085   6.557  16.469  0.00  0.00    +0.000 OA
ATOM     26  C   UNL     1       7.593   7.065  17.690  0.00  0.00    +0.000 C 
ENDBRANCH  11  25
BRANCH   1  27
ATOM     27  O   UNL     1       6.399   3.948  14.728  0.00  0.00    +0.000 OA
BRANCH  27  28
ATOM     28  C   UNL     1       5.920   4.056  13.406  0.00  0.00    +0.000 C 
BRANCH  28  29
ATOM     29  C   UNL     1       6.671   3.188  12.406  0.00  0.00    +0.000 C 
BRANCH  29  31
ATOM     30  C   UNL     1       4.456   3.131  11.535  0.00  0.00    +0.000 C 
ATOM     31  O   UNL     1       5.661   2.420  11.749  0.00  0.00    +0.000 OA
ENDBRANCH  29  31
ENDBRANCH  28  29
ENDBRANCH  27  28
ENDBRANCH   1  27
TORSDOF 7
ENDMDL
MODEL 5
REMARK VINA RESULT:      -7.1      4.515      9.161
REMARK  Name = 
REMARK  10 active torsions:
REMARK  status: ('A' for Active; 'I' for Inactive)
REMARK    1  A    between atoms: C_1  and  O_2
REMARK    2  A    between atoms: O_2  and  C_3
REMARK    3  A    between atoms: C_3  and  C_4
REMARK    4  A    between atoms: C_4  and  O_5
REMARK    5  A    between atoms: O_5  and  C_6
REMARK    6  A    between atoms: N_13  and  C_14
REMARK    7  A    between atoms: C_18  and  C_19
REMARK    8  A    between atoms: C_22  and  C_23
REMARK    9  A    between atoms: C_28  and  O_29
REMARK   10  A    between atoms: O_29  and  C_30
REMARK                            x       y       z     vdW  Elec       q    Type
REMARK                         _______ _______ _______ _____ _____    ______ ____
ROOT
ATOM      1  C   UNL     1       0.485   8.538  21.076  0.00  0.00    +0.000 A 
ATOM      2  C   UNL     1       0.696   7.165  21.339  0.00  0.00    +0.000 A 
ATOM      3  C   UNL     1       1.515   6.350  20.562  0.00  0.00    +0.000 A 
ATOM      4  N   UNL     1       1.616   5.048  20.861  0.00  0.00    +0.000 NA
ATOM      5  C   UNL     1       2.437   4.317  20.099  0.00  0.00    +0.000 A 
ATOM      6  N   UNL     1       3.184   4.775  19.094  0.00  0.00    +0.000 NA
ATOM      7  C   UNL     1       3.076   6.092  18.797  0.00  0.00    +0.000 A 
ATOM      8  N   UNL     1       3.908   6.619  17.778  0.00  0.00    +0.000 N 
ATOM      9  C   UNL     1       2.208   6.934  19.500  0.00  0.00    +0.000 A 
ATOM     10  C   UNL     1       2.006   8.308  19.224  0.00  0.00    +0.000 A 
ATOM     11  C   UNL     1       1.152   9.119  19.991  0.00  0.00    +0.000 A 
ATOM     12  H   UNL     1       3.363   7.053  17.044  0.00  0.00    +0.000 HD
ENDROOT
BRANCH   8  13
ATOM     13  C   UNL     1       5.116   6.042  17.333  0.00  0.00    +0.000 A 
ATOM     14  C   UNL     1       6.177   5.825  18.226  0.00  0.00    +0.000 A 
ATOM     15  C   UNL     1       7.358   5.218  17.810  0.00  0.00    +0.000 A 
ATOM     16  C   UNL     1       7.495   4.810  16.491  0.00  0.00    +0.000 A 
ATOM     17  C   UNL     1       6.462   5.029  15.566  0.00  0.00    +0.000 A 
ATOM     18  C   UNL     1       5.292   5.682  15.989  0.00  0.00    +0.000 A 
BRANCH  17  19
ATOM     19  C   UNL     1       6.582   4.562  14.191  0.00  0.00    +0.000 A 
ATOM     20  C   UNL     1       7.543   5.020  13.314  0.00  0.00    +0.000 A 
ATOM     21  S   UNL     1       7.379   4.246  11.797  0.00  0.00    +0.000 S 
ATOM     22  C   UNL     1       6.049   3.352  12.413  0.00  0.00    +0.000 A 
ATOM     23  C   UNL     1       5.321   2.395  11.538  0.00  0.00    +0.000 C 
ATOM     24  N   UNL     1       5.746   3.581  13.676  0.00  0.00    +0.000 NA
ENDBRANCH  17  19
ENDBRANCH   8  13
BRANCH  11  25
ATOM     25  O   UNL     1       1.026  10.349  19.412  0.00  0.00    +0.000 OA
ATOM     26  C   UNL     1       1.715  10.672  18.217  0.00  0.00    +0.000 C 
ENDBRANCH  11  25
BRANCH   1  27
ATOM     27  O   UNL     1      -0.421   9.052  21.968  0.00  0.00    +0.000 OA
BRANCH  27  28
ATOM     28  C   UNL     1      -0.037  10.184  22.716  0.00  0.00    +0.000 C 
BRANCH  28  29
ATOM     29  C   UNL     1      -1.181  11.144  23.010  0.00  0.00    +0.000 C 
BRANCH  29  31
ATOM     30  C   UNL     1      -0.236  12.910  21.723  0.00  0.00    +0.000 C 
ATOM     31  O   UNL     1      -0.585  12.442  23.014  0.00  0.00    +0.000 OA
ENDBRANCH  29  31
ENDBRANCH  28  29
ENDBRANCH  27  28
ENDBRANCH   1  27
TORSDOF 7
ENDMDL
MODEL 6
REMARK VINA RESULT:      -7.1      1.411      1.757
REMARK  Name = 
REMARK  10 active torsions:
REMARK  status: ('A' for Active; 'I' for Inactive)
REMARK    1  A    between atoms: C_1  and  O_2
REMARK    2  A    between atoms: O_2  and  C_3
REMARK    3  A    between atoms: C_3  and  C_4
REMARK    4  A    between atoms: C_4  and  O_5
REMARK    5  A    between atoms: O_5  and  C_6
REMARK    6  A    between atoms: N_13  and  C_14
REMARK    7  A    between atoms: C_18  and  C_19
REMARK    8  A    between atoms: C_22  and  C_23
REMARK    9  A    between atoms: C_28  and  O_29
REMARK   10  A    between atoms: O_29  and  C_30
REMARK                            x       y       z     vdW  Elec       q    Type
REMARK                         _______ _______ _______ _____ _____    ______ ____
ROOT
ATOM      1  C   UNL     1       5.098   4.972  17.417  0.00  0.00    +0.000 A 
ATOM      2  C   UNL     1       4.148   4.403  18.295  0.00  0.00    +0.000 A 
ATOM      3  C   UNL     1       3.261   5.155  19.061  0.00  0.00    +0.000 A 
ATOM      4  N   UNL     1       2.427   4.529  19.902  0.00  0.00    +0.000 NA
ATOM      5  C   UNL     1       1.578   5.297  20.593  0.00  0.00    +0.000 A 
ATOM      6  N   UNL     1       1.468   6.622  20.495  0.00  0.00    +0.000 NA
ATOM      7  C   UNL     1       2.315   7.249  19.644  0.00  0.00    +0.000 A 
ATOM      8  N   UNL     1       2.174   8.649  19.470  0.00  0.00    +0.000 N 
ATOM      9  C   UNL     1       3.275   6.544  18.911  0.00  0.00    +0.000 A 
ATOM     10  C   UNL     1       4.222   7.128  18.035  0.00  0.00    +0.000 A 
ATOM     11  C   UNL     1       5.138   6.366  17.289  0.00  0.00    +0.000 A 
ATOM     12  H   UNL     1       3.035   9.136  19.687  0.00  0.00    +0.000 HD
ENDROOT
BRANCH   8  13
ATOM     13  C   UNL     1       1.008   9.391  19.746  0.00  0.00    +0.000 A 
ATOM     14  C   UNL     1       0.831  10.009  20.995  0.00  0.00    +0.000 A 
ATOM     15  C   UNL     1      -0.295  10.780  21.266  0.00  0.00    +0.000 A 
ATOM     16  C   UNL     1      -1.262  10.954  20.288  0.00  0.00    +0.000 A 
ATOM     17  C   UNL     1      -1.128  10.335  19.034  0.00  0.00    +0.000 A 
ATOM     18  C   UNL     1      -0.007   9.525  18.787  0.00  0.00    +0.000 A 
BRANCH  17  19
ATOM     19  C   UNL     1      -2.117  10.552  17.987  0.00  0.00    +0.000 A 
ATOM     20  C   UNL     1      -1.997  10.042  16.711  0.00  0.00    +0.000 A 
ATOM     21  S   UNL     1      -3.345  10.497  15.760  0.00  0.00    +0.000 S 
ATOM     22  C   UNL     1      -3.997  11.333  17.111  0.00  0.00    +0.000 A 
ATOM     23  C   UNL     1      -5.285  12.067  16.987  0.00  0.00    +0.000 C 
ATOM     24  N   UNL     1      -3.284  11.267  18.218  0.00  0.00    +0.000 NA
ENDBRANCH  17  19
ENDBRANCH   8  13
BRANCH  11  25
ATOM     25  O   UNL     1       6.027   7.186  16.658  0.00  0.00    +0.000 OA
ATOM     26  C   UNL     1       7.375   7.277  17.086  0.00  0.00    +0.000 C 
ENDBRANCH  11  25
BRANCH   1  27
ATOM     27  O   UNL     1       5.870   3.985  16.859  0.00  0.00    +0.000 OA
BRANCH  27  28
ATOM     28  C   UNL     1       5.544   3.553  15.558  0.00  0.00    +0.000 C 
BRANCH  28  29
ATOM     29  C   UNL     1       6.077   4.458  14.456  0.00  0.00    +0.000 C 
BRANCH  29  31
ATOM     30  C   UNL     1       6.411   3.337  12.382  0.00  0.00    +0.000 C 
ATOM     31  O   UNL     1       5.486   3.965  13.252  0.00  0.00    +0.000 OA
ENDBRANCH  29  31
ENDBRANCH  28  29
ENDBRANCH  27  28
ENDBRANCH   1  27
TORSDOF 7
ENDMDL
MODEL 7
REMARK VINA RESULT:      -7.1      1.693      2.036
REMARK  Name = 
REMARK  10 active torsions:
REMARK  status: ('A' for Active; 'I' for Inactive)
REMARK    1  A    between atoms: C_1  and  O_2
REMARK    2  A    between atoms: O_2  and  C_3
REMARK    3  A    between atoms: C_3  and  C_4
REMARK    4  A    between atoms: C_4  and  O_5
REMARK    5  A    between atoms: O_5  and  C_6
REMARK    6  A    between atoms: N_13  and  C_14
REMARK    7  A    between atoms: C_18  and  C_19
REMARK    8  A    between atoms: C_22  and  C_23
REMARK    9  A    between atoms: C_28  and  O_29
REMARK   10  A    between atoms: O_29  and  C_30
REMARK                            x       y       z     vdW  Elec       q    Type
REMARK                         _______ _______ _______ _____ _____    ______ ____
ROOT
ATOM      1  C   UNL     1       4.917   4.543  16.614  0.00  0.00    +0.000 A 
ATOM      2  C   UNL     1       3.885   3.837  17.275  0.00  0.00    +0.000 A 
ATOM      3  C   UNL     1       3.097   4.389  18.282  0.00  0.00    +0.000 A 
ATOM      4  N   UNL     1       2.174   3.627  18.884  0.00  0.00    +0.000 NA
ATOM      5  C   UNL     1       1.428   4.216  19.825  0.00  0.00    +0.000 A 
ATOM      6  N   UNL     1       1.500   5.495  20.192  0.00  0.00    +0.000 NA
ATOM      7  C   UNL     1       2.437   6.260  19.580  0.00  0.00    +0.000 A 
ATOM      8  N   UNL     1       2.490   7.639  19.902  0.00  0.00    +0.000 N 
ATOM      9  C   UNL     1       3.302   5.729  18.617  0.00  0.00    +0.000 A 
ATOM     10  C   UNL     1       4.332   6.448  17.964  0.00  0.00    +0.000 A 
ATOM     11  C   UNL     1       5.147   5.877  16.972  0.00  0.00    +0.000 A 
ATOM     12  H   UNL     1       3.405   7.902  20.244  0.00  0.00    +0.000 HD
ENDROOT
BRANCH   8  13
ATOM     13  C   UNL     1       1.431   8.388  20.455  0.00  0.00    +0.000 A 
ATOM     14  C   UNL     1       0.691   7.889  21.540  0.00  0.00    +0.000 A 
ATOM     15  C   UNL     1      -0.327   8.636  22.123  0.00  0.00    +0.000 A 
ATOM     16  C   UNL     1      -0.620   9.901  21.634  0.00  0.00    +0.000 A 
ATOM     17  C   UNL     1       0.085  10.423  20.538  0.00  0.00    +0.000 A 
ATOM     18  C   UNL     1       1.083   9.642  19.932  0.00  0.00    +0.000 A 
BRANCH  17  19
ATOM     19  C   UNL     1      -0.186  11.769  20.051  0.00  0.00    +0.000 A 
ATOM     20  C   UNL     1       0.262  12.241  18.834  0.00  0.00    +0.000 A 
ATOM     21  S   UNL     1      -0.250  13.856  18.599  0.00  0.00    +0.000 S 
ATOM     22  C   UNL     1      -1.037  13.813  20.125  0.00  0.00    +0.000 A 
ATOM     23  C   UNL     1      -1.747  15.017  20.635  0.00  0.00    +0.000 C 
ATOM     24  N   UNL     1      -0.958  12.668  20.773  0.00  0.00    +0.000 NA
ENDBRANCH  17  19
ENDBRANCH   8  13
BRANCH  11  25
ATOM     25  O   UNL     1       6.148   6.738  16.632  0.00  0.00    +0.000 OA
ATOM     26  C   UNL     1       7.446   6.613  17.186  0.00  0.00    +0.000 C 
ENDBRANCH  11  25
BRANCH   1  27
ATOM     27  O   UNL     1       5.556   3.715  15.726  0.00  0.00    +0.000 OA
BRANCH  27  28
ATOM     28  C   UNL     1       5.521   4.066  14.361  0.00  0.00    +0.000 C 
BRANCH  28  29
ATOM     29  C   UNL     1       6.863   4.529  13.811  0.00  0.00    +0.000 C 
BRANCH  29  31
ATOM     30  C   UNL     1       5.801   3.214  12.134  0.00  0.00    +0.000 C 
ATOM     31  O   UNL     1       6.909   4.028  12.474  0.00  0.00    +0.000 OA
ENDBRANCH  29  31
ENDBRANCH  28  29
ENDBRANCH  27  28
ENDBRANCH   1  27
TORSDOF 7
ENDMDL
MODEL 8
REMARK VINA RESULT:      -7.0      2.488      3.937
REMARK  Name = 
REMARK  10 active torsions:
REMARK  status: ('A' for Active; 'I' for Inactive)
REMARK    1  A    between atoms: C_1  and  O_2
REMARK    2  A    between atoms: O_2  and  C_3
REMARK    3  A    between atoms: C_3  and  C_4
REMARK    4  A    between atoms: C_4  and  O_5
REMARK    5  A    between atoms: O_5  and  C_6
REMARK    6  A    between atoms: N_13  and  C_14
REMARK    7  A    between atoms: C_18  and  C_19
REMARK    8  A    between atoms: C_22  and  C_23
REMARK    9  A    between atoms: C_28  and  O_29
REMARK   10  A    between atoms: O_29  and  C_30
REMARK                            x       y       z     vdW  Elec       q    Type
REMARK                         _______ _______ _______ _____ _____    ______ ____
ROOT
ATOM      1  C   UNL     1       3.791   5.052  18.171  0.00  0.00    +0.000 A 
ATOM      2  C   UNL     1       2.972   5.153  19.318  0.00  0.00    +0.000 A 
ATOM      3  C   UNL     1       2.387   6.343  19.744  0.00  0.00    +0.000 A 
ATOM      4  N   UNL     1       1.664   6.350  20.873  0.00  0.00    +0.000 NA
ATOM      5  C   UNL     1       1.103   7.513  21.221  0.00  0.00    +0.000 A 
ATOM      6  N   UNL     1       1.174   8.652  20.531  0.00  0.00    +0.000 NA
ATOM      7  C   UNL     1       1.908   8.637  19.392  0.00  0.00    +0.000 A 
ATOM      8  N   UNL     1       1.944   9.815  18.605  0.00  0.00    +0.000 N 
ATOM      9  C   UNL     1       2.576   7.486  18.965  0.00  0.00    +0.000 A 
ATOM     10  C   UNL     1       3.395   7.400  17.813  0.00  0.00    +0.000 A 
ATOM     11  C   UNL     1       4.010   6.204  17.405  0.00  0.00    +0.000 A 
ATOM     12  H   UNL     1       2.894  10.137  18.467  0.00  0.00    +0.000 HD
ENDROOT
BRANCH   8  13
ATOM     13  C   UNL     1       0.985  10.848  18.639  0.00  0.00    +0.000 A 
ATOM     14  C   UNL     1       1.315  12.114  19.152  0.00  0.00    +0.000 A 
ATOM     15  C   UNL     1       0.392  13.155  19.152  0.00  0.00    +0.000 A 
ATOM     16  C   UNL     1      -0.878  12.951  18.632  0.00  0.00    +0.000 A 
ATOM     17  C   UNL     1      -1.248  11.693  18.129  0.00  0.00    +0.000 A 
ATOM     18  C   UNL     1      -0.321  10.638  18.173  0.00  0.00    +0.000 A 
BRANCH  17  19
ATOM     19  C   UNL     1      -2.563  11.484  17.539  0.00  0.00    +0.000 A 
ATOM     20  C   UNL     1      -2.756  11.091  16.231  0.00  0.00    +0.000 A 
ATOM     21  S   UNL     1      -4.427  10.946  15.894  0.00  0.00    +0.000 S 
ATOM     22  C   UNL     1      -4.778  11.408  17.511  0.00  0.00    +0.000 A 
ATOM     23  C   UNL     1      -6.189  11.529  17.965  0.00  0.00    +0.000 C 
ATOM     24  N   UNL     1      -3.729  11.635  18.277  0.00  0.00    +0.000 NA
ENDBRANCH  17  19
ENDBRANCH   8  13
BRANCH  11  25
ATOM     25  O   UNL     1       4.860   6.443  16.364  0.00  0.00    +0.000 OA
ATOM     26  C   UNL     1       6.210   6.014  16.404  0.00  0.00    +0.000 C 
ENDBRANCH  11  25
BRANCH   1  27
ATOM     27  O   UNL     1       4.273   3.774  18.050  0.00  0.00    +0.000 OA
BRANCH  27  28
ATOM     28  C   UNL     1       3.400   2.788  17.547  0.00  0.00    +0.000 C 
BRANCH  28  29
ATOM     29  C   UNL     1       3.252   1.576  18.455  0.00  0.00    +0.000 C 
BRANCH  29  31
ATOM     30  C   UNL     1       0.973   2.201  18.744  0.00  0.00    +0.000 C 
ATOM     31  O   UNL     1       2.212   1.923  19.371  0.00  0.00    +0.000 OA
ENDBRANCH  29  31
ENDBRANCH  28  29
ENDBRANCH  27  28
ENDBRANCH   1  27
TORSDOF 7
ENDMDL
MODEL 9
REMARK VINA RESULT:      -7.0      1.117      1.186
REMARK  Name = 
REMARK  10 active torsions:
REMARK  status: ('A' for Active; 'I' for Inactive)
REMARK    1  A    between atoms: C_1  and  O_2
REMARK    2  A    between atoms: O_2  and  C_3
REMARK    3  A    between atoms: C_3  and  C_4
REMARK    4  A    between atoms: C_4  and  O_5
REMARK    5  A    between atoms: O_5  and  C_6
REMARK    6  A    between atoms: N_13  and  C_14
REMARK    7  A    between atoms: C_18  and  C_19
REMARK    8  A    between atoms: C_22  and  C_23
REMARK    9  A    between atoms: C_28  and  O_29
REMARK   10  A    between atoms: O_29  and  C_30
REMARK                            x       y       z     vdW  Elec       q    Type
REMARK                         _______ _______ _______ _____ _____    ______ ____
ROOT
ATOM      1  C   UNL     1       6.440   5.073  15.876  0.00  0.00    +0.000 A 
ATOM      2  C   UNL     1       5.277   4.281  16.012  0.00  0.00    +0.000 A 
ATOM      3  C   UNL     1       4.275   4.538  16.944  0.00  0.00    +0.000 A 
ATOM      4  N   UNL     1       3.231   3.702  17.032  0.00  0.00    +0.000 NA
ATOM      5  C   UNL     1       2.286   4.011  17.926  0.00  0.00    +0.000 A 
ATOM      6  N   UNL     1       2.275   5.089  18.710  0.00  0.00    +0.000 NA
ATOM      7  C   UNL     1       3.335   5.928  18.618  0.00  0.00    +0.000 A 
ATOM      8  N   UNL     1       3.317   7.116  19.391  0.00  0.00    +0.000 N 
ATOM      9  C   UNL     1       4.401   5.671  17.750  0.00  0.00    +0.000 A 
ATOM     10  C   UNL     1       5.561   6.474  17.625  0.00  0.00    +0.000 A 
ATOM     11  C   UNL     1       6.585   6.192  16.706  0.00  0.00    +0.000 A 
ATOM     12  H   UNL     1       4.126   7.174  19.997  0.00  0.00    +0.000 HD
ENDROOT
BRANCH   8  13
ATOM     13  C   UNL     1       2.161   7.730  19.916  0.00  0.00    +0.000 A 
ATOM     14  C   UNL     1       1.688   7.392  21.195  0.00  0.00    +0.000 A 
ATOM     15  C   UNL     1       0.575   8.021  21.741  0.00  0.00    +0.000 A 
ATOM     16  C   UNL     1      -0.084   9.006  21.021  0.00  0.00    +0.000 A 
ATOM     17  C   UNL     1       0.349   9.355  19.731  0.00  0.00    +0.000 A 
ATOM     18  C   UNL     1       1.449   8.683  19.173  0.00  0.00    +0.000 A 
BRANCH  17  19
ATOM     19  C   UNL     1      -0.310  10.421  18.988  0.00  0.00    +0.000 A 
ATOM     20  C   UNL     1       0.036  11.752  19.101  0.00  0.00    +0.000 A 
ATOM     21  S   UNL     1      -0.948  12.710  18.080  0.00  0.00    +0.000 S 
ATOM     22  C   UNL     1      -1.757  11.290  17.553  0.00  0.00    +0.000 A 
ATOM     23  C   UNL     1      -2.872  11.384  16.572  0.00  0.00    +0.000 C 
ATOM     24  N   UNL     1      -1.320  10.160  18.073  0.00  0.00    +0.000 NA
ENDBRANCH  17  19
ENDBRANCH   8  13
BRANCH  11  25
ATOM     25  O   UNL     1       7.643   7.029  16.908  0.00  0.00    +0.000 OA
ATOM     26  C   UNL     1       7.505   8.218  17.666  0.00  0.00    +0.000 C 
ENDBRANCH  11  25
BRANCH   1  27
ATOM     27  O   UNL     1       7.267   4.532  14.925  0.00  0.00    +0.000 OA
BRANCH  27  28
ATOM     28  C   UNL     1       6.878   4.644  13.575  0.00  0.00    +0.000 C 
BRANCH  28  29
ATOM     29  C   UNL     1       6.333   3.353  12.982  0.00  0.00    +0.000 C 
BRANCH  29  31
ATOM     30  C   UNL     1       4.429   3.184  11.562  0.00  0.00    +0.000 C 
ATOM     31  O   UNL     1       5.718   3.740  11.752  0.00  0.00    +0.000 OA
ENDBRANCH  29  31
ENDBRANCH  28  29
ENDBRANCH  27  28
ENDBRANCH   1  27
TORSDOF 7
ENDMDL
