MODEL 1
REMARK VINA RESULT:      -6.0      0.000      0.000
REMARK  Name = 
REMARK  6 active torsions:
REMARK  status: ('A' for Active; 'I' for Inactive)
REMARK    1  A    between atoms: C_1  and  C_2
REMARK    2  A    between atoms: C_2  and  N_3
REMARK    3  A    between atoms: N_3  and  S_4
REMARK    4  A    between atoms: S_4  and  C_7
REMARK    5  A    between atoms: C_10  and  C_11
REMARK    6  A    between atoms: C_11  and  N_12
REMARK                            x       y       z     vdW  Elec       q    Type
REMARK                         _______ _______ _______ _____ _____    ______ ____
ROOT
ATOM      1  C   UNL     1       5.711   4.617  17.643  0.00  0.00    +0.000 A 
ATOM      2  C   UNL     1       4.862   4.056  16.691  0.00  0.00    +0.000 A 
ATOM      3  C   UNL     1       3.589   3.626  17.077  0.00  0.00    +0.000 A 
ATOM      4  C   UNL     1       3.158   3.745  18.410  0.00  0.00    +0.000 A 
ATOM      5  C   UNL     1       4.027   4.321  19.350  0.00  0.00    +0.000 A 
ATOM      6  C   UNL     1       5.308   4.737  18.976  0.00  0.00    +0.000 A 
ENDROOT
BRANCH   1   7
ATOM      7  S   UNL     1       7.348   5.141  17.185  0.00  0.00    +0.000 S 
ATOM      8  O   UNL     1       7.329   5.542  15.797  0.00  0.00    +0.000 OA
ATOM      9  O   UNL     1       8.258   4.135  17.690  0.00  0.00    +0.000 OA
BRANCH   7  10
ATOM     10  N   UNL     1       7.552   6.531  18.142  0.00  0.00    +0.000 NA
ATOM     11  H   UNL     1       7.004   6.458  18.999  0.00  0.00    +0.000 HD
BRANCH  10  13
ATOM     12  C   UNL     1       8.293   8.855  18.092  0.00  0.00    +0.000 C 
ATOM     13  C   UNL     1       7.378   7.824  17.455  0.00  0.00    +0.000 C 
ENDBRANCH  10  13
ENDBRANCH   7  10
ENDBRANCH   1   7
BRANCH   4  14
ATOM     14  C   UNL     1       1.755   3.309  18.772  0.00  0.00    +0.000 C 
BRANCH  14  15
ATOM     15  N   UNL     1       1.520   1.882  18.569  0.00  0.00    +0.000 NA
ATOM     16  H   UNL     1       0.513   1.720  18.521  0.00  0.00    +0.000 HD
ATOM     17  H   UNL     1       1.846   1.373  19.390  0.00  0.00    +0.000 HD
ENDBRANCH  14  15
ENDBRANCH   4  14
TORSDOF 5
ENDMDL
MODEL 2
REMARK VINA RESULT:      -6.0      3.176      5.171
REMARK  Name = 
REMARK  6 active torsions:
REMARK  status: ('A' for Active; 'I' for Inactive)
REMARK    1  A    between atoms: C_1  and  C_2
REMARK    2  A    between atoms: C_2  and  N_3
REMARK    3  A    between atoms: N_3  and  S_4
REMARK    4  A    between atoms: S_4  and  C_7
REMARK    5  A    between atoms: C_10  and  C_11
REMARK    6  A    between atoms: C_11  and  N_12
REMARK                            x       y       z     vdW  Elec       q    Type
REMARK                         _______ _______ _______ _____ _____    ______ ____
ROOT
ATOM      1  C   UNL     1       5.808   4.602  17.388  0.00  0.00    +0.000 A 
ATOM      2  C   UNL     1       7.108   4.885  16.973  0.00  0.00    +0.000 A 
ATOM      3  C   UNL     1       7.433   4.781  15.617  0.00  0.00    +0.000 A 
ATOM      4  C   UNL     1       6.471   4.387  14.670  0.00  0.00    +0.000 A 
ATOM      5  C   UNL     1       5.165   4.115  15.111  0.00  0.00    +0.000 A 
ATOM      6  C   UNL     1       4.837   4.200  16.466  0.00  0.00    +0.000 A 
ENDROOT
BRANCH   1   7
ATOM      7  S   UNL     1       5.378   4.694  19.111  0.00  0.00    +0.000 S 
ATOM      8  O   UNL     1       4.086   5.330  19.227  0.00  0.00    +0.000 OA
ATOM      9  O   UNL     1       6.550   5.187  19.802  0.00  0.00    +0.000 OA
BRANCH   7  10
ATOM     10  N   UNL     1       5.206   3.053  19.518  0.00  0.00    +0.000 NA
ATOM     11  H   UNL     1       5.751   2.469  18.884  0.00  0.00    +0.000 HD
BRANCH  10  13
ATOM     12  C   UNL     1       3.486   1.593  18.590  0.00  0.00    +0.000 C 
ATOM     13  C   UNL     1       3.825   2.570  19.702  0.00  0.00    +0.000 C 
ENDBRANCH  10  13
ENDBRANCH   7  10
ENDBRANCH   1   7
BRANCH   4  14
ATOM     14  C   UNL     1       6.855   4.333  13.208  0.00  0.00    +0.000 C 
BRANCH  14  15
ATOM     15  N   UNL     1       6.280   3.192  12.499  0.00  0.00    +0.000 NA
ATOM     16  H   UNL     1       5.524   2.803  13.063  0.00  0.00    +0.000 HD
ATOM     17  H   UNL     1       6.984   2.458  12.428  0.00  0.00    +0.000 HD
ENDBRANCH  14  15
ENDBRANCH   4  14
TORSDOF 5
ENDMDL
MODEL 3
REMARK VINA RESULT:      -5.9      2.244      2.867
REMARK  Name = 
REMARK  6 active torsions:
REMARK  status: ('A' for Active; 'I' for Inactive)
REMARK    1  A    between atoms: C_1  and  C_2
REMARK    2  A    between atoms: C_2  and  N_3
REMARK    3  A    between atoms: N_3  and  S_4
REMARK    4  A    between atoms: S_4  and  C_7
REMARK    5  A    between atoms: C_10  and  C_11
REMARK    6  A    between atoms: C_11  and  N_12
REMARK                            x       y       z     vdW  Elec       q    Type
REMARK                         _______ _______ _______ _____ _____    ______ ____
ROOT
ATOM      1  C   UNL     1       4.895   4.533  18.329  0.00  0.00    +0.000 A 
ATOM      2  C   UNL     1       4.713   3.548  19.298  0.00  0.00    +0.000 A 
ATOM      3  C   UNL     1       3.440   3.003  19.490  0.00  0.00    +0.000 A 
ATOM      4  C   UNL     1       2.342   3.441  18.728  0.00  0.00    +0.000 A 
ATOM      5  C   UNL     1       2.552   4.430  17.752  0.00  0.00    +0.000 A 
ATOM      6  C   UNL     1       3.818   4.991  17.566  0.00  0.00    +0.000 A 
ENDROOT
BRANCH   1   7
ATOM      7  S   UNL     1       6.498   5.266  18.088  0.00  0.00    +0.000 S 
ATOM      8  O   UNL     1       7.270   5.087  19.297  0.00  0.00    +0.000 OA
ATOM      9  O   UNL     1       6.271   6.567  17.498  0.00  0.00    +0.000 OA
BRANCH   7  10
ATOM     10  N   UNL     1       7.160   4.272  16.878  0.00  0.00    +0.000 NA
ATOM     11  H   UNL     1       8.105   3.984  17.131  0.00  0.00    +0.000 HD
BRANCH  10  13
ATOM     12  C   UNL     1       6.048   3.944  14.732  0.00  0.00    +0.000 C 
ATOM     13  C   UNL     1       7.062   4.776  15.497  0.00  0.00    +0.000 C 
ENDBRANCH  10  13
ENDBRANCH   7  10
ENDBRANCH   1   7
BRANCH   4  14
ATOM     14  C   UNL     1       0.993   2.791  18.938  0.00  0.00    +0.000 C 
BRANCH  14  15
ATOM     15  N   UNL     1       0.410   3.073  20.248  0.00  0.00    +0.000 NA
ATOM     16  H   UNL     1       0.282   4.081  20.339  0.00  0.00    +0.000 HD
ATOM     17  H   UNL     1       1.079   2.809  20.970  0.00  0.00    +0.000 HD
ENDBRANCH  14  15
ENDBRANCH   4  14
TORSDOF 5
ENDMDL
MODEL 4
REMARK VINA RESULT:      -5.9      2.700      3.493
REMARK  Name = 
REMARK  6 active torsions:
REMARK  status: ('A' for Active; 'I' for Inactive)
REMARK    1  A    between atoms: C_1  and  C_2
REMARK    2  A    between atoms: C_2  and  N_3
REMARK    3  A    between atoms: N_3  and  S_4
REMARK    4  A    between atoms: S_4  and  C_7
REMARK    5  A    between atoms: C_10  and  C_11
REMARK    6  A    between atoms: C_11  and  N_12
REMARK                            x       y       z     vdW  Elec       q    Type
REMARK                         _______ _______ _______ _____ _____    ______ ____
ROOT
ATOM      1  C   UNL     1       5.687   5.790  17.527  0.00  0.00    +0.000 A 
ATOM      2  C   UNL     1       4.649   6.641  17.153  0.00  0.00    +0.000 A 
ATOM      3  C   UNL     1       3.492   6.698  17.936  0.00  0.00    +0.000 A 
ATOM      4  C   UNL     1       3.359   5.903  19.088  0.00  0.00    +0.000 A 
ATOM      5  C   UNL     1       4.421   5.059  19.451  0.00  0.00    +0.000 A 
ATOM      6  C   UNL     1       5.573   4.984  18.664  0.00  0.00    +0.000 A 
ENDROOT
BRANCH   1   7
ATOM      7  S   UNL     1       7.155   5.675  16.530  0.00  0.00    +0.000 S 
ATOM      8  O   UNL     1       7.885   4.492  16.925  0.00  0.00    +0.000 OA
ATOM      9  O   UNL     1       7.756   6.992  16.528  0.00  0.00    +0.000 OA
BRANCH   7  10
ATOM     10  N   UNL     1       6.508   5.413  14.981  0.00  0.00    +0.000 NA
ATOM     11  H   UNL     1       5.881   6.176  14.722  0.00  0.00    +0.000 HD
BRANCH  10  13
ATOM     12  C   UNL     1       6.072   3.734  13.266  0.00  0.00    +0.000 C 
ATOM     13  C   UNL     1       5.925   4.081  14.736  0.00  0.00    +0.000 C 
ENDBRANCH  10  13
ENDBRANCH   7  10
ENDBRANCH   1   7
BRANCH   4  14
ATOM     14  C   UNL     1       2.109   6.030  19.930  0.00  0.00    +0.000 C 
BRANCH  14  15
ATOM     15  N   UNL     1       2.057   7.264  20.711  0.00  0.00    +0.000 NA
ATOM     16  H   UNL     1       1.432   7.123  21.505  0.00  0.00    +0.000 HD
ATOM     17  H   UNL     1       1.630   7.996  20.144  0.00  0.00    +0.000 HD
ENDBRANCH  14  15
ENDBRANCH   4  14
TORSDOF 5
ENDMDL
MODEL 5
REMARK VINA RESULT:      -5.9      3.009      5.310
REMARK  Name = 
REMARK  6 active torsions:
REMARK  status: ('A' for Active; 'I' for Inactive)
REMARK    1  A    between atoms: C_1  and  C_2
REMARK    2  A    between atoms: C_2  and  N_3
REMARK    3  A    between atoms: N_3  and  S_4
REMARK    4  A    between atoms: S_4  and  C_7
REMARK    5  A    between atoms: C_10  and  C_11
REMARK    6  A    between atoms: C_11  and  N_12
REMARK                            x       y       z     vdW  Elec       q    Type
REMARK                         _______ _______ _______ _____ _____    ______ ____
ROOT
ATOM      1  C   UNL     1       5.850   4.647  17.382  0.00  0.00    +0.000 A 
ATOM      2  C   UNL     1       4.915   4.298  16.411  0.00  0.00    +0.000 A 
ATOM      3  C   UNL     1       5.291   4.299  15.064  0.00  0.00    +0.000 A 
ATOM      4  C   UNL     1       6.595   4.656  14.678  0.00  0.00    +0.000 A 
ATOM      5  C   UNL     1       7.523   4.998  15.675  0.00  0.00    +0.000 A 
ATOM      6  C   UNL     1       7.150   5.015  17.021  0.00  0.00    +0.000 A 
ENDROOT
BRANCH   1   7
ATOM      7  S   UNL     1       5.388   4.685  19.099  0.00  0.00    +0.000 S 
ATOM      8  O   UNL     1       4.098   5.327  19.212  0.00  0.00    +0.000 OA
ATOM      9  O   UNL     1       6.549   5.145  19.829  0.00  0.00    +0.000 OA
BRANCH   7  10
ATOM     10  N   UNL     1       5.195   3.032  19.447  0.00  0.00    +0.000 NA
ATOM     11  H   UNL     1       5.664   2.463  18.743  0.00  0.00    +0.000 HD
BRANCH  10  13
ATOM     12  C   UNL     1       3.330   1.724  18.577  0.00  0.00    +0.000 C 
ATOM     13  C   UNL     1       3.819   2.583  19.729  0.00  0.00    +0.000 C 
ENDBRANCH  10  13
ENDBRANCH   7  10
ENDBRANCH   1   7
BRANCH   4  14
ATOM     14  C   UNL     1       6.971   4.600  13.214  0.00  0.00    +0.000 C 
BRANCH  14  15
ATOM     15  N   UNL     1       8.017   5.551  12.846  0.00  0.00    +0.000 NA
ATOM     16  H   UNL     1       8.408   5.954  13.698  0.00  0.00    +0.000 HD
ATOM     17  H   UNL     1       7.594   6.327  12.337  0.00  0.00    +0.000 HD
ENDBRANCH  14  15
ENDBRANCH   4  14
TORSDOF 5
ENDMDL
MODEL 6
REMARK VINA RESULT:      -5.9      2.590      3.041
REMARK  Name = 
REMARK  6 active torsions:
REMARK  status: ('A' for Active; 'I' for Inactive)
REMARK    1  A    between atoms: C_1  and  C_2
REMARK    2  A    between atoms: C_2  and  N_3
REMARK    3  A    between atoms: N_3  and  S_4
REMARK    4  A    between atoms: S_4  and  C_7
REMARK    5  A    between atoms: C_10  and  C_11
REMARK    6  A    between atoms: C_11  and  N_12
REMARK                            x       y       z     vdW  Elec       q    Type
REMARK                         _______ _______ _______ _____ _____    ______ ____
ROOT
ATOM      1  C   UNL     1       4.299   4.982  17.319  0.00  0.00    +0.000 A 
ATOM      2  C   UNL     1       4.265   3.592  17.231  0.00  0.00    +0.000 A 
ATOM      3  C   UNL     1       3.159   2.900  17.736  0.00  0.00    +0.000 A 
ATOM      4  C   UNL     1       2.089   3.586  18.337  0.00  0.00    +0.000 A 
ATOM      5  C   UNL     1       2.142   4.988  18.407  0.00  0.00    +0.000 A 
ATOM      6  C   UNL     1       3.251   5.685  17.920  0.00  0.00    +0.000 A 
ENDROOT
BRANCH   1   7
ATOM      7  S   UNL     1       5.709   5.883  16.715  0.00  0.00    +0.000 S 
ATOM      8  O   UNL     1       6.491   6.322  17.847  0.00  0.00    +0.000 OA
ATOM      9  O   UNL     1       5.212   6.802  15.713  0.00  0.00    +0.000 OA
BRANCH   7  10
ATOM     10  N   UNL     1       6.578   4.670  15.901  0.00  0.00    +0.000 NA
ATOM     11  H   UNL     1       7.440   4.453  16.401  0.00  0.00    +0.000 HD
BRANCH  10  13
ATOM     12  C   UNL     1       6.001   3.835  13.683  0.00  0.00    +0.000 C 
ATOM     13  C   UNL     1       6.787   4.878  14.456  0.00  0.00    +0.000 C 
ENDBRANCH  10  13
ENDBRANCH   7  10
ENDBRANCH   1   7
BRANCH   4  14
ATOM     14  C   UNL     1       0.893   2.801  18.827  0.00  0.00    +0.000 C 
BRANCH  14  15
ATOM     15  N   UNL     1       0.488   3.149  20.187  0.00  0.00    +0.000 NA
ATOM     16  H   UNL     1      -0.516   3.330  20.193  0.00  0.00    +0.000 HD
ATOM     17  H   UNL     1       0.933   4.028  20.450  0.00  0.00    +0.000 HD
ENDBRANCH  14  15
ENDBRANCH   4  14
TORSDOF 5
ENDMDL
MODEL 7
REMARK VINA RESULT:      -5.8      1.994      2.689
REMARK  Name = 
REMARK  6 active torsions:
REMARK  status: ('A' for Active; 'I' for Inactive)
REMARK    1  A    between atoms: C_1  and  C_2
REMARK    2  A    between atoms: C_2  and  N_3
REMARK    3  A    between atoms: N_3  and  S_4
REMARK    4  A    between atoms: S_4  and  C_7
REMARK    5  A    between atoms: C_10  and  C_11
REMARK    6  A    between atoms: C_11  and  N_12
REMARK                            x       y       z     vdW  Elec       q    Type
REMARK                         _______ _______ _______ _____ _____    ______ ____
ROOT
ATOM      1  C   UNL     1       5.517   5.080  17.550  0.00  0.00    +0.000 A 
ATOM      2  C   UNL     1       5.090   3.760  17.670  0.00  0.00    +0.000 A 
ATOM      3  C   UNL     1       3.727   3.492  17.835  0.00  0.00    +0.000 A 
ATOM      4  C   UNL     1       2.787   4.536  17.889  0.00  0.00    +0.000 A 
ATOM      5  C   UNL     1       3.240   5.859  17.758  0.00  0.00    +0.000 A 
ATOM      6  C   UNL     1       4.601   6.135  17.610  0.00  0.00    +0.000 A 
ENDROOT
BRANCH   1   7
ATOM      7  S   UNL     1       7.248   5.449  17.373  0.00  0.00    +0.000 S 
ATOM      8  O   UNL     1       7.954   4.887  18.502  0.00  0.00    +0.000 OA
ATOM      9  O   UNL     1       7.337   6.850  17.021  0.00  0.00    +0.000 OA
BRANCH   7  10
ATOM     10  N   UNL     1       7.657   4.554  15.986  0.00  0.00    +0.000 NA
ATOM     11  H   UNL     1       8.669   4.437  15.924  0.00  0.00    +0.000 HD
BRANCH  10  13
ATOM     12  C   UNL     1       6.208   3.878  14.145  0.00  0.00    +0.000 C 
ATOM     13  C   UNL     1       7.050   5.002  14.720  0.00  0.00    +0.000 C 
ENDBRANCH  10  13
ENDBRANCH   7  10
ENDBRANCH   1   7
BRANCH   4  14
ATOM     14  C   UNL     1       1.318   4.198  18.023  0.00  0.00    +0.000 C 
BRANCH  14  15
ATOM     15  N   UNL     1       1.067   2.775  18.240  0.00  0.00    +0.000 NA
ATOM     16  H   UNL     1       1.562   2.480  19.082  0.00  0.00    +0.000 HD
ATOM     17  H   UNL     1       1.479   2.246  17.472  0.00  0.00    +0.000 HD
ENDBRANCH  14  15
ENDBRANCH   4  14
TORSDOF 5
ENDMDL
MODEL 8
REMARK VINA RESULT:      -5.8      2.028      2.256
REMARK  Name = 
REMARK  6 active torsions:
REMARK  status: ('A' for Active; 'I' for Inactive)
REMARK    1  A    between atoms: C_1  and  C_2
REMARK    2  A    between atoms: C_2  and  N_3
REMARK    3  A    between atoms: N_3  and  S_4
REMARK    4  A    between atoms: S_4  and  C_7
REMARK    5  A    between atoms: C_10  and  C_11
REMARK    6  A    between atoms: C_11  and  N_12
REMARK                            x       y       z     vdW  Elec       q    Type
REMARK                         _______ _______ _______ _____ _____    ______ ____
ROOT
ATOM      1  C   UNL     1       5.572   5.439  17.488  0.00  0.00    +0.000 A 
ATOM      2  C   UNL     1       5.519   4.534  18.546  0.00  0.00    +0.000 A 
ATOM      3  C   UNL     1       4.440   4.578  19.434  0.00  0.00    +0.000 A 
ATOM      4  C   UNL     1       3.414   5.527  19.278  0.00  0.00    +0.000 A 
ATOM      5  C   UNL     1       3.483   6.424  18.199  0.00  0.00    +0.000 A 
ATOM      6  C   UNL     1       4.568   6.397  17.318  0.00  0.00    +0.000 A 
ENDROOT
BRANCH   1   7
ATOM      7  S   UNL     1       6.951   5.425  16.365  0.00  0.00    +0.000 S 
ATOM      8  O   UNL     1       6.441   5.359  15.015  0.00  0.00    +0.000 OA
ATOM      9  O   UNL     1       7.896   4.461  16.886  0.00  0.00    +0.000 OA
BRANCH   7  10
ATOM     10  N   UNL     1       7.619   6.969  16.610  0.00  0.00    +0.000 NA
ATOM     11  H   UNL     1       8.428   7.108  16.005  0.00  0.00    +0.000 HD
BRANCH  10  13
ATOM     12  C   UNL     1       8.249   8.822  18.066  0.00  0.00    +0.000 C 
ATOM     13  C   UNL     1       7.876   7.352  18.011  0.00  0.00    +0.000 C 
ENDBRANCH  10  13
ENDBRANCH   7  10
ENDBRANCH   1   7
BRANCH   4  14
ATOM     14  C   UNL     1       2.242   5.509  20.234  0.00  0.00    +0.000 C 
BRANCH  14  15
ATOM     15  N   UNL     1       1.900   6.828  20.759  0.00  0.00    +0.000 NA
ATOM     16  H   UNL     1       1.737   7.460  19.975  0.00  0.00    +0.000 HD
ATOM     17  H   UNL     1       2.705   7.204  21.259  0.00  0.00    +0.000 HD
ENDBRANCH  14  15
ENDBRANCH   4  14
TORSDOF 5
ENDMDL
MODEL 9
REMARK VINA RESULT:      -5.8      2.217      3.011
REMARK  Name = 
REMARK  6 active torsions:
REMARK  status: ('A' for Active; 'I' for Inactive)
REMARK    1  A    between atoms: C_1  and  C_2
REMARK    2  A    between atoms: C_2  and  N_3
REMARK    3  A    between atoms: N_3  and  S_4
REMARK    4  A    between atoms: S_4  and  C_7
REMARK    5  A    between atoms: C_10  and  C_11
REMARK    6  A    between atoms: C_11  and  N_12
REMARK                            x       y       z     vdW  Elec       q    Type
REMARK                         _______ _______ _______ _____ _____    ______ ____
ROOT
ATOM      1  C   UNL     1       5.004   5.121  17.051  0.00  0.00    +0.000 A 
ATOM      2  C   UNL     1       4.075   5.988  17.622  0.00  0.00    +0.000 A 
ATOM      3  C   UNL     1       2.833   5.492  18.028  0.00  0.00    +0.000 A 
ATOM      4  C   UNL     1       2.506   4.134  17.860  0.00  0.00    +0.000 A 
ATOM      5  C   UNL     1       3.462   3.277  17.289  0.00  0.00    +0.000 A 
ATOM      6  C   UNL     1       4.699   3.770  16.866  0.00  0.00    +0.000 A 
ENDROOT
BRANCH   1   7
ATOM      7  S   UNL     1       6.578   5.735  16.496  0.00  0.00    +0.000 S 
ATOM      8  O   UNL     1       7.591   4.756  16.818  0.00  0.00    +0.000 OA
ATOM      9  O   UNL     1       6.662   7.111  16.935  0.00  0.00    +0.000 OA
BRANCH   7  10
ATOM     10  N   UNL     1       6.372   5.755  14.808  0.00  0.00    +0.000 NA
ATOM     11  H   UNL     1       5.381   5.801  14.571  0.00  0.00    +0.000 HD
BRANCH  10  13
ATOM     12  C   UNL     1       6.096   3.787  13.395  0.00  0.00    +0.000 C 
ATOM     13  C   UNL     1       7.098   4.719  14.051  0.00  0.00    +0.000 C 
ENDBRANCH  10  13
ENDBRANCH   7  10
ENDBRANCH   1   7
BRANCH   4  14
ATOM     14  C   UNL     1       1.169   3.632  18.356  0.00  0.00    +0.000 C 
BRANCH  14  15
ATOM     15  N   UNL     1       1.261   2.389  19.119  0.00  0.00    +0.000 NA
ATOM     16  H   UNL     1       0.326   1.993  19.214  0.00  0.00    +0.000 HD
ATOM     17  H   UNL     1       1.571   2.606  20.066  0.00  0.00    +0.000 HD
ENDBRANCH  14  15
ENDBRANCH   4  14
TORSDOF 5
ENDMDL
