MODEL 1
REMARK VINA RESULT:      -7.3      0.000      0.000
REMARK  Name = 
REMARK  8 active torsions:
REMARK  status: ('A' for Active; 'I' for Inactive)
REMARK    1  A    between atoms: C_1  and  C_2
REMARK    2  A    between atoms: C_2  and  C_3
REMARK    3  A    between atoms: C_2  and  C_4
REMARK    4  A    between atoms: C_7  and  O_8
REMARK    5  A    between atoms: C_9  and  C_10
REMARK    6  A    between atoms: N_12  and  C_13
REMARK    7  A    between atoms: C_13  and  C_14
REMARK    8  A    between atoms: N_18  and  C_19
REMARK                            x       y       z     vdW  Elec       q    Type
REMARK                         _______ _______ _______ _____ _____    ______ ____
ROOT
ATOM      1  C   UNL     1       6.403   4.589  14.866  0.00  0.00    +0.000 A 
ATOM      2  C   UNL     1       7.525   4.671  15.700  0.00  0.00    +0.000 A 
ATOM      3  C   UNL     1       7.388   4.630  17.089  0.00  0.00    +0.000 A 
ATOM      4  C   UNL     1       6.123   4.501  17.666  0.00  0.00    +0.000 A 
ATOM      5  C   UNL     1       4.979   4.398  16.863  0.00  0.00    +0.000 A 
ATOM      6  C   UNL     1       5.138   4.439  15.463  0.00  0.00    +0.000 A 
ENDROOT
BRANCH   5   7
ATOM      7  C   UNL     1       3.583   4.265  17.399  0.00  0.00    +0.000 C 
ATOM      8  O   UNL     1       2.811   3.430  16.937  0.00  0.00    +0.000 OA
ATOM      9  N   UNL     1       3.211   5.114  18.413  0.00  0.00    +0.000 N 
ATOM     10  H   UNL     1       3.888   5.790  18.767  0.00  0.00    +0.000 HD
BRANCH   9  11
ATOM     11  C   UNL     1       1.897   5.084  18.999  0.00  0.00    +0.000 C 
BRANCH  11  12
ATOM     12  C   UNL     1       1.883   4.193  20.191  0.00  0.00    +0.000 A 
ATOM     13  N   UNL     1       2.407   4.422  21.383  0.00  0.00    +0.000 NA
ATOM     14  N   UNL     1       2.161   3.328  22.182  0.00  0.00    +0.000 NA
ATOM     15  C   UNL     1       1.493   2.455  21.464  0.00  0.00    +0.000 A 
ATOM     16  N   UNL     1       1.296   2.953  20.214  0.00  0.00    +0.000 N 
ATOM     17  C   UNL     1       0.604   2.297  19.138  0.00  0.00    +0.000 C 
ENDBRANCH  11  12
ENDBRANCH   9  11
ENDBRANCH   5   7
BRANCH   1  19
ATOM     18  C   UNL     1       7.933   5.175  12.955  0.00  0.00    +0.000 C 
ATOM     19  C   UNL     1       6.528   4.710  13.354  0.00  0.00    +0.000 C 
ATOM     20  C   UNL     1       6.176   3.410  12.625  0.00  0.00    +0.000 C 
ENDBRANCH   1  19
BRANCH   4  21
ATOM     21  O   UNL     1       6.025   4.483  19.033  0.00  0.00    +0.000 OA
ATOM     22  H   UNL     1       5.106   4.651  19.301  0.00  0.00    +0.000 HD
ENDBRANCH   4  21
TORSDOF 5
ENDMDL
MODEL 2
REMARK VINA RESULT:      -7.2      1.907      3.066
REMARK  Name = 
REMARK  8 active torsions:
REMARK  status: ('A' for Active; 'I' for Inactive)
REMARK    1  A    between atoms: C_1  and  C_2
REMARK    2  A    between atoms: C_2  and  C_3
REMARK    3  A    between atoms: C_2  and  C_4
REMARK    4  A    between atoms: C_7  and  O_8
REMARK    5  A    between atoms: C_9  and  C_10
REMARK    6  A    between atoms: N_12  and  C_13
REMARK    7  A    between atoms: C_13  and  C_14
REMARK    8  A    between atoms: N_18  and  C_19
REMARK                            x       y       z     vdW  Elec       q    Type
REMARK                         _______ _______ _______ _____ _____    ______ ____
ROOT
ATOM      1  C   UNL     1       5.780   3.513  12.951  0.00  0.00    +0.000 A 
ATOM      2  C   UNL     1       6.963   4.172  12.593  0.00  0.00    +0.000 A 
ATOM      3  C   UNL     1       7.613   5.016  13.496  0.00  0.00    +0.000 A 
ATOM      4  C   UNL     1       7.089   5.211  14.776  0.00  0.00    +0.000 A 
ATOM      5  C   UNL     1       5.917   4.555  15.175  0.00  0.00    +0.000 A 
ATOM      6  C   UNL     1       5.277   3.704  14.251  0.00  0.00    +0.000 A 
ENDROOT
BRANCH   5   7
ATOM      7  C   UNL     1       5.282   4.714  16.527  0.00  0.00    +0.000 C 
ATOM      8  O   UNL     1       4.780   5.783  16.862  0.00  0.00    +0.000 OA
ATOM      9  N   UNL     1       5.295   3.625  17.363  0.00  0.00    +0.000 N 
ATOM     10  H   UNL     1       5.721   2.757  17.040  0.00  0.00    +0.000 HD
BRANCH   9  11
ATOM     11  C   UNL     1       4.725   3.662  18.684  0.00  0.00    +0.000 C 
BRANCH  11  12
ATOM     12  C   UNL     1       3.294   3.252  18.642  0.00  0.00    +0.000 A 
ATOM     13  N   UNL     1       2.798   2.070  18.323  0.00  0.00    +0.000 NA
ATOM     14  N   UNL     1       1.425   2.138  18.415  0.00  0.00    +0.000 NA
ATOM     15  C   UNL     1       1.113   3.357  18.787  0.00  0.00    +0.000 A 
ATOM     16  N   UNL     1       2.249   4.088  18.941  0.00  0.00    +0.000 N 
ATOM     17  C   UNL     1       2.323   5.467  19.343  0.00  0.00    +0.000 C 
ENDBRANCH  11  12
ENDBRANCH   9  11
ENDBRANCH   5   7
BRANCH   1  19
ATOM     18  C   UNL     1       4.134   3.513  11.047  0.00  0.00    +0.000 C 
ATOM     19  C   UNL     1       5.019   2.651  11.954  0.00  0.00    +0.000 C 
ATOM     20  C   UNL     1       5.942   1.769  11.108  0.00  0.00    +0.000 C 
ENDBRANCH   1  19
BRANCH   4  21
ATOM     21  O   UNL     1       7.744   6.061  15.629  0.00  0.00    +0.000 OA
ATOM     22  H   UNL     1       8.325   5.552  16.220  0.00  0.00    +0.000 HD
ENDBRANCH   4  21
TORSDOF 5
ENDMDL
MODEL 3
REMARK VINA RESULT:      -7.1      1.181      1.384
REMARK  Name = 
REMARK  8 active torsions:
REMARK  status: ('A' for Active; 'I' for Inactive)
REMARK    1  A    between atoms: C_1  and  C_2
REMARK    2  A    between atoms: C_2  and  C_3
REMARK    3  A    between atoms: C_2  and  C_4
REMARK    4  A    between atoms: C_7  and  O_8
REMARK    5  A    between atoms: C_9  and  C_10
REMARK    6  A    between atoms: N_12  and  C_13
REMARK    7  A    between atoms: C_13  and  C_14
REMARK    8  A    between atoms: N_18  and  C_19
REMARK                            x       y       z     vdW  Elec       q    Type
REMARK                         _______ _______ _______ _____ _____    ______ ____
ROOT
ATOM      1  C   UNL     1       6.491   4.584  14.768  0.00  0.00    +0.000 A 
ATOM      2  C   UNL     1       7.496   5.125  15.581  0.00  0.00    +0.000 A 
ATOM      3  C   UNL     1       7.399   5.066  16.972  0.00  0.00    +0.000 A 
ATOM      4  C   UNL     1       6.295   4.458  17.574  0.00  0.00    +0.000 A 
ATOM      5  C   UNL     1       5.279   3.891  16.794  0.00  0.00    +0.000 A 
ATOM      6  C   UNL     1       5.395   3.958  15.390  0.00  0.00    +0.000 A 
ENDROOT
BRANCH   5   7
ATOM      7  C   UNL     1       4.056   3.228  17.357  0.00  0.00    +0.000 C 
ATOM      8  O   UNL     1       2.933   3.629  17.064  0.00  0.00    +0.000 OA
ATOM      9  N   UNL     1       4.247   2.169  18.210  0.00  0.00    +0.000 N 
ATOM     10  H   UNL     1       5.198   1.868  18.422  0.00  0.00    +0.000 HD
BRANCH   9  11
ATOM     11  C   UNL     1       3.151   1.461  18.817  0.00  0.00    +0.000 C 
BRANCH  11  12
ATOM     12  C   UNL     1       2.671   2.188  20.025  0.00  0.00    +0.000 A 
ATOM     13  N   UNL     1       3.304   2.364  21.171  0.00  0.00    +0.000 NA
ATOM     14  N   UNL     1       2.489   3.093  22.008  0.00  0.00    +0.000 NA
ATOM     15  C   UNL     1       1.378   3.347  21.357  0.00  0.00    +0.000 A 
ATOM     16  N   UNL     1       1.447   2.801  20.114  0.00  0.00    +0.000 N 
ATOM     17  C   UNL     1       0.429   2.865  19.100  0.00  0.00    +0.000 C 
ENDBRANCH  11  12
ENDBRANCH   9  11
ENDBRANCH   5   7
BRANCH   1  19
ATOM     18  C   UNL     1       7.905   5.242  12.792  0.00  0.00    +0.000 C 
ATOM     19  C   UNL     1       6.543   4.709  13.252  0.00  0.00    +0.000 C 
ATOM     20  C   UNL     1       6.224   3.392  12.538  0.00  0.00    +0.000 C 
ENDBRANCH   1  19
BRANCH   4  21
ATOM     21  O   UNL     1       6.226   4.435  18.942  0.00  0.00    +0.000 OA
ATOM     22  H   UNL     1       5.555   3.791  19.228  0.00  0.00    +0.000 HD
ENDBRANCH   4  21
TORSDOF 5
ENDMDL
MODEL 4
REMARK VINA RESULT:      -7.0      2.342      4.175
REMARK  Name = 
REMARK  8 active torsions:
REMARK  status: ('A' for Active; 'I' for Inactive)
REMARK    1  A    between atoms: C_1  and  C_2
REMARK    2  A    between atoms: C_2  and  C_3
REMARK    3  A    between atoms: C_2  and  C_4
REMARK    4  A    between atoms: C_7  and  O_8
REMARK    5  A    between atoms: C_9  and  C_10
REMARK    6  A    between atoms: N_12  and  C_13
REMARK    7  A    between atoms: C_13  and  C_14
REMARK    8  A    between atoms: N_18  and  C_19
REMARK                            x       y       z     vdW  Elec       q    Type
REMARK                         _______ _______ _______ _____ _____    ______ ____
ROOT
ATOM      1  C   UNL     1       6.093   3.439  12.349  0.00  0.00    +0.000 A 
ATOM      2  C   UNL     1       7.016   4.029  11.476  0.00  0.00    +0.000 A 
ATOM      3  C   UNL     1       7.936   4.972  11.938  0.00  0.00    +0.000 A 
ATOM      4  C   UNL     1       7.950   5.337  13.286  0.00  0.00    +0.000 A 
ATOM      5  C   UNL     1       7.054   4.755  14.193  0.00  0.00    +0.000 A 
ATOM      6  C   UNL     1       6.135   3.802  13.709  0.00  0.00    +0.000 A 
ENDROOT
BRANCH   5   7
ATOM      7  C   UNL     1       6.996   5.094  15.654  0.00  0.00    +0.000 C 
ATOM      8  O   UNL     1       7.465   6.148  16.072  0.00  0.00    +0.000 OA
ATOM      9  N   UNL     1       6.407   4.180  16.493  0.00  0.00    +0.000 N 
ATOM     10  H   UNL     1       6.028   3.319  16.100  0.00  0.00    +0.000 HD
BRANCH   9  11
ATOM     11  C   UNL     1       6.302   4.393  17.912  0.00  0.00    +0.000 C 
BRANCH  11  12
ATOM     12  C   UNL     1       4.892   4.219  18.358  0.00  0.00    +0.000 A 
ATOM     13  N   UNL     1       4.339   3.151  18.905  0.00  0.00    +0.000 NA
ATOM     14  N   UNL     1       3.014   3.430  19.157  0.00  0.00    +0.000 NA
ATOM     15  C   UNL     1       2.786   4.660  18.759  0.00  0.00    +0.000 A 
ATOM     16  N   UNL     1       3.931   5.192  18.254  0.00  0.00    +0.000 N 
ATOM     17  C   UNL     1       4.087   6.519  17.721  0.00  0.00    +0.000 C 
ENDBRANCH  11  12
ENDBRANCH   9  11
ENDBRANCH   5   7
BRANCH   1  19
ATOM     18  C   UNL     1       3.995   3.189  10.982  0.00  0.00    +0.000 C 
ATOM     19  C   UNL     1       5.035   2.467  11.848  0.00  0.00    +0.000 C 
ATOM     20  C   UNL     1       5.633   1.285  11.079  0.00  0.00    +0.000 C 
ENDBRANCH   1  19
BRANCH   4  21
ATOM     21  O   UNL     1       8.855   6.280  13.700  0.00  0.00    +0.000 OA
ATOM     22  H   UNL     1       9.714   5.858  13.875  0.00  0.00    +0.000 HD
ENDBRANCH   4  21
TORSDOF 5
ENDMDL
MODEL 5
REMARK VINA RESULT:      -7.0      2.327      3.675
REMARK  Name = 
REMARK  8 active torsions:
REMARK  status: ('A' for Active; 'I' for Inactive)
REMARK    1  A    between atoms: C_1  and  C_2
REMARK    2  A    between atoms: C_2  and  C_3
REMARK    3  A    between atoms: C_2  and  C_4
REMARK    4  A    between atoms: C_7  and  O_8
REMARK    5  A    between atoms: C_9  and  C_10
REMARK    6  A    between atoms: N_12  and  C_13
REMARK    7  A    between atoms: C_13  and  C_14
REMARK    8  A    between atoms: N_18  and  C_19
REMARK                            x       y       z     vdW  Elec       q    Type
REMARK                         _______ _______ _______ _____ _____    ______ ____
ROOT
ATOM      1  C   UNL     1       5.904   3.424  12.439  0.00  0.00    +0.000 A 
ATOM      2  C   UNL     1       6.982   3.940  11.708  0.00  0.00    +0.000 A 
ATOM      3  C   UNL     1       7.867   4.852  12.285  0.00  0.00    +0.000 A 
ATOM      4  C   UNL     1       7.690   5.260  13.609  0.00  0.00    +0.000 A 
ATOM      5  C   UNL     1       6.634   4.752  14.377  0.00  0.00    +0.000 A 
ATOM      6  C   UNL     1       5.752   3.829  13.779  0.00  0.00    +0.000 A 
ENDROOT
BRANCH   5   7
ATOM      7  C   UNL     1       6.367   5.142  15.802  0.00  0.00    +0.000 C 
ATOM      8  O   UNL     1       7.292   5.402  16.565  0.00  0.00    +0.000 OA
ATOM      9  N   UNL     1       5.057   5.187  16.211  0.00  0.00    +0.000 N 
ATOM     10  H   UNL     1       4.321   4.965  15.541  0.00  0.00    +0.000 HD
BRANCH   9  11
ATOM     11  C   UNL     1       4.680   5.539  17.554  0.00  0.00    +0.000 C 
BRANCH  11  12
ATOM     12  C   UNL     1       4.537   4.314  18.389  0.00  0.00    +0.000 A 
ATOM     13  N   UNL     1       5.435   3.767  19.189  0.00  0.00    +0.000 NA
ATOM     14  N   UNL     1       4.879   2.646  19.762  0.00  0.00    +0.000 NA
ATOM     15  C   UNL     1       3.655   2.530  19.301  0.00  0.00    +0.000 A 
ATOM     16  N   UNL     1       3.398   3.551  18.440  0.00  0.00    +0.000 N 
ATOM     17  C   UNL     1       2.166   3.775  17.732  0.00  0.00    +0.000 C 
ENDBRANCH  11  12
ENDBRANCH   9  11
ENDBRANCH   5   7
BRANCH   1  19
ATOM     18  C   UNL     1       3.901   3.268  10.924  0.00  0.00    +0.000 C 
ATOM     19  C   UNL     1       4.887   2.489  11.802  0.00  0.00    +0.000 C 
ATOM     20  C   UNL     1       5.541   1.365  10.992  0.00  0.00    +0.000 C 
ENDBRANCH   1  19
BRANCH   4  21
ATOM     21  O   UNL     1       8.568   6.171  14.136  0.00  0.00    +0.000 OA
ATOM     22  H   UNL     1       9.439   5.756  14.261  0.00  0.00    +0.000 HD
ENDBRANCH   4  21
TORSDOF 5
ENDMDL
MODEL 6
REMARK VINA RESULT:      -7.0      2.462      4.156
REMARK  Name = 
REMARK  8 active torsions:
REMARK  status: ('A' for Active; 'I' for Inactive)
REMARK    1  A    between atoms: C_1  and  C_2
REMARK    2  A    between atoms: C_2  and  C_3
REMARK    3  A    between atoms: C_2  and  C_4
REMARK    4  A    between atoms: C_7  and  O_8
REMARK    5  A    between atoms: C_9  and  C_10
REMARK    6  A    between atoms: N_12  and  C_13
REMARK    7  A    between atoms: C_13  and  C_14
REMARK    8  A    between atoms: N_18  and  C_19
REMARK                            x       y       z     vdW  Elec       q    Type
REMARK                         _______ _______ _______ _____ _____    ______ ____
ROOT
ATOM      1  C   UNL     1       6.074   3.449  12.371  0.00  0.00    +0.000 A 
ATOM      2  C   UNL     1       6.995   4.029  11.489  0.00  0.00    +0.000 A 
ATOM      3  C   UNL     1       7.926   4.966  11.941  0.00  0.00    +0.000 A 
ATOM      4  C   UNL     1       7.953   5.335  13.288  0.00  0.00    +0.000 A 
ATOM      5  C   UNL     1       7.059   4.763  14.203  0.00  0.00    +0.000 A 
ATOM      6  C   UNL     1       6.128   3.816  13.728  0.00  0.00    +0.000 A 
ENDROOT
BRANCH   5   7
ATOM      7  C   UNL     1       7.014   5.108  15.663  0.00  0.00    +0.000 C 
ATOM      8  O   UNL     1       7.454   6.180  16.069  0.00  0.00    +0.000 OA
ATOM      9  N   UNL     1       6.472   4.178  16.516  0.00  0.00    +0.000 N 
ATOM     10  H   UNL     1       6.116   3.303  16.134  0.00  0.00    +0.000 HD
BRANCH   9  11
ATOM     11  C   UNL     1       6.384   4.395  17.936  0.00  0.00    +0.000 C 
BRANCH  11  12
ATOM     12  C   UNL     1       5.023   4.875  18.303  0.00  0.00    +0.000 A 
ATOM     13  N   UNL     1       4.491   6.063  18.071  0.00  0.00    +0.000 NA
ATOM     14  N   UNL     1       3.213   6.072  18.583  0.00  0.00    +0.000 NA
ATOM     15  C   UNL     1       2.991   4.894  19.117  0.00  0.00    +0.000 A 
ATOM     16  N   UNL     1       4.094   4.113  18.964  0.00  0.00    +0.000 N 
ATOM     17  C   UNL     1       4.241   2.754  19.412  0.00  0.00    +0.000 C 
ENDBRANCH  11  12
ENDBRANCH   9  11
ENDBRANCH   5   7
BRANCH   1  19
ATOM     18  C   UNL     1       3.967   3.210  11.016  0.00  0.00    +0.000 C 
ATOM     19  C   UNL     1       5.005   2.484  11.880  0.00  0.00    +0.000 C 
ATOM     20  C   UNL     1       5.588   1.292  11.115  0.00  0.00    +0.000 C 
ENDBRANCH   1  19
BRANCH   4  21
ATOM     21  O   UNL     1       8.868   6.272  13.692  0.00  0.00    +0.000 OA
ATOM     22  H   UNL     1       9.733   5.850  13.833  0.00  0.00    +0.000 HD
ENDBRANCH   4  21
TORSDOF 5
ENDMDL
MODEL 7
REMARK VINA RESULT:      -6.9      1.614      2.285
REMARK  Name = 
REMARK  8 active torsions:
REMARK  status: ('A' for Active; 'I' for Inactive)
REMARK    1  A    between atoms: C_1  and  C_2
REMARK    2  A    between atoms: C_2  and  C_3
REMARK    3  A    between atoms: C_2  and  C_4
REMARK    4  A    between atoms: C_7  and  O_8
REMARK    5  A    between atoms: C_9  and  C_10
REMARK    6  A    between atoms: N_12  and  C_13
REMARK    7  A    between atoms: C_13  and  C_14
REMARK    8  A    between atoms: N_18  and  C_19
REMARK                            x       y       z     vdW  Elec       q    Type
REMARK                         _______ _______ _______ _____ _____    ______ ____
ROOT
ATOM      1  C   UNL     1       5.982   4.841  14.927  0.00  0.00    +0.000 A 
ATOM      2  C   UNL     1       5.446   6.129  14.806  0.00  0.00    +0.000 A 
ATOM      3  C   UNL     1       4.840   6.757  15.896  0.00  0.00    +0.000 A 
ATOM      4  C   UNL     1       4.766   6.106  17.129  0.00  0.00    +0.000 A 
ATOM      5  C   UNL     1       5.307   4.824  17.293  0.00  0.00    +0.000 A 
ATOM      6  C   UNL     1       5.917   4.206  16.182  0.00  0.00    +0.000 A 
ENDROOT
BRANCH   5   7
ATOM      7  C   UNL     1       5.263   4.050  18.579  0.00  0.00    +0.000 C 
ATOM      8  O   UNL     1       5.907   4.420  19.556  0.00  0.00    +0.000 OA
ATOM      9  N   UNL     1       4.486   2.918  18.610  0.00  0.00    +0.000 N 
ATOM     10  H   UNL     1       3.966   2.651  17.775  0.00  0.00    +0.000 HD
BRANCH   9  11
ATOM     11  C   UNL     1       4.374   2.093  19.783  0.00  0.00    +0.000 C 
BRANCH  11  12
ATOM     12  C   UNL     1       3.126   2.417  20.527  0.00  0.00    +0.000 A 
ATOM     13  N   UNL     1       2.991   2.669  21.817  0.00  0.00    +0.000 NA
ATOM     14  N   UNL     1       1.661   2.915  22.074  0.00  0.00    +0.000 NA
ATOM     15  C   UNL     1       1.011   2.810  20.938  0.00  0.00    +0.000 A 
ATOM     16  N   UNL     1       1.886   2.500  19.944  0.00  0.00    +0.000 N 
ATOM     17  C   UNL     1       1.561   2.304  18.557  0.00  0.00    +0.000 C 
ENDBRANCH  11  12
ENDBRANCH   9  11
ENDBRANCH   5   7
BRANCH   1  19
ATOM     18  C   UNL     1       5.473   3.618  12.787  0.00  0.00    +0.000 C 
ATOM     19  C   UNL     1       6.576   4.112  13.730  0.00  0.00    +0.000 C 
ATOM     20  C   UNL     1       7.586   4.967  12.959  0.00  0.00    +0.000 C 
ENDBRANCH   1  19
BRANCH   4  21
ATOM     21  O   UNL     1       4.148   6.746  18.172  0.00  0.00    +0.000 OA
ATOM     22  H   UNL     1       3.227   6.440  18.247  0.00  0.00    +0.000 HD
ENDBRANCH   4  21
TORSDOF 5
ENDMDL
MODEL 8
REMARK VINA RESULT:      -6.9      1.629      2.795
REMARK  Name = 
REMARK  8 active torsions:
REMARK  status: ('A' for Active; 'I' for Inactive)
REMARK    1  A    between atoms: C_1  and  C_2
REMARK    2  A    between atoms: C_2  and  C_3
REMARK    3  A    between atoms: C_2  and  C_4
REMARK    4  A    between atoms: C_7  and  O_8
REMARK    5  A    between atoms: C_9  and  C_10
REMARK    6  A    between atoms: N_12  and  C_13
REMARK    7  A    between atoms: C_13  and  C_14
REMARK    8  A    between atoms: N_18  and  C_19
REMARK                            x       y       z     vdW  Elec       q    Type
REMARK                         _______ _______ _______ _____ _____    ______ ____
ROOT
ATOM      1  C   UNL     1       5.780   3.583  13.219  0.00  0.00    +0.000 A 
ATOM      2  C   UNL     1       6.956   4.272  12.895  0.00  0.00    +0.000 A 
ATOM      3  C   UNL     1       7.568   5.117  13.822  0.00  0.00    +0.000 A 
ATOM      4  C   UNL     1       7.015   5.283  15.094  0.00  0.00    +0.000 A 
ATOM      5  C   UNL     1       5.849   4.597  15.460  0.00  0.00    +0.000 A 
ATOM      6  C   UNL     1       5.246   3.745  14.512  0.00  0.00    +0.000 A 
ENDROOT
BRANCH   5   7
ATOM      7  C   UNL     1       5.184   4.724  16.800  0.00  0.00    +0.000 C 
ATOM      8  O   UNL     1       5.737   4.311  17.816  0.00  0.00    +0.000 OA
ATOM      9  N   UNL     1       3.942   5.308  16.837  0.00  0.00    +0.000 N 
ATOM     10  H   UNL     1       3.524   5.638  15.968  0.00  0.00    +0.000 HD
BRANCH   9  11
ATOM     11  C   UNL     1       3.206   5.475  18.062  0.00  0.00    +0.000 C 
BRANCH  11  12
ATOM     12  C   UNL     1       2.349   4.285  18.317  0.00  0.00    +0.000 A 
ATOM     13  N   UNL     1       1.732   3.523  17.430  0.00  0.00    +0.000 NA
ATOM     14  N   UNL     1       1.049   2.537  18.107  0.00  0.00    +0.000 NA
ATOM     15  C   UNL     1       1.262   2.717  19.390  0.00  0.00    +0.000 A 
ATOM     16  N   UNL     1       2.069   3.796  19.568  0.00  0.00    +0.000 N 
ATOM     17  C   UNL     1       2.532   4.311  20.828  0.00  0.00    +0.000 C 
ENDBRANCH  11  12
ENDBRANCH   9  11
ENDBRANCH   5   7
BRANCH   1  19
ATOM     18  C   UNL     1       4.169   3.574  11.285  0.00  0.00    +0.000 C 
ATOM     19  C   UNL     1       5.058   2.719  12.196  0.00  0.00    +0.000 C 
ATOM     20  C   UNL     1       6.017   1.872  11.354  0.00  0.00    +0.000 C 
ENDBRANCH   1  19
BRANCH   4  21
ATOM     21  O   UNL     1       7.634   6.135  15.970  0.00  0.00    +0.000 OA
ATOM     22  H   UNL     1       8.417   6.530  15.550  0.00  0.00    +0.000 HD
ENDBRANCH   4  21
TORSDOF 5
ENDMDL
MODEL 9
REMARK VINA RESULT:      -6.9      1.972      2.843
REMARK  Name = 
REMARK  8 active torsions:
REMARK  status: ('A' for Active; 'I' for Inactive)
REMARK    1  A    between atoms: C_1  and  C_2
REMARK    2  A    between atoms: C_2  and  C_3
REMARK    3  A    between atoms: C_2  and  C_4
REMARK    4  A    between atoms: C_7  and  O_8
REMARK    5  A    between atoms: C_9  and  C_10
REMARK    6  A    between atoms: N_12  and  C_13
REMARK    7  A    between atoms: C_13  and  C_14
REMARK    8  A    between atoms: N_18  and  C_19
REMARK                            x       y       z     vdW  Elec       q    Type
REMARK                         _______ _______ _______ _____ _____    ______ ____
ROOT
ATOM      1  C   UNL     1       6.023   3.727  12.614  0.00  0.00    +0.000 A 
ATOM      2  C   UNL     1       7.256   4.390  12.556  0.00  0.00    +0.000 A 
ATOM      3  C   UNL     1       7.734   5.109  13.653  0.00  0.00    +0.000 A 
ATOM      4  C   UNL     1       6.986   5.171  14.832  0.00  0.00    +0.000 A 
ATOM      5  C   UNL     1       5.756   4.506  14.933  0.00  0.00    +0.000 A 
ATOM      6  C   UNL     1       5.291   3.783  13.815  0.00  0.00    +0.000 A 
ENDROOT
BRANCH   5   7
ATOM      7  C   UNL     1       4.886   4.528  16.155  0.00  0.00    +0.000 C 
ATOM      8  O   UNL     1       3.988   3.704  16.300  0.00  0.00    +0.000 OA
ATOM      9  N   UNL     1       5.132   5.503  17.090  0.00  0.00    +0.000 N 
ATOM     10  H   UNL     1       5.891   6.165  16.928  0.00  0.00    +0.000 HD
BRANCH   9  11
ATOM     11  C   UNL     1       4.358   5.627  18.297  0.00  0.00    +0.000 C 
BRANCH  11  12
ATOM     12  C   UNL     1       4.368   4.345  19.052  0.00  0.00    +0.000 A 
ATOM     13  N   UNL     1       5.416   3.629  19.423  0.00  0.00    +0.000 NA
ATOM     14  N   UNL     1       4.963   2.517  20.098  0.00  0.00    +0.000 NA
ATOM     15  C   UNL     1       3.652   2.576  20.125  0.00  0.00    +0.000 A 
ATOM     16  N   UNL     1       3.236   3.701  19.485  0.00  0.00    +0.000 N 
ATOM     17  C   UNL     1       1.873   4.121  19.306  0.00  0.00    +0.000 C 
ENDBRANCH  11  12
ENDBRANCH   9  11
ENDBRANCH   5   7
BRANCH   1  19
ATOM     18  C   UNL     1       5.835   1.519  11.420  0.00  0.00    +0.000 C 
ATOM     19  C   UNL     1       5.453   3.004  11.402  0.00  0.00    +0.000 C 
ATOM     20  C   UNL     1       3.934   3.157  11.282  0.00  0.00    +0.000 C 
ENDBRANCH   1  19
BRANCH   4  21
ATOM     21  O   UNL     1       7.478   5.902  15.881  0.00  0.00    +0.000 OA
ATOM     22  H   UNL     1       6.745   6.326  16.360  0.00  0.00    +0.000 HD
ENDBRANCH   4  21
TORSDOF 5
ENDMDL
