MODEL 1
REMARK VINA RESULT:      -8.6      0.000      0.000
REMARK  Name = 
REMARK  3 active torsions:
REMARK  status: ('A' for Active; 'I' for Inactive)
REMARK    1  A    between atoms: C_1  and  N_2
REMARK    2  A    between atoms: C_8  and  C_9
REMARK    3  A    between atoms: C_19  and  C_20
REMARK                            x       y       z     vdW  Elec       q    Type
REMARK                         _______ _______ _______ _____ _____    ______ ____
ROOT
ATOM      1  C   UNL     1       4.005   1.268  18.961  0.00  0.00    +0.000 C 
ATOM      2  N   UNL     1       3.729   2.700  18.817  0.00  0.00    +0.000 N 
ATOM      3  C   UNL     1       2.914   3.377  19.793  0.00  0.00    +0.000 A 
ATOM      4  O   UNL     1       2.464   2.748  20.737  0.00  0.00    +0.000 OA
ATOM      5  C   UNL     1       2.654   4.830  19.592  0.00  0.00    +0.000 A 
ATOM      6  C   UNL     1       1.859   5.505  20.517  0.00  0.00    +0.000 A 
ATOM      7  C   UNL     1       1.597   6.867  20.344  0.00  0.00    +0.000 A 
ATOM      8  C   UNL     1       2.105   7.593  19.245  0.00  0.00    +0.000 A 
ATOM      9  C   UNL     1       2.915   6.897  18.320  0.00  0.00    +0.000 A 
ATOM     10  C   UNL     1       3.186   5.529  18.497  0.00  0.00    +0.000 A 
ATOM     11  N   UNL     1       3.981   4.798  17.592  0.00  0.00    +0.000 N 
ATOM     12  N   UNL     1       4.572   5.295  16.489  0.00  0.00    +0.000 NA
ATOM     13  C   UNL     1       5.161   4.228  15.911  0.00  0.00    +0.000 A 
ATOM     14  C   UNL     1       4.985   3.055  16.701  0.00  0.00    +0.000 A 
ATOM     15  C   UNL     1       4.217   3.455  17.761  0.00  0.00    +0.000 A 
ENDROOT
BRANCH   8  16
ATOM     16  C   UNL     1       1.781   9.025  19.087  0.00  0.00    +0.000 A 
ATOM     17  C   UNL     1       2.280   9.826  18.072  0.00  0.00    +0.000 A 
ATOM     18  N   UNL     1       2.005  11.140  17.916  0.00  0.00    +0.000 NA
ATOM     19  C   UNL     1       1.190  11.682  18.831  0.00  0.00    +0.000 A 
ATOM     20  N   UNL     1       0.640  11.030  19.863  0.00  0.00    +0.000 NA
ATOM     21  C   UNL     1       0.949   9.718  19.959  0.00  0.00    +0.000 A 
ENDBRANCH   8  16
BRANCH  13  22
ATOM     22  C   UNL     1       5.862   4.305  14.627  0.00  0.00    +0.000 A 
ATOM     23  C   UNL     1       5.414   3.583  13.515  0.00  0.00    +0.000 A 
ATOM     24  C   UNL     1       6.104   3.654  12.299  0.00  0.00    +0.000 A 
ATOM     25  C   UNL     1       7.247   4.443  12.185  0.00  0.00    +0.000 A 
ATOM     26  C   UNL     1       7.697   5.176  13.279  0.00  0.00    +0.000 A 
ATOM     27  C   UNL     1       7.006   5.111  14.493  0.00  0.00    +0.000 A 
ENDBRANCH  13  22
TORSDOF 2
ENDMDL
MODEL 2
REMARK VINA RESULT:      -8.6      0.082      1.298
REMARK  Name = 
REMARK  3 active torsions:
REMARK  status: ('A' for Active; 'I' for Inactive)
REMARK    1  A    between atoms: C_1  and  N_2
REMARK    2  A    between atoms: C_8  and  C_9
REMARK    3  A    between atoms: C_19  and  C_20
REMARK                            x       y       z     vdW  Elec       q    Type
REMARK                         _______ _______ _______ _____ _____    ______ ____
ROOT
ATOM      1  C   UNL     1       3.919   1.194  18.847  0.00  0.00    +0.000 C 
ATOM      2  N   UNL     1       3.666   2.633  18.730  0.00  0.00    +0.000 N 
ATOM      3  C   UNL     1       2.843   3.300  19.706  0.00  0.00    +0.000 A 
ATOM      4  O   UNL     1       2.365   2.656  20.626  0.00  0.00    +0.000 OA
ATOM      5  C   UNL     1       2.608   4.761  19.533  0.00  0.00    +0.000 A 
ATOM      6  C   UNL     1       1.804   5.426  20.458  0.00  0.00    +0.000 A 
ATOM      7  C   UNL     1       1.566   6.796  20.312  0.00  0.00    +0.000 A 
ATOM      8  C   UNL     1       2.106   7.538  19.239  0.00  0.00    +0.000 A 
ATOM      9  C   UNL     1       2.924   6.852  18.314  0.00  0.00    +0.000 A 
ATOM     10  C   UNL     1       3.171   5.477  18.465  0.00  0.00    +0.000 A 
ATOM     11  N   UNL     1       3.973   4.754  17.559  0.00  0.00    +0.000 N 
ATOM     12  N   UNL     1       4.592   5.268  16.479  0.00  0.00    +0.000 NA
ATOM     13  C   UNL     1       5.177   4.205  15.888  0.00  0.00    +0.000 A 
ATOM     14  C   UNL     1       4.969   3.018  16.648  0.00  0.00    +0.000 A 
ATOM     15  C   UNL     1       4.187   3.404  17.701  0.00  0.00    +0.000 A 
ENDROOT
BRANCH   8  16
ATOM     16  C   UNL     1       1.806   8.979  19.109  0.00  0.00    +0.000 A 
ATOM     17  C   UNL     1       0.982   9.680  19.975  0.00  0.00    +0.000 A 
ATOM     18  N   UNL     1       0.686  10.995  19.868  0.00  0.00    +0.000 NA
ATOM     19  C   UNL     1       1.241  11.639  18.833  0.00  0.00    +0.000 A 
ATOM     20  N   UNL     1       2.051  11.089  17.920  0.00  0.00    +0.000 NA
ATOM     21  C   UNL     1       2.313   9.774  18.087  0.00  0.00    +0.000 A 
ENDBRANCH   8  16
BRANCH  13  22
ATOM     22  C   UNL     1       5.905   4.301  14.620  0.00  0.00    +0.000 A 
ATOM     23  C   UNL     1       7.039   5.111  14.498  0.00  0.00    +0.000 A 
ATOM     24  C   UNL     1       7.714   5.206  13.275  0.00  0.00    +0.000 A 
ATOM     25  C   UNL     1       7.260   4.496  12.165  0.00  0.00    +0.000 A 
ATOM     26  C   UNL     1       6.140   3.677  12.276  0.00  0.00    +0.000 A 
ATOM     27  C   UNL     1       5.467   3.577  13.497  0.00  0.00    +0.000 A 
ENDBRANCH  13  22
TORSDOF 2
ENDMDL
MODEL 3
REMARK VINA RESULT:      -7.4      3.535      9.252
REMARK  Name = 
REMARK  3 active torsions:
REMARK  status: ('A' for Active; 'I' for Inactive)
REMARK    1  A    between atoms: C_1  and  N_2
REMARK    2  A    between atoms: C_8  and  C_9
REMARK    3  A    between atoms: C_19  and  C_20
REMARK                            x       y       z     vdW  Elec       q    Type
REMARK                         _______ _______ _______ _____ _____    ______ ____
ROOT
ATOM      1  C   UNL     1      -1.432  13.276  23.050  0.00  0.00    +0.000 C 
ATOM      2  N   UNL     1      -0.681  12.333  22.217  0.00  0.00    +0.000 N 
ATOM      3  C   UNL     1      -0.722  10.923  22.511  0.00  0.00    +0.000 A 
ATOM      4  O   UNL     1      -1.388  10.528  23.455  0.00  0.00    +0.000 OA
ATOM      5  C   UNL     1       0.069  10.009  21.641  0.00  0.00    +0.000 A 
ATOM      6  C   UNL     1       0.056   8.642  21.914  0.00  0.00    +0.000 A 
ATOM      7  C   UNL     1       0.796   7.766  21.113  0.00  0.00    +0.000 A 
ATOM      8  C   UNL     1       1.578   8.224  20.031  0.00  0.00    +0.000 A 
ATOM      9  C   UNL     1       1.577   9.611  19.763  0.00  0.00    +0.000 A 
ATOM     10  C   UNL     1       0.826  10.491  20.561  0.00  0.00    +0.000 A 
ATOM     11  N   UNL     1       0.807  11.881  20.333  0.00  0.00    +0.000 N 
ATOM     12  N   UNL     1       1.468  12.523  19.351  0.00  0.00    +0.000 NA
ATOM     13  C   UNL     1       1.205  13.829  19.565  0.00  0.00    +0.000 A 
ATOM     14  C   UNL     1       0.315  13.999  20.664  0.00  0.00    +0.000 A 
ATOM     15  C   UNL     1       0.090  12.735  21.136  0.00  0.00    +0.000 A 
ENDROOT
BRANCH   8  16
ATOM     16  C   UNL     1       2.366   7.267  19.228  0.00  0.00    +0.000 A 
ATOM     17  C   UNL     1       2.522   5.928  19.552  0.00  0.00    +0.000 A 
ATOM     18  N   UNL     1       3.246   5.038  18.837  0.00  0.00    +0.000 NA
ATOM     19  C   UNL     1       3.851   5.518  17.743  0.00  0.00    +0.000 A 
ATOM     20  N   UNL     1       3.791   6.784  17.315  0.00  0.00    +0.000 NA
ATOM     21  C   UNL     1       3.045   7.622  18.069  0.00  0.00    +0.000 A 
ENDBRANCH   8  16
BRANCH  13  22
ATOM     22  C   UNL     1       1.798  14.901  18.761  0.00  0.00    +0.000 A 
ATOM     23  C   UNL     1       2.978  14.694  18.037  0.00  0.00    +0.000 A 
ATOM     24  C   UNL     1       3.540  15.733  17.287  0.00  0.00    +0.000 A 
ATOM     25  C   UNL     1       2.932  16.987  17.255  0.00  0.00    +0.000 A 
ATOM     26  C   UNL     1       1.752  17.203  17.961  0.00  0.00    +0.000 A 
ATOM     27  C   UNL     1       1.185  16.166  18.707  0.00  0.00    +0.000 A 
ENDBRANCH  13  22
TORSDOF 2
ENDMDL
MODEL 4
REMARK VINA RESULT:      -7.3      3.859      9.423
REMARK  Name = 
REMARK  3 active torsions:
REMARK  status: ('A' for Active; 'I' for Inactive)
REMARK    1  A    between atoms: C_1  and  N_2
REMARK    2  A    between atoms: C_8  and  C_9
REMARK    3  A    between atoms: C_19  and  C_20
REMARK                            x       y       z     vdW  Elec       q    Type
REMARK                         _______ _______ _______ _____ _____    ______ ____
ROOT
ATOM      1  C   UNL     1      -1.734  13.712  22.987  0.00  0.00    +0.000 C 
ATOM      2  N   UNL     1      -0.968  12.720  22.228  0.00  0.00    +0.000 N 
ATOM      3  C   UNL     1      -1.049  11.325  22.581  0.00  0.00    +0.000 A 
ATOM      4  O   UNL     1      -1.762  10.984  23.511  0.00  0.00    +0.000 OA
ATOM      5  C   UNL     1      -0.240  10.360  21.785  0.00  0.00    +0.000 A 
ATOM      6  C   UNL     1      -0.292   9.006  22.116  0.00  0.00    +0.000 A 
ATOM      7  C   UNL     1       0.463   8.084  21.386  0.00  0.00    +0.000 A 
ATOM      8  C   UNL     1       1.300   8.480  20.320  0.00  0.00    +0.000 A 
ATOM      9  C   UNL     1       1.337   9.854  19.993  0.00  0.00    +0.000 A 
ATOM     10  C   UNL     1       0.572  10.781  20.720  0.00  0.00    +0.000 A 
ATOM     11  N   UNL     1       0.589  12.160  20.431  0.00  0.00    +0.000 N 
ATOM     12  N   UNL     1       1.304  12.746  19.452  0.00  0.00    +0.000 NA
ATOM     13  C   UNL     1       1.059  14.065  19.599  0.00  0.00    +0.000 A 
ATOM     14  C   UNL     1       0.126  14.299  20.650  0.00  0.00    +0.000 A 
ATOM     15  C   UNL     1      -0.143  13.061  21.166  0.00  0.00    +0.000 A 
ENDROOT
BRANCH   8  16
ATOM     16  C   UNL     1       2.102   7.474  19.594  0.00  0.00    +0.000 A 
ATOM     17  C   UNL     1       2.703   7.702  18.365  0.00  0.00    +0.000 A 
ATOM     18  N   UNL     1       3.431   6.793  17.679  0.00  0.00    +0.000 NA
ATOM     19  C   UNL     1       3.559   5.590  18.253  0.00  0.00    +0.000 A 
ATOM     20  N   UNL     1       3.031   5.231  19.430  0.00  0.00    +0.000 NA
ATOM     21  C   UNL     1       2.320   6.186  20.068  0.00  0.00    +0.000 A 
ENDBRANCH   8  16
BRANCH  13  22
ATOM     22  C   UNL     1       1.705  15.090  18.776  0.00  0.00    +0.000 A 
ATOM     23  C   UNL     1       1.159  16.374  18.659  0.00  0.00    +0.000 A 
ATOM     24  C   UNL     1       1.780  17.337  17.856  0.00  0.00    +0.000 A 
ATOM     25  C   UNL     1       2.947  17.027  17.161  0.00  0.00    +0.000 A 
ATOM     26  C   UNL     1       3.508  15.759  17.277  0.00  0.00    +0.000 A 
ATOM     27  C   UNL     1       2.893  14.796  18.083  0.00  0.00    +0.000 A 
ENDBRANCH  13  22
TORSDOF 2
ENDMDL
MODEL 5
REMARK VINA RESULT:      -7.3      1.643      7.176
REMARK  Name = 
REMARK  3 active torsions:
REMARK  status: ('A' for Active; 'I' for Inactive)
REMARK    1  A    between atoms: C_1  and  N_2
REMARK    2  A    between atoms: C_8  and  C_9
REMARK    3  A    between atoms: C_19  and  C_20
REMARK                            x       y       z     vdW  Elec       q    Type
REMARK                         _______ _______ _______ _____ _____    ______ ____
ROOT
ATOM      1  C   UNL     1       1.473   3.719  21.214  0.00  0.00    +0.000 C 
ATOM      2  N   UNL     1       2.249   4.039  20.013  0.00  0.00    +0.000 N 
ATOM      3  C   UNL     1       3.014   3.010  19.356  0.00  0.00    +0.000 A 
ATOM      4  O   UNL     1       3.003   1.876  19.808  0.00  0.00    +0.000 OA
ATOM      5  C   UNL     1       3.795   3.391  18.147  0.00  0.00    +0.000 A 
ATOM      6  C   UNL     1       4.553   2.415  17.500  0.00  0.00    +0.000 A 
ATOM      7  C   UNL     1       5.299   2.752  16.367  0.00  0.00    +0.000 A 
ATOM      8  C   UNL     1       5.323   4.067  15.853  0.00  0.00    +0.000 A 
ATOM      9  C   UNL     1       4.545   5.043  16.514  0.00  0.00    +0.000 A 
ATOM     10  C   UNL     1       3.789   4.703  17.648  0.00  0.00    +0.000 A 
ATOM     11  N   UNL     1       3.008   5.650  18.341  0.00  0.00    +0.000 N 
ATOM     12  N   UNL     1       2.880   6.950  18.014  0.00  0.00    +0.000 NA
ATOM     13  C   UNL     1       2.100   7.467  18.986  0.00  0.00    +0.000 A 
ATOM     14  C   UNL     1       1.685   6.457  19.902  0.00  0.00    +0.000 A 
ATOM     15  C   UNL     1       2.293   5.312  19.465  0.00  0.00    +0.000 A 
ENDROOT
BRANCH   8  16
ATOM     16  C   UNL     1       6.147   4.385  14.668  0.00  0.00    +0.000 A 
ATOM     17  C   UNL     1       5.951   3.824  13.415  0.00  0.00    +0.000 A 
ATOM     18  N   UNL     1       6.699   4.093  12.322  0.00  0.00    +0.000 NA
ATOM     19  C   UNL     1       7.700   4.965  12.495  0.00  0.00    +0.000 A 
ATOM     20  N   UNL     1       8.006   5.578  13.646  0.00  0.00    +0.000 NA
ATOM     21  C   UNL     1       7.216   5.272  14.699  0.00  0.00    +0.000 A 
ENDBRANCH   8  16
BRANCH  13  22
ATOM     22  C   UNL     1       1.766   8.892  19.064  0.00  0.00    +0.000 A 
ATOM     23  C   UNL     1       2.122   9.774  18.037  0.00  0.00    +0.000 A 
ATOM     24  C   UNL     1       1.811  11.135  18.133  0.00  0.00    +0.000 A 
ATOM     25  C   UNL     1       1.145  11.627  19.255  0.00  0.00    +0.000 A 
ATOM     26  C   UNL     1       0.775  10.759  20.277  0.00  0.00    +0.000 A 
ATOM     27  C   UNL     1       1.080   9.398  20.182  0.00  0.00    +0.000 A 
ENDBRANCH  13  22
TORSDOF 2
ENDMDL
MODEL 6
REMARK VINA RESULT:      -7.2      1.644      7.172
REMARK  Name = 
REMARK  3 active torsions:
REMARK  status: ('A' for Active; 'I' for Inactive)
REMARK    1  A    between atoms: C_1  and  N_2
REMARK    2  A    between atoms: C_8  and  C_9
REMARK    3  A    between atoms: C_19  and  C_20
REMARK                            x       y       z     vdW  Elec       q    Type
REMARK                         _______ _______ _______ _____ _____    ______ ____
ROOT
ATOM      1  C   UNL     1       1.463   3.725  21.184  0.00  0.00    +0.000 C 
ATOM      2  N   UNL     1       2.246   4.039  19.986  0.00  0.00    +0.000 N 
ATOM      3  C   UNL     1       3.007   3.006  19.332  0.00  0.00    +0.000 A 
ATOM      4  O   UNL     1       2.989   1.872  19.785  0.00  0.00    +0.000 OA
ATOM      5  C   UNL     1       3.795   3.382  18.125  0.00  0.00    +0.000 A 
ATOM      6  C   UNL     1       4.550   2.402  17.483  0.00  0.00    +0.000 A 
ATOM      7  C   UNL     1       5.301   2.734  16.352  0.00  0.00    +0.000 A 
ATOM      8  C   UNL     1       5.335   4.048  15.837  0.00  0.00    +0.000 A 
ATOM      9  C   UNL     1       4.560   5.029  16.495  0.00  0.00    +0.000 A 
ATOM     10  C   UNL     1       3.797   4.694  17.626  0.00  0.00    +0.000 A 
ATOM     11  N   UNL     1       3.019   5.646  18.316  0.00  0.00    +0.000 N 
ATOM     12  N   UNL     1       2.899   6.946  17.987  0.00  0.00    +0.000 NA
ATOM     13  C   UNL     1       2.119   7.468  18.956  0.00  0.00    +0.000 A 
ATOM     14  C   UNL     1       1.695   6.461  19.871  0.00  0.00    +0.000 A 
ATOM     15  C   UNL     1       2.298   5.313  19.437  0.00  0.00    +0.000 A 
ENDROOT
BRANCH   8  16
ATOM     16  C   UNL     1       6.164   4.360  14.655  0.00  0.00    +0.000 A 
ATOM     17  C   UNL     1       7.202   5.280  14.657  0.00  0.00    +0.000 A 
ATOM     18  N   UNL     1       7.965   5.589  13.585  0.00  0.00    +0.000 NA
ATOM     19  C   UNL     1       7.670   4.944  12.449  0.00  0.00    +0.000 A 
ATOM     20  N   UNL     1       6.696   4.036  12.302  0.00  0.00    +0.000 NA
ATOM     21  C   UNL     1       5.974   3.768  13.412  0.00  0.00    +0.000 A 
ENDBRANCH   8  16
BRANCH  13  22
ATOM     22  C   UNL     1       1.792   8.894  19.032  0.00  0.00    +0.000 A 
ATOM     23  C   UNL     1       1.080   9.416  20.118  0.00  0.00    +0.000 A 
ATOM     24  C   UNL     1       0.761  10.778  20.167  0.00  0.00    +0.000 A 
ATOM     25  C   UNL     1       1.147  11.629  19.133  0.00  0.00    +0.000 A 
ATOM     26  C   UNL     1       1.866  11.125  18.053  0.00  0.00    +0.000 A 
ATOM     27  C   UNL     1       2.190   9.766  18.003  0.00  0.00    +0.000 A 
ENDBRANCH  13  22
TORSDOF 2
ENDMDL
MODEL 7
REMARK VINA RESULT:      -7.1      2.655      8.577
REMARK  Name = 
REMARK  3 active torsions:
REMARK  status: ('A' for Active; 'I' for Inactive)
REMARK    1  A    between atoms: C_1  and  N_2
REMARK    2  A    between atoms: C_8  and  C_9
REMARK    3  A    between atoms: C_19  and  C_20
REMARK                            x       y       z     vdW  Elec       q    Type
REMARK                         _______ _______ _______ _____ _____    ______ ____
ROOT
ATOM      1  C   UNL     1      -1.182  11.243  22.808  0.00  0.00    +0.000 C 
ATOM      2  N   UNL     1      -0.326  10.563  21.832  0.00  0.00    +0.000 N 
ATOM      3  C   UNL     1      -0.177   9.131  21.881  0.00  0.00    +0.000 A 
ATOM      4  O   UNL     1      -0.772   8.496  22.738  0.00  0.00    +0.000 OA
ATOM      5  C   UNL     1       0.715   8.491  20.875  0.00  0.00    +0.000 A 
ATOM      6  C   UNL     1       0.885   7.107  20.910  0.00  0.00    +0.000 A 
ATOM      7  C   UNL     1       1.722   6.486  19.978  0.00  0.00    +0.000 A 
ATOM      8  C   UNL     1       2.423   7.221  18.997  0.00  0.00    +0.000 A 
ATOM      9  C   UNL     1       2.235   8.621  18.970  0.00  0.00    +0.000 A 
ATOM     10  C   UNL     1       1.387   9.245  19.900  0.00  0.00    +0.000 A 
ATOM     11  N   UNL     1       1.182  10.639  19.912  0.00  0.00    +0.000 N 
ATOM     12  N   UNL     1       1.739  11.520  19.060  0.00  0.00    +0.000 NA
ATOM     13  C   UNL     1       1.310  12.725  19.491  0.00  0.00    +0.000 A 
ATOM     14  C   UNL     1       0.420  12.586  20.596  0.00  0.00    +0.000 A 
ATOM     15  C   UNL     1       0.371  11.242  20.843  0.00  0.00    +0.000 A 
ENDROOT
BRANCH   8  16
ATOM     16  C   UNL     1       3.318   6.527  18.049  0.00  0.00    +0.000 A 
ATOM     17  C   UNL     1       3.330   5.154  17.859  0.00  0.00    +0.000 A 
ATOM     18  N   UNL     1       4.148   4.498  17.006  0.00  0.00    +0.000 NA
ATOM     19  C   UNL     1       5.003   5.259  16.310  0.00  0.00    +0.000 A 
ATOM     20  N   UNL     1       5.102   6.591  16.395  0.00  0.00    +0.000 NA
ATOM     21  C   UNL     1       4.253   7.187  17.260  0.00  0.00    +0.000 A 
ENDBRANCH   8  16
BRANCH  13  22
ATOM     22  C   UNL     1       1.745  13.987  18.887  0.00  0.00    +0.000 A 
ATOM     23  C   UNL     1       2.950  14.072  18.181  0.00  0.00    +0.000 A 
ATOM     24  C   UNL     1       3.361  15.288  17.624  0.00  0.00    +0.000 A 
ATOM     25  C   UNL     1       2.573  16.429  17.770  0.00  0.00    +0.000 A 
ATOM     26  C   UNL     1       1.367  16.356  18.459  0.00  0.00    +0.000 A 
ATOM     27  C   UNL     1       0.952  15.141  19.012  0.00  0.00    +0.000 A 
ENDBRANCH  13  22
TORSDOF 2
ENDMDL
MODEL 8
REMARK VINA RESULT:      -7.0      2.634      8.517
REMARK  Name = 
REMARK  3 active torsions:
REMARK  status: ('A' for Active; 'I' for Inactive)
REMARK    1  A    between atoms: C_1  and  N_2
REMARK    2  A    between atoms: C_8  and  C_9
REMARK    3  A    between atoms: C_19  and  C_20
REMARK                            x       y       z     vdW  Elec       q    Type
REMARK                         _______ _______ _______ _____ _____    ______ ____
ROOT
ATOM      1  C   UNL     1      -1.178  11.171  22.810  0.00  0.00    +0.000 C 
ATOM      2  N   UNL     1      -0.317  10.499  21.834  0.00  0.00    +0.000 N 
ATOM      3  C   UNL     1      -0.167   9.067  21.872  0.00  0.00    +0.000 A 
ATOM      4  O   UNL     1      -0.766   8.425  22.721  0.00  0.00    +0.000 OA
ATOM      5  C   UNL     1       0.729   8.435  20.865  0.00  0.00    +0.000 A 
ATOM      6  C   UNL     1       0.900   7.052  20.890  0.00  0.00    +0.000 A 
ATOM      7  C   UNL     1       1.742   6.439  19.957  0.00  0.00    +0.000 A 
ATOM      8  C   UNL     1       2.447   7.181  18.985  0.00  0.00    +0.000 A 
ATOM      9  C   UNL     1       2.258   8.582  18.968  0.00  0.00    +0.000 A 
ATOM     10  C   UNL     1       1.405   9.198  19.899  0.00  0.00    +0.000 A 
ATOM     11  N   UNL     1       1.199  10.592  19.921  0.00  0.00    +0.000 N 
ATOM     12  N   UNL     1       1.760  11.480  19.078  0.00  0.00    +0.000 NA
ATOM     13  C   UNL     1       1.328  12.680  19.517  0.00  0.00    +0.000 A 
ATOM     14  C   UNL     1       0.433  12.532  20.616  0.00  0.00    +0.000 A 
ATOM     15  C   UNL     1       0.384  11.186  20.853  0.00  0.00    +0.000 A 
ENDROOT
BRANCH   8  16
ATOM     16  C   UNL     1       3.347   6.495  18.036  0.00  0.00    +0.000 A 
ATOM     17  C   UNL     1       4.260   7.148  17.223  0.00  0.00    +0.000 A 
ATOM     18  N   UNL     1       5.085   6.540  16.341  0.00  0.00    +0.000 NA
ATOM     19  C   UNL     1       4.984   5.207  16.266  0.00  0.00    +0.000 A 
ATOM     20  N   UNL     1       4.147   4.450  16.987  0.00  0.00    +0.000 NA
ATOM     21  C   UNL     1       3.355   5.117  17.855  0.00  0.00    +0.000 A 
ENDBRANCH   8  16
BRANCH  13  22
ATOM     22  C   UNL     1       1.765  13.947  18.925  0.00  0.00    +0.000 A 
ATOM     23  C   UNL     1       0.993  15.108  19.051  0.00  0.00    +0.000 A 
ATOM     24  C   UNL     1       1.415  16.307  18.465  0.00  0.00    +0.000 A 
ATOM     25  C   UNL     1       2.609  16.356  17.747  0.00  0.00    +0.000 A 
ATOM     26  C   UNL     1       3.392  15.213  17.624  0.00  0.00    +0.000 A 
ATOM     27  C   UNL     1       2.975  14.015  18.213  0.00  0.00    +0.000 A 
ENDBRANCH  13  22
TORSDOF 2
ENDMDL
MODEL 9
REMARK VINA RESULT:      -6.9      5.348      9.303
REMARK  Name = 
REMARK  3 active torsions:
REMARK  status: ('A' for Active; 'I' for Inactive)
REMARK    1  A    between atoms: C_1  and  N_2
REMARK    2  A    between atoms: C_8  and  C_9
REMARK    3  A    between atoms: C_19  and  C_20
REMARK                            x       y       z     vdW  Elec       q    Type
REMARK                         _______ _______ _______ _____ _____    ______ ____
ROOT
ATOM      1  C   UNL     1       2.400  14.279  17.882  0.00  0.00    +0.000 C 
ATOM      2  N   UNL     1       1.274  13.836  18.709  0.00  0.00    +0.000 N 
ATOM      3  C   UNL     1       0.344  14.801  19.234  0.00  0.00    +0.000 A 
ATOM      4  O   UNL     1       0.502  15.985  18.979  0.00  0.00    +0.000 OA
ATOM      5  C   UNL     1      -0.775  14.299  20.079  0.00  0.00    +0.000 A 
ATOM      6  C   UNL     1      -1.682  15.216  20.609  0.00  0.00    +0.000 A 
ATOM      7  C   UNL     1      -2.736  14.767  21.410  0.00  0.00    +0.000 A 
ATOM      8  C   UNL     1      -2.911  13.400  21.718  0.00  0.00    +0.000 A 
ATOM      9  C   UNL     1      -1.988  12.482  21.168  0.00  0.00    +0.000 A 
ATOM     10  C   UNL     1      -0.934  12.932  20.356  0.00  0.00    +0.000 A 
ATOM     11  N   UNL     1       0.013  12.049  19.797  0.00  0.00    +0.000 N 
ATOM     12  N   UNL     1       0.024  10.712  19.952  0.00  0.00    +0.000 NA
ATOM     13  C   UNL     1       1.134  10.306  19.302  0.00  0.00    +0.000 A 
ATOM     14  C   UNL     1       1.794  11.405  18.679  0.00  0.00    +0.000 A 
ATOM     15  C   UNL     1       1.056  12.503  19.026  0.00  0.00    +0.000 A 
ENDROOT
BRANCH   8  16
ATOM     16  C   UNL     1      -4.023  12.973  22.590  0.00  0.00    +0.000 A 
ATOM     17  C   UNL     1      -5.353  12.960  22.200  0.00  0.00    +0.000 A 
ATOM     18  N   UNL     1      -6.387  12.583  22.986  0.00  0.00    +0.000 NA
ATOM     19  C   UNL     1      -6.070  12.204  24.231  0.00  0.00    +0.000 A 
ATOM     20  N   UNL     1      -4.833  12.171  24.741  0.00  0.00    +0.000 NA
ATOM     21  C   UNL     1      -3.844  12.553  23.903  0.00  0.00    +0.000 A 
ENDBRANCH   8  16
BRANCH  13  22
ATOM     22  C   UNL     1       1.578   8.910  19.282  0.00  0.00    +0.000 A 
ATOM     23  C   UNL     1       1.502   8.111  20.429  0.00  0.00    +0.000 A 
ATOM     24  C   UNL     1       1.946   6.784  20.400  0.00  0.00    +0.000 A 
ATOM     25  C   UNL     1       2.471   6.245  19.227  0.00  0.00    +0.000 A 
ATOM     26  C   UNL     1       2.541   7.024  18.076  0.00  0.00    +0.000 A 
ATOM     27  C   UNL     1       2.094   8.348  18.101  0.00  0.00    +0.000 A 
ENDBRANCH  13  22
TORSDOF 2
ENDMDL
