MODEL 1
REMARK VINA RESULT:      -7.3      0.000      0.000
REMARK  Name = 
REMARK  1 active torsions:
REMARK  status: ('A' for Active; 'I' for Inactive)
REMARK    1  A    between atoms: O_1  and  C_2
REMARK                            x       y       z     vdW  Elec       q    Type
REMARK                         _______ _______ _______ _____ _____    ______ ____
ROOT
ATOM      1  C   UNL     1       1.650   3.492  20.832  0.00  0.00    +0.000 A 
ATOM      2  N   UNL     1       1.576   4.799  20.813  0.00  0.00    +0.000 NA
ATOM      3  C   UNL     1       2.445   5.393  19.914  0.00  0.00    +0.000 A 
ATOM      4  C   UNL     1       3.474   4.794  19.276  0.00  0.00    +0.000 A 
ATOM      5  N   UNL     1       3.639   3.436  19.496  0.00  0.00    +0.000 N 
ATOM      6  C   UNL     1       4.568   2.484  19.204  0.00  0.00    +0.000 A 
ATOM      7  C   UNL     1       3.776   1.392  18.945  0.00  0.00    +0.000 A 
ATOM      8  N   UNL     1       2.563   1.507  19.573  0.00  0.00    +0.000 NA
ATOM      9  C   UNL     1       2.594   2.746  20.061  0.00  0.00    +0.000 A 
ATOM     10  C   UNL     1       4.084   5.639  18.156  0.00  0.00    +0.000 C 
ATOM     11  C   UNL     1       5.583   5.968  18.302  0.00  0.00    +0.000 C 
ATOM     12  C   UNL     1       6.507   4.869  17.796  0.00  0.00    +0.000 C 
ATOM     13  C   UNL     1       6.097   4.356  16.422  0.00  0.00    +0.000 C 
ATOM     14  C   UNL     1       4.602   4.097  16.275  0.00  0.00    +0.000 C 
ATOM     15  N   UNL     1       3.781   5.174  16.796  0.00  0.00    +0.000 NA
ATOM     16  C   UNL     1       3.259   6.917  18.368  0.00  0.00    +0.000 A 
ATOM     17  C   UNL     1       3.320   8.117  17.662  0.00  0.00    +0.000 A 
ATOM     18  C   UNL     1       2.449   9.142  18.019  0.00  0.00    +0.000 A 
ATOM     19  C   UNL     1       1.510   8.962  19.042  0.00  0.00    +0.000 A 
ATOM     20  C   UNL     1       1.425   7.746  19.728  0.00  0.00    +0.000 A 
ATOM     21  C   UNL     1       2.315   6.740  19.384  0.00  0.00    +0.000 A 
ATOM     22  H   UNL     1       2.789   4.953  16.708  0.00  0.00    +0.000 HD
ENDROOT
BRANCH   1  23
ATOM     23  O   UNL     1       0.898   2.782  21.674  0.00  0.00    +0.000 OA
ATOM     24  H   UNL     1      -0.028   2.958  21.471  0.00  0.00    +0.000 HD
ENDBRANCH   1  23
TORSDOF 1
ENDMDL
MODEL 2
REMARK VINA RESULT:      -7.2      4.284      7.614
REMARK  Name = 
REMARK  1 active torsions:
REMARK  status: ('A' for Active; 'I' for Inactive)
REMARK    1  A    between atoms: O_1  and  C_2
REMARK                            x       y       z     vdW  Elec       q    Type
REMARK                         _______ _______ _______ _____ _____    ______ ____
ROOT
ATOM      1  C   UNL     1       0.098   9.593  23.060  0.00  0.00    +0.000 A 
ATOM      2  N   UNL     1       0.597   8.686  22.259  0.00  0.00    +0.000 NA
ATOM      3  C   UNL     1       0.569   9.047  20.923  0.00  0.00    +0.000 A 
ATOM      4  C   UNL     1      -0.112  10.082  20.384  0.00  0.00    +0.000 A 
ATOM      5  N   UNL     1      -0.803  10.899  21.265  0.00  0.00    +0.000 N 
ATOM      6  C   UNL     1      -1.700  11.921  21.181  0.00  0.00    +0.000 A 
ATOM      7  C   UNL     1      -1.299  12.728  22.218  0.00  0.00    +0.000 A 
ATOM      8  N   UNL     1      -0.627  12.005  23.169  0.00  0.00    +0.000 NA
ATOM      9  C   UNL     1      -0.496  10.809  22.600  0.00  0.00    +0.000 A 
ATOM     10  C   UNL     1       0.262  10.380  18.931  0.00  0.00    +0.000 C 
ATOM     11  C   UNL     1      -0.890  10.301  17.910  0.00  0.00    +0.000 C 
ATOM     12  C   UNL     1      -1.721  11.573  17.819  0.00  0.00    +0.000 C 
ATOM     13  C   UNL     1      -0.856  12.822  17.709  0.00  0.00    +0.000 C 
ATOM     14  C   UNL     1       0.317  12.854  18.683  0.00  0.00    +0.000 C 
ATOM     15  N   UNL     1       1.050  11.604  18.735  0.00  0.00    +0.000 NA
ATOM     16  C   UNL     1       1.226   9.206  18.704  0.00  0.00    +0.000 A 
ATOM     17  C   UNL     1       1.937   8.876  17.553  0.00  0.00    +0.000 A 
ATOM     18  C   UNL     1       2.778   7.768  17.587  0.00  0.00    +0.000 A 
ATOM     19  C   UNL     1       2.933   7.020  18.760  0.00  0.00    +0.000 A 
ATOM     20  C   UNL     1       2.245   7.371  19.927  0.00  0.00    +0.000 A 
ATOM     21  C   UNL     1       1.388   8.460  19.876  0.00  0.00    +0.000 A 
ATOM     22  H   UNL     1       1.808  11.652  19.417  0.00  0.00    +0.000 HD
ENDROOT
BRANCH   1  23
ATOM     23  O   UNL     1       0.024   9.372  24.373  0.00  0.00    +0.000 OA
ATOM     24  H   UNL     1      -0.099  10.221  24.815  0.00  0.00    +0.000 HD
ENDBRANCH   1  23
TORSDOF 1
ENDMDL
MODEL 3
REMARK VINA RESULT:      -6.9      2.344      4.276
REMARK  Name = 
REMARK  1 active torsions:
REMARK  status: ('A' for Active; 'I' for Inactive)
REMARK    1  A    between atoms: O_1  and  C_2
REMARK                            x       y       z     vdW  Elec       q    Type
REMARK                         _______ _______ _______ _____ _____    ______ ____
ROOT
ATOM      1  C   UNL     1       4.468   6.564  17.020  0.00  0.00    +0.000 A 
ATOM      2  N   UNL     1       3.584   7.431  17.447  0.00  0.00    +0.000 NA
ATOM      3  C   UNL     1       2.765   6.941  18.449  0.00  0.00    +0.000 A 
ATOM      4  C   UNL     1       2.640   5.649  18.827  0.00  0.00    +0.000 A 
ATOM      5  N   UNL     1       3.458   4.732  18.189  0.00  0.00    +0.000 N 
ATOM      6  C   UNL     1       3.582   3.376  18.132  0.00  0.00    +0.000 A 
ATOM      7  C   UNL     1       4.946   3.224  18.071  0.00  0.00    +0.000 A 
ATOM      8  N   UNL     1       5.542   4.348  17.560  0.00  0.00    +0.000 NA
ATOM      9  C   UNL     1       4.533   5.213  17.481  0.00  0.00    +0.000 A 
ATOM     10  C   UNL     1       1.858   5.458  20.128  0.00  0.00    +0.000 C 
ATOM     11  C   UNL     1       0.594   4.581  20.031  0.00  0.00    +0.000 C 
ATOM     12  C   UNL     1       0.871   3.087  20.130  0.00  0.00    +0.000 C 
ATOM     13  C   UNL     1       1.796   2.748  21.293  0.00  0.00    +0.000 C 
ATOM     14  C   UNL     1       3.007   3.665  21.413  0.00  0.00    +0.000 C 
ATOM     15  N   UNL     1       2.674   5.071  21.287  0.00  0.00    +0.000 NA
ATOM     16  C   UNL     1       1.448   6.920  20.359  0.00  0.00    +0.000 A 
ATOM     17  C   UNL     1       0.692   7.456  21.399  0.00  0.00    +0.000 A 
ATOM     18  C   UNL     1       0.464   8.828  21.415  0.00  0.00    +0.000 A 
ATOM     19  C   UNL     1       1.007   9.658  20.426  0.00  0.00    +0.000 A 
ATOM     20  C   UNL     1       1.795   9.124  19.400  0.00  0.00    +0.000 A 
ATOM     21  C   UNL     1       1.994   7.752  19.378  0.00  0.00    +0.000 A 
ATOM     22  H   UNL     1       3.511   5.652  21.343  0.00  0.00    +0.000 HD
ENDROOT
BRANCH   1  23
ATOM     23  O   UNL     1       5.304   6.880  16.030  0.00  0.00    +0.000 OA
ATOM     24  H   UNL     1       4.784   7.234  15.299  0.00  0.00    +0.000 HD
ENDBRANCH   1  23
TORSDOF 1
ENDMDL
MODEL 4
REMARK VINA RESULT:      -6.6     10.320     12.007
REMARK  Name = 
REMARK  1 active torsions:
REMARK  status: ('A' for Active; 'I' for Inactive)
REMARK    1  A    between atoms: O_1  and  C_2
REMARK                            x       y       z     vdW  Elec       q    Type
REMARK                         _______ _______ _______ _____ _____    ______ ____
ROOT
ATOM      1  C   UNL     1       8.650  16.947  18.621  0.00  0.00    +0.000 A 
ATOM      2  N   UNL     1       7.879  16.264  19.431  0.00  0.00    +0.000 NA
ATOM      3  C   UNL     1       8.344  14.988  19.696  0.00  0.00    +0.000 A 
ATOM      4  C   UNL     1       9.329  14.338  19.039  0.00  0.00    +0.000 A 
ATOM      5  N   UNL     1       9.979  15.040  18.038  0.00  0.00    +0.000 N 
ATOM      6  C   UNL     1      10.887  14.771  17.058  0.00  0.00    +0.000 A 
ATOM      7  C   UNL     1      11.648  15.914  17.062  0.00  0.00    +0.000 A 
ATOM      8  N   UNL     1      10.938  16.974  17.562  0.00  0.00    +0.000 NA
ATOM      9  C   UNL     1       9.817  16.404  18.001  0.00  0.00    +0.000 A 
ATOM     10  C   UNL     1       9.789  13.052  19.728  0.00  0.00    +0.000 C 
ATOM     11  C   UNL     1       9.654  11.759  18.900  0.00  0.00    +0.000 C 
ATOM     12  C   UNL     1      10.818  11.511  17.950  0.00  0.00    +0.000 C 
ATOM     13  C   UNL     1      12.168  11.695  18.631  0.00  0.00    +0.000 C 
ATOM     14  C   UNL     1      12.263  12.945  19.498  0.00  0.00    +0.000 C 
ATOM     15  N   UNL     1      11.112  13.130  20.361  0.00  0.00    +0.000 NA
ATOM     16  C   UNL     1       8.764  13.034  20.872  0.00  0.00    +0.000 A 
ATOM     17  C   UNL     1       8.620  12.098  21.894  0.00  0.00    +0.000 A 
ATOM     18  C   UNL     1       7.625  12.302  22.845  0.00  0.00    +0.000 A 
ATOM     19  C   UNL     1       6.808  13.437  22.797  0.00  0.00    +0.000 A 
ATOM     20  C   UNL     1       6.974  14.395  21.790  0.00  0.00    +0.000 A 
ATOM     21  C   UNL     1       7.950  14.169  20.832  0.00  0.00    +0.000 A 
ATOM     22  H   UNL     1      11.197  13.991  20.904  0.00  0.00    +0.000 HD
ENDROOT
BRANCH   1  23
ATOM     23  O   UNL     1       8.313  18.181  18.244  0.00  0.00    +0.000 OA
ATOM     24  H   UNL     1       8.213  18.185  17.284  0.00  0.00    +0.000 HD
ENDBRANCH   1  23
TORSDOF 1
ENDMDL
MODEL 5
REMARK VINA RESULT:      -6.5      7.676      9.858
REMARK  Name = 
REMARK  1 active torsions:
REMARK  status: ('A' for Active; 'I' for Inactive)
REMARK    1  A    between atoms: O_1  and  C_2
REMARK                            x       y       z     vdW  Elec       q    Type
REMARK                         _______ _______ _______ _____ _____    ______ ____
ROOT
ATOM      1  C   UNL     1      -5.194  12.671  21.089  0.00  0.00    +0.000 A 
ATOM      2  N   UNL     1      -5.194  12.495  19.791  0.00  0.00    +0.000 NA
ATOM      3  C   UNL     1      -3.948  12.192  19.271  0.00  0.00    +0.000 A 
ATOM      4  C   UNL     1      -2.762  12.301  19.910  0.00  0.00    +0.000 A 
ATOM      5  N   UNL     1      -2.803  12.699  21.236  0.00  0.00    +0.000 N 
ATOM      6  C   UNL     1      -1.907  13.068  22.194  0.00  0.00    +0.000 A 
ATOM      7  C   UNL     1      -2.459  12.509  23.321  0.00  0.00    +0.000 A 
ATOM      8  N   UNL     1      -3.809  12.332  23.168  0.00  0.00    +0.000 NA
ATOM      9  C   UNL     1      -4.010  12.637  21.888  0.00  0.00    +0.000 A 
ATOM     10  C   UNL     1      -1.596  11.647  19.165  0.00  0.00    +0.000 C 
ATOM     11  C   UNL     1      -0.426  12.580  18.795  0.00  0.00    +0.000 C 
ATOM     12  C   UNL     1       0.579  12.785  19.921  0.00  0.00    +0.000 C 
ATOM     13  C   UNL     1       0.992  11.472  20.573  0.00  0.00    +0.000 C 
ATOM     14  C   UNL     1      -0.171  10.534  20.873  0.00  0.00    +0.000 C 
ATOM     15  N   UNL     1      -1.100  10.402  19.767  0.00  0.00    +0.000 NA
ATOM     16  C   UNL     1      -2.347  11.240  17.889  0.00  0.00    +0.000 A 
ATOM     17  C   UNL     1      -1.853  10.585  16.763  0.00  0.00    +0.000 A 
ATOM     18  C   UNL     1      -2.734  10.295  15.725  0.00  0.00    +0.000 A 
ATOM     19  C   UNL     1      -4.091  10.623  15.822  0.00  0.00    +0.000 A 
ATOM     20  C   UNL     1      -4.594  11.250  16.968  0.00  0.00    +0.000 A 
ATOM     21  C   UNL     1      -3.704  11.560  17.985  0.00  0.00    +0.000 A 
ATOM     22  H   UNL     1      -1.879   9.791  20.014  0.00  0.00    +0.000 HD
ENDROOT
BRANCH   1  23
ATOM     23  O   UNL     1      -6.316  13.005  21.728  0.00  0.00    +0.000 OA
ATOM     24  H   UNL     1      -6.529  12.299  22.350  0.00  0.00    +0.000 HD
ENDBRANCH   1  23
TORSDOF 1
ENDMDL
MODEL 6
REMARK VINA RESULT:      -6.4      2.665      4.946
REMARK  Name = 
REMARK  1 active torsions:
REMARK  status: ('A' for Active; 'I' for Inactive)
REMARK    1  A    between atoms: O_1  and  C_2
REMARK                            x       y       z     vdW  Elec       q    Type
REMARK                         _______ _______ _______ _____ _____    ______ ____
ROOT
ATOM      1  C   UNL     1       3.025   3.154  17.218  0.00  0.00    +0.000 A 
ATOM      2  N   UNL     1       3.402   3.342  15.978  0.00  0.00    +0.000 NA
ATOM      3  C   UNL     1       4.542   4.116  15.855  0.00  0.00    +0.000 A 
ATOM      4  C   UNL     1       5.122   4.855  16.826  0.00  0.00    +0.000 A 
ATOM      5  N   UNL     1       4.552   4.783  18.086  0.00  0.00    +0.000 N 
ATOM      6  C   UNL     1       4.691   5.425  19.281  0.00  0.00    +0.000 A 
ATOM      7  C   UNL     1       4.518   4.393  20.172  0.00  0.00    +0.000 A 
ATOM      8  N   UNL     1       3.787   3.379  19.611  0.00  0.00    +0.000 NA
ATOM      9  C   UNL     1       3.677   3.755  18.339  0.00  0.00    +0.000 A 
ATOM     10  C   UNL     1       6.508   5.386  16.455  0.00  0.00    +0.000 C 
ATOM     11  C   UNL     1       6.670   6.919  16.483  0.00  0.00    +0.000 C 
ATOM     12  C   UNL     1       6.968   7.483  17.865  0.00  0.00    +0.000 C 
ATOM     13  C   UNL     1       8.071   6.711  18.579  0.00  0.00    +0.000 C 
ATOM     14  C   UNL     1       7.930   5.196  18.487  0.00  0.00    +0.000 C 
ATOM     15  N   UNL     1       7.626   4.731  17.147  0.00  0.00    +0.000 NA
ATOM     16  C   UNL     1       6.554   4.895  15.001  0.00  0.00    +0.000 A 
ATOM     17  C   UNL     1       7.570   5.054  14.062  0.00  0.00    +0.000 A 
ATOM     18  C   UNL     1       7.400   4.496  12.799  0.00  0.00    +0.000 A 
ATOM     19  C   UNL     1       6.248   3.764  12.486  0.00  0.00    +0.000 A 
ATOM     20  C   UNL     1       5.242   3.575  13.440  0.00  0.00    +0.000 A 
ATOM     21  C   UNL     1       5.408   4.157  14.687  0.00  0.00    +0.000 A 
ATOM     22  H   UNL     1       7.510   3.717  17.130  0.00  0.00    +0.000 HD
ENDROOT
BRANCH   1  23
ATOM     23  O   UNL     1       1.921   2.459  17.494  0.00  0.00    +0.000 OA
ATOM     24  H   UNL     1       1.925   1.661  16.952  0.00  0.00    +0.000 HD
ENDBRANCH   1  23
TORSDOF 1
ENDMDL
MODEL 7
REMARK VINA RESULT:      -6.3     10.721     12.980
REMARK  Name = 
REMARK  1 active torsions:
REMARK  status: ('A' for Active; 'I' for Inactive)
REMARK    1  A    between atoms: O_1  and  C_2
REMARK                            x       y       z     vdW  Elec       q    Type
REMARK                         _______ _______ _______ _____ _____    ______ ____
ROOT
ATOM      1  C   UNL     1      11.527  13.614  17.101  0.00  0.00    +0.000 A 
ATOM      2  N   UNL     1      11.264  12.746  18.046  0.00  0.00    +0.000 NA
ATOM      3  C   UNL     1      10.766  13.318  19.203  0.00  0.00    +0.000 A 
ATOM      4  C   UNL     1      10.763  14.633  19.514  0.00  0.00    +0.000 A 
ATOM      5  N   UNL     1      11.252  15.501  18.551  0.00  0.00    +0.000 N 
ATOM      6  C   UNL     1      11.566  16.825  18.470  0.00  0.00    +0.000 A 
ATOM      7  C   UNL     1      11.162  17.128  17.192  0.00  0.00    +0.000 A 
ATOM      8  N   UNL     1      11.153  16.008  16.403  0.00  0.00    +0.000 NA
ATOM      9  C   UNL     1      11.394  15.027  17.270  0.00  0.00    +0.000 A 
ATOM     10  C   UNL     1       9.914  14.978  20.738  0.00  0.00    +0.000 C 
ATOM     11  C   UNL     1      10.658  15.658  21.904  0.00  0.00    +0.000 C 
ATOM     12  C   UNL     1      10.807  17.165  21.746  0.00  0.00    +0.000 C 
ATOM     13  C   UNL     1       9.498  17.835  21.347  0.00  0.00    +0.000 C 
ATOM     14  C   UNL     1       8.743  17.114  20.237  0.00  0.00    +0.000 C 
ATOM     15  N   UNL     1       8.658  15.681  20.441  0.00  0.00    +0.000 NA
ATOM     16  C   UNL     1       9.522  13.550  21.147  0.00  0.00    +0.000 A 
ATOM     17  C   UNL     1       8.733  13.139  22.219  0.00  0.00    +0.000 A 
ATOM     18  C   UNL     1       8.490  11.779  22.381  0.00  0.00    +0.000 A 
ATOM     19  C   UNL     1       8.998  10.846  21.471  0.00  0.00    +0.000 A 
ATOM     20  C   UNL     1       9.762  11.260  20.374  0.00  0.00    +0.000 A 
ATOM     21  C   UNL     1      10.022  12.615  20.236  0.00  0.00    +0.000 A 
ATOM     22  H   UNL     1       8.172  15.229  19.665  0.00  0.00    +0.000 HD
ENDROOT
BRANCH   1  23
ATOM     23  O   UNL     1      12.047  13.216  15.940  0.00  0.00    +0.000 OA
ATOM     24  H   UNL     1      11.385  12.685  15.480  0.00  0.00    +0.000 HD
ENDBRANCH   1  23
TORSDOF 1
ENDMDL
MODEL 8
REMARK VINA RESULT:      -6.3      9.622     11.397
REMARK  Name = 
REMARK  1 active torsions:
REMARK  status: ('A' for Active; 'I' for Inactive)
REMARK    1  A    between atoms: O_1  and  C_2
REMARK                            x       y       z     vdW  Elec       q    Type
REMARK                         _______ _______ _______ _____ _____    ______ ____
ROOT
ATOM      1  C   UNL     1       8.488  11.930  22.468  0.00  0.00    +0.000 A 
ATOM      2  N   UNL     1       9.066  11.544  21.359  0.00  0.00    +0.000 NA
ATOM      3  C   UNL     1       9.104  12.523  20.382  0.00  0.00    +0.000 A 
ATOM      4  C   UNL     1       8.418  13.687  20.383  0.00  0.00    +0.000 A 
ATOM      5  N   UNL     1       7.647  13.955  21.502  0.00  0.00    +0.000 N 
ATOM      6  C   UNL     1       6.720  14.880  21.876  0.00  0.00    +0.000 A 
ATOM      7  C   UNL     1       7.028  15.063  23.202  0.00  0.00    +0.000 A 
ATOM      8  N   UNL     1       7.669  13.965  23.712  0.00  0.00    +0.000 NA
ATOM      9  C   UNL     1       7.878  13.211  22.634  0.00  0.00    +0.000 A 
ATOM     10  C   UNL     1       8.866  14.670  19.300  0.00  0.00    +0.000 C 
ATOM     11  C   UNL     1       7.781  15.109  18.298  0.00  0.00    +0.000 C 
ATOM     12  C   UNL     1       6.910  16.255  18.794  0.00  0.00    +0.000 C 
ATOM     13  C   UNL     1       7.734  17.394  19.380  0.00  0.00    +0.000 C 
ATOM     14  C   UNL     1       8.845  16.939  20.319  0.00  0.00    +0.000 C 
ATOM     15  N   UNL     1       9.620  15.831  19.794  0.00  0.00    +0.000 NA
ATOM     16  C   UNL     1       9.884  13.768  18.587  0.00  0.00    +0.000 A 
ATOM     17  C   UNL     1      10.673  14.058  17.477  0.00  0.00    +0.000 A 
ATOM     18  C   UNL     1      11.551  13.083  17.014  0.00  0.00    +0.000 A 
ATOM     19  C   UNL     1      11.664  11.850  17.667  0.00  0.00    +0.000 A 
ATOM     20  C   UNL     1      10.896  11.571  18.804  0.00  0.00    +0.000 A 
ATOM     21  C   UNL     1      10.005  12.538  19.241  0.00  0.00    +0.000 A 
ATOM     22  H   UNL     1      10.333  15.535  20.461  0.00  0.00    +0.000 HD
ENDROOT
BRANCH   1  23
ATOM     23  O   UNL     1       8.344  11.083  23.489  0.00  0.00    +0.000 OA
ATOM     24  H   UNL     1       8.561  10.196  23.176  0.00  0.00    +0.000 HD
ENDBRANCH   1  23
TORSDOF 1
ENDMDL
MODEL 9
REMARK VINA RESULT:      -6.2     10.083     11.540
REMARK  Name = 
REMARK  1 active torsions:
REMARK  status: ('A' for Active; 'I' for Inactive)
REMARK    1  A    between atoms: O_1  and  C_2
REMARK                            x       y       z     vdW  Elec       q    Type
REMARK                         _______ _______ _______ _____ _____    ______ ____
ROOT
ATOM      1  C   UNL     1       6.096  14.674  18.235  0.00  0.00    +0.000 A 
ATOM      2  N   UNL     1       7.245  14.201  17.823  0.00  0.00    +0.000 NA
ATOM      3  C   UNL     1       8.168  14.022  18.838  0.00  0.00    +0.000 A 
ATOM      4  C   UNL     1       8.079  14.497  20.100  0.00  0.00    +0.000 A 
ATOM      5  N   UNL     1       6.919  15.180  20.427  0.00  0.00    +0.000 N 
ATOM      6  C   UNL     1       6.462  15.924  21.473  0.00  0.00    +0.000 A 
ATOM      7  C   UNL     1       5.140  15.553  21.521  0.00  0.00    +0.000 A 
ATOM      8  N   UNL     1       4.714  15.096  20.302  0.00  0.00    +0.000 NA
ATOM      9  C   UNL     1       5.838  15.049  19.589  0.00  0.00    +0.000 A 
ATOM     10  C   UNL     1       9.122  13.916  21.056  0.00  0.00    +0.000 C 
ATOM     11  C   UNL     1      10.059  14.938  21.731  0.00  0.00    +0.000 C 
ATOM     12  C   UNL     1       9.470  15.585  22.977  0.00  0.00    +0.000 C 
ATOM     13  C   UNL     1       8.853  14.562  23.923  0.00  0.00    +0.000 C 
ATOM     14  C   UNL     1       7.982  13.520  23.230  0.00  0.00    +0.000 C 
ATOM     15  N   UNL     1       8.595  12.962  22.040  0.00  0.00    +0.000 NA
ATOM     16  C   UNL     1       9.921  13.088  20.038  0.00  0.00    +0.000 A 
ATOM     17  C   UNL     1      11.042  12.291  20.255  0.00  0.00    +0.000 A 
ATOM     18  C   UNL     1      11.589  11.607  19.174  0.00  0.00    +0.000 A 
ATOM     19  C   UNL     1      11.008  11.689  17.904  0.00  0.00    +0.000 A 
ATOM     20  C   UNL     1       9.861  12.463  17.691  0.00  0.00    +0.000 A 
ATOM     21  C   UNL     1       9.339  13.163  18.769  0.00  0.00    +0.000 A 
ATOM     22  H   UNL     1       7.972  12.292  21.588  0.00  0.00    +0.000 HD
ENDROOT
BRANCH   1  23
ATOM     23  O   UNL     1       5.118  14.933  17.366  0.00  0.00    +0.000 OA
ATOM     24  H   UNL     1       5.330  15.757  16.911  0.00  0.00    +0.000 HD
ENDBRANCH   1  23
TORSDOF 1
ENDMDL
