MODEL 1
REMARK VINA RESULT:      -8.2      0.000      0.000
REMARK  Name = 
REMARK  9 active torsions:
REMARK  status: ('A' for Active; 'I' for Inactive)
REMARK    1  A    between atoms: C_1  and  O_2
REMARK    2  A    between atoms: O_2  and  C_3
REMARK    3  A    between atoms: C_3  and  C_5
REMARK    4  A    between atoms: C_7  and  N_8
REMARK    5  A    between atoms: C_9  and  C_11
REMARK    6  A    between atoms: C_11  and  C_12
REMARK    7  A    between atoms: C_11  and  N_13
REMARK    8  A    between atoms: C_14  and  C_16
REMARK    9  A    between atoms: C_16  and  C_17
REMARK                            x       y       z     vdW  Elec       q    Type
REMARK                         _______ _______ _______ _____ _____    ______ ____
ROOT
ATOM      1  N   UNL     1       2.278   7.860  19.090  0.00  0.00    +0.000 N 
ATOM      2  C   UNL     1       1.607   8.981  18.608  0.00  0.00    +0.000 C 
ATOM      3  O   UNL     1       1.417   9.255  17.424  0.00  0.00    +0.000 OA
ATOM      4  H   UNL     1       2.233   7.688  20.087  0.00  0.00    +0.000 HD
ENDROOT
BRANCH   1   7
ATOM      5  C   UNL     1       3.379   4.556  17.662  0.00  0.00    +0.000 A 
ATOM      6  C   UNL     1       2.681   5.511  18.430  0.00  0.00    +0.000 A 
ATOM      7  C   UNL     1       2.956   6.876  18.326  0.00  0.00    +0.000 A 
ATOM      8  C   UNL     1       3.933   7.315  17.414  0.00  0.00    +0.000 A 
ATOM      9  C   UNL     1       4.654   6.352  16.683  0.00  0.00    +0.000 A 
ATOM     10  N   UNL     1       5.681   6.507  15.774  0.00  0.00    +0.000 N 
ATOM     11  C   UNL     1       6.099   5.289  15.315  0.00  0.00    +0.000 A 
ATOM     12  C   UNL     1       5.324   4.327  15.917  0.00  0.00    +0.000 A 
ATOM     13  C   UNL     1       4.409   4.980  16.794  0.00  0.00    +0.000 A 
ATOM     14  H   UNL     1       6.077   7.396  15.497  0.00  0.00    +0.000 HD
BRANCH   5  15
ATOM     15  C   UNL     1       3.055   3.113  17.762  0.00  0.00    +0.000 C 
ATOM     16  O   UNL     1       2.215   2.538  17.092  0.00  0.00    +0.000 OA
BRANCH  15  18
ATOM     17  C   UNL     1       3.073   2.273  19.946  0.00  0.00    +0.000 C 
ATOM     18  O   UNL     1       3.802   2.557  18.751  0.00  0.00    +0.000 OA
ENDBRANCH  15  18
ENDBRANCH   5  15
ENDBRANCH   1   7
BRANCH   2  19
ATOM     19  C   UNL     1       1.041   9.892  19.723  0.00  0.00    +0.000 C 
ATOM     20  C   UNL     1       1.085   9.176  21.071  0.00  0.00    +0.000 C 
BRANCH  19  21
ATOM     21  N   UNL     1      -0.325  10.310  19.391  0.00  0.00    +0.000 N 
ATOM     22  C   UNL     1      -0.581  11.530  18.813  0.00  0.00    +0.000 C 
ATOM     23  O   UNL     1       0.306  12.368  18.644  0.00  0.00    +0.000 OA
ATOM     24  H   UNL     1      -1.076   9.659  19.600  0.00  0.00    +0.000 HD
BRANCH  22  25
ATOM     25  C   UNL     1      -2.033  11.771  18.420  0.00  0.00    +0.000 C 
BRANCH  25  26
ATOM     26  C   UNL     1      -2.770  10.461  18.045  0.00  0.00    +0.000 C 
ATOM     27  C   UNL     1      -4.291  10.648  17.900  0.00  0.00    +0.000 C 
ATOM     28  C   UNL     1      -4.650  11.518  16.701  0.00  0.00    +0.000 C 
ATOM     29  C   UNL     1      -4.111  10.911  15.411  0.00  0.00    +0.000 C 
ATOM     30  C   UNL     1      -2.616  10.607  15.485  0.00  0.00    +0.000 C 
ATOM     31  C   UNL     1      -2.226   9.833  16.746  0.00  0.00    +0.000 C 
ENDBRANCH  25  26
ENDBRANCH  22  25
ENDBRANCH  19  21
ENDBRANCH   2  19
TORSDOF 7
ENDMDL
MODEL 2
REMARK VINA RESULT:      -8.1      3.125      8.164
REMARK  Name = 
REMARK  9 active torsions:
REMARK  status: ('A' for Active; 'I' for Inactive)
REMARK    1  A    between atoms: C_1  and  O_2
REMARK    2  A    between atoms: O_2  and  C_3
REMARK    3  A    between atoms: C_3  and  C_5
REMARK    4  A    between atoms: C_7  and  N_8
REMARK    5  A    between atoms: C_9  and  C_11
REMARK    6  A    between atoms: C_11  and  C_12
REMARK    7  A    between atoms: C_11  and  N_13
REMARK    8  A    between atoms: C_14  and  C_16
REMARK    9  A    between atoms: C_16  and  C_17
REMARK                            x       y       z     vdW  Elec       q    Type
REMARK                         _______ _______ _______ _____ _____    ______ ____
ROOT
ATOM      1  N   UNL     1       2.433   5.526  19.931  0.00  0.00    +0.000 N 
ATOM      2  C   UNL     1       1.638   4.387  20.028  0.00  0.00    +0.000 C 
ATOM      3  O   UNL     1       0.411   4.368  20.118  0.00  0.00    +0.000 OA
ATOM      4  H   UNL     1       3.413   5.388  19.717  0.00  0.00    +0.000 HD
ENDROOT
BRANCH   1   7
ATOM      5  C   UNL     1       1.095   8.788  21.248  0.00  0.00    +0.000 A 
ATOM      6  C   UNL     1       1.520   7.444  21.196  0.00  0.00    +0.000 A 
ATOM      7  C   UNL     1       2.006   6.875  20.018  0.00  0.00    +0.000 A 
ATOM      8  C   UNL     1       2.100   7.667  18.859  0.00  0.00    +0.000 A 
ATOM      9  C   UNL     1       1.633   8.994  18.908  0.00  0.00    +0.000 A 
ATOM     10  N   UNL     1       1.567   9.953  17.918  0.00  0.00    +0.000 N 
ATOM     11  C   UNL     1       1.025  11.109  18.410  0.00  0.00    +0.000 A 
ATOM     12  C   UNL     1       0.750  10.907  19.741  0.00  0.00    +0.000 A 
ATOM     13  C   UNL     1       1.121   9.571  20.073  0.00  0.00    +0.000 A 
ATOM     14  H   UNL     1       1.865   9.817  16.962  0.00  0.00    +0.000 HD
BRANCH   5  15
ATOM     15  C   UNL     1       0.609   9.386  22.515  0.00  0.00    +0.000 C 
ATOM     16  O   UNL     1       1.294   9.577  23.504  0.00  0.00    +0.000 OA
BRANCH  15  18
ATOM     17  C   UNL     1      -1.158  10.801  23.106  0.00  0.00    +0.000 C 
ATOM     18  O   UNL     1      -0.723   9.632  22.409  0.00  0.00    +0.000 OA
ENDBRANCH  15  18
ENDBRANCH   5  15
ENDBRANCH   1   7
BRANCH   2  19
ATOM     19  C   UNL     1       2.439   3.064  19.966  0.00  0.00    +0.000 C 
ATOM     20  C   UNL     1       2.880   2.642  21.365  0.00  0.00    +0.000 C 
BRANCH  19  21
ATOM     21  N   UNL     1       3.590   3.212  19.069  0.00  0.00    +0.000 N 
ATOM     22  C   UNL     1       3.442   3.201  17.703  0.00  0.00    +0.000 C 
ATOM     23  O   UNL     1       2.357   2.964  17.169  0.00  0.00    +0.000 OA
ATOM     24  H   UNL     1       4.503   3.327  19.499  0.00  0.00    +0.000 HD
BRANCH  22  25
ATOM     25  C   UNL     1       4.711   3.482  16.910  0.00  0.00    +0.000 C 
BRANCH  25  26
ATOM     26  C   UNL     1       4.665   4.849  16.183  0.00  0.00    +0.000 C 
ATOM     27  C   UNL     1       4.647   6.044  17.154  0.00  0.00    +0.000 C 
ATOM     28  C   UNL     1       5.959   6.183  17.917  0.00  0.00    +0.000 C 
ATOM     29  C   UNL     1       7.129   6.356  16.956  0.00  0.00    +0.000 C 
ATOM     30  C   UNL     1       7.184   5.259  15.894  0.00  0.00    +0.000 C 
ATOM     31  C   UNL     1       5.839   5.032  15.201  0.00  0.00    +0.000 C 
ENDBRANCH  25  26
ENDBRANCH  22  25
ENDBRANCH  19  21
ENDBRANCH   2  19
TORSDOF 7
ENDMDL
MODEL 3
REMARK VINA RESULT:      -8.0      1.117      1.169
REMARK  Name = 
REMARK  9 active torsions:
REMARK  status: ('A' for Active; 'I' for Inactive)
REMARK    1  A    between atoms: C_1  and  O_2
REMARK    2  A    between atoms: O_2  and  C_3
REMARK    3  A    between atoms: C_3  and  C_5
REMARK    4  A    between atoms: C_7  and  N_8
REMARK    5  A    between atoms: C_9  and  C_11
REMARK    6  A    between atoms: C_11  and  C_12
REMARK    7  A    between atoms: C_11  and  N_13
REMARK    8  A    between atoms: C_14  and  C_16
REMARK    9  A    between atoms: C_16  and  C_17
REMARK                            x       y       z     vdW  Elec       q    Type
REMARK                         _______ _______ _______ _____ _____    ______ ____
ROOT
ATOM      1  N   UNL     1       1.786   8.274  19.110  0.00  0.00    +0.000 N 
ATOM      2  C   UNL     1       1.479   8.355  20.466  0.00  0.00    +0.000 C 
ATOM      3  O   UNL     1       1.887   7.598  21.345  0.00  0.00    +0.000 OA
ATOM      4  H   UNL     1       1.498   9.048  18.524  0.00  0.00    +0.000 HD
ENDROOT
BRANCH   1   7
ATOM      5  C   UNL     1       2.996   4.917  17.914  0.00  0.00    +0.000 A 
ATOM      6  C   UNL     1       2.224   5.903  18.563  0.00  0.00    +0.000 A 
ATOM      7  C   UNL     1       2.538   7.260  18.464  0.00  0.00    +0.000 A 
ATOM      8  C   UNL     1       3.633   7.658  17.678  0.00  0.00    +0.000 A 
ATOM      9  C   UNL     1       4.424   6.665  17.069  0.00  0.00    +0.000 A 
ATOM     10  N   UNL     1       5.563   6.780  16.299  0.00  0.00    +0.000 N 
ATOM     11  C   UNL     1       6.012   5.543  15.926  0.00  0.00    +0.000 A 
ATOM     12  C   UNL     1       5.147   4.610  16.445  0.00  0.00    +0.000 A 
ATOM     13  C   UNL     1       4.138   5.301  17.179  0.00  0.00    +0.000 A 
ATOM     14  H   UNL     1       6.009   7.654  16.056  0.00  0.00    +0.000 HD
BRANCH   5  15
ATOM     15  C   UNL     1       2.632   3.482  18.005  0.00  0.00    +0.000 C 
ATOM     16  O   UNL     1       2.254   2.798  17.071  0.00  0.00    +0.000 OA
BRANCH  15  18
ATOM     17  C   UNL     1       4.025   2.565  19.646  0.00  0.00    +0.000 C 
ATOM     18  O   UNL     1       2.738   3.077  19.297  0.00  0.00    +0.000 OA
ENDBRANCH  15  18
ENDBRANCH   5  15
ENDBRANCH   1   7
BRANCH   2  19
ATOM     19  C   UNL     1       0.573   9.557  20.826  0.00  0.00    +0.000 C 
ATOM     20  C   UNL     1      -0.247   9.251  22.076  0.00  0.00    +0.000 C 
BRANCH  19  21
ATOM     21  N   UNL     1      -0.295   9.894  19.692  0.00  0.00    +0.000 N 
ATOM     22  C   UNL     1      -0.535  11.200  19.335  0.00  0.00    +0.000 C 
ATOM     23  O   UNL     1      -0.119  12.144  20.008  0.00  0.00    +0.000 OA
ATOM     24  H   UNL     1      -0.710   9.123  19.177  0.00  0.00    +0.000 HD
BRANCH  22  25
ATOM     25  C   UNL     1      -1.359  11.385  18.068  0.00  0.00    +0.000 C 
BRANCH  25  26
ATOM     26  C   UNL     1      -2.269  10.168  17.769  0.00  0.00    +0.000 C 
ATOM     27  C   UNL     1      -3.753  10.437  18.076  0.00  0.00    +0.000 C 
ATOM     28  C   UNL     1      -4.355  11.468  17.129  0.00  0.00    +0.000 C 
ATOM     29  C   UNL     1      -4.235  11.010  15.680  0.00  0.00    +0.000 C 
ATOM     30  C   UNL     1      -2.803  10.635  15.301  0.00  0.00    +0.000 C 
ATOM     31  C   UNL     1      -2.147   9.689  16.309  0.00  0.00    +0.000 C 
ENDBRANCH  25  26
ENDBRANCH  22  25
ENDBRANCH  19  21
ENDBRANCH   2  19
TORSDOF 7
ENDMDL
MODEL 4
REMARK VINA RESULT:      -8.0      2.113      2.822
REMARK  Name = 
REMARK  9 active torsions:
REMARK  status: ('A' for Active; 'I' for Inactive)
REMARK    1  A    between atoms: C_1  and  O_2
REMARK    2  A    between atoms: O_2  and  C_3
REMARK    3  A    between atoms: C_3  and  C_5
REMARK    4  A    between atoms: C_7  and  N_8
REMARK    5  A    between atoms: C_9  and  C_11
REMARK    6  A    between atoms: C_11  and  C_12
REMARK    7  A    between atoms: C_11  and  N_13
REMARK    8  A    between atoms: C_14  and  C_16
REMARK    9  A    between atoms: C_16  and  C_17
REMARK                            x       y       z     vdW  Elec       q    Type
REMARK                         _______ _______ _______ _____ _____    ______ ____
ROOT
ATOM      1  N   UNL     1       1.863   8.408  19.216  0.00  0.00    +0.000 N 
ATOM      2  C   UNL     1       1.310   8.451  20.493  0.00  0.00    +0.000 C 
ATOM      3  O   UNL     1       1.401   7.571  21.349  0.00  0.00    +0.000 OA
ATOM      4  H   UNL     1       1.832   9.261  18.671  0.00  0.00    +0.000 HD
ENDROOT
BRANCH   1   7
ATOM      5  C   UNL     1       4.253   6.382  17.132  0.00  0.00    +0.000 A 
ATOM      6  C   UNL     1       3.601   7.486  17.719  0.00  0.00    +0.000 A 
ATOM      7  C   UNL     1       2.544   7.319  18.616  0.00  0.00    +0.000 A 
ATOM      8  C   UNL     1       2.137   6.020  18.966  0.00  0.00    +0.000 A 
ATOM      9  C   UNL     1       2.765   4.924  18.343  0.00  0.00    +0.000 A 
ATOM     10  N   UNL     1       2.527   3.571  18.469  0.00  0.00    +0.000 N 
ATOM     11  C   UNL     1       3.371   2.862  17.658  0.00  0.00    +0.000 A 
ATOM     12  C   UNL     1       4.181   3.763  17.009  0.00  0.00    +0.000 A 
ATOM     13  C   UNL     1       3.806   5.075  17.424  0.00  0.00    +0.000 A 
ATOM     14  H   UNL     1       1.821   3.162  19.065  0.00  0.00    +0.000 HD
BRANCH   5  15
ATOM     15  C   UNL     1       5.393   6.576  16.203  0.00  0.00    +0.000 C 
ATOM     16  O   UNL     1       5.418   6.205  15.043  0.00  0.00    +0.000 OA
BRANCH  15  18
ATOM     17  C   UNL     1       7.268   6.277  17.569  0.00  0.00    +0.000 C 
ATOM     18  O   UNL     1       6.412   7.180  16.868  0.00  0.00    +0.000 OA
ENDBRANCH  15  18
ENDBRANCH   5  15
ENDBRANCH   1   7
BRANCH   2  19
ATOM     19  C   UNL     1       0.568   9.772  20.805  0.00  0.00    +0.000 C 
ATOM     20  C   UNL     1      -0.142   9.680  22.152  0.00  0.00    +0.000 C 
BRANCH  19  21
ATOM     21  N   UNL     1      -0.376  10.089  19.728  0.00  0.00    +0.000 N 
ATOM     22  C   UNL     1      -0.592  11.383  19.321  0.00  0.00    +0.000 C 
ATOM     23  O   UNL     1      -0.086  12.342  19.905  0.00  0.00    +0.000 OA
ATOM     24  H   UNL     1      -0.862   9.311  19.292  0.00  0.00    +0.000 HD
BRANCH  22  25
ATOM     25  C   UNL     1      -1.511  11.540  18.116  0.00  0.00    +0.000 C 
BRANCH  25  26
ATOM     26  C   UNL     1      -2.433  10.312  17.910  0.00  0.00    +0.000 C 
ATOM     27  C   UNL     1      -3.929  10.664  17.995  0.00  0.00    +0.000 C 
ATOM     28  C   UNL     1      -4.378  11.542  16.833  0.00  0.00    +0.000 C 
ATOM     29  C   UNL     1      -4.118  10.851  15.500  0.00  0.00    +0.000 C 
ATOM     30  C   UNL     1      -2.670  10.384  15.354  0.00  0.00    +0.000 C 
ATOM     31  C   UNL     1      -2.171   9.599  16.569  0.00  0.00    +0.000 C 
ENDBRANCH  25  26
ENDBRANCH  22  25
ENDBRANCH  19  21
ENDBRANCH   2  19
TORSDOF 7
ENDMDL
MODEL 5
REMARK VINA RESULT:      -7.9      2.110      2.633
REMARK  Name = 
REMARK  9 active torsions:
REMARK  status: ('A' for Active; 'I' for Inactive)
REMARK    1  A    between atoms: C_1  and  O_2
REMARK    2  A    between atoms: O_2  and  C_3
REMARK    3  A    between atoms: C_3  and  C_5
REMARK    4  A    between atoms: C_7  and  N_8
REMARK    5  A    between atoms: C_9  and  C_11
REMARK    6  A    between atoms: C_11  and  C_12
REMARK    7  A    between atoms: C_11  and  N_13
REMARK    8  A    between atoms: C_14  and  C_16
REMARK    9  A    between atoms: C_16  and  C_17
REMARK                            x       y       z     vdW  Elec       q    Type
REMARK                         _______ _______ _______ _____ _____    ______ ____
ROOT
ATOM      1  N   UNL     1       0.965   8.491  20.555  0.00  0.00    +0.000 N 
ATOM      2  C   UNL     1       1.115   9.332  21.654  0.00  0.00    +0.000 C 
ATOM      3  O   UNL     1       1.976   9.232  22.527  0.00  0.00    +0.000 OA
ATOM      4  H   UNL     1       0.306   8.777  19.841  0.00  0.00    +0.000 HD
ENDROOT
BRANCH   1   7
ATOM      5  C   UNL     1       2.174   4.927  20.604  0.00  0.00    +0.000 A 
ATOM      6  C   UNL     1       1.423   6.085  20.894  0.00  0.00    +0.000 A 
ATOM      7  C   UNL     1       1.696   7.308  20.278  0.00  0.00    +0.000 A 
ATOM      8  C   UNL     1       2.727   7.384  19.325  0.00  0.00    +0.000 A 
ATOM      9  C   UNL     1       3.500   6.234  19.074  0.00  0.00    +0.000 A 
ATOM     10  N   UNL     1       4.582   6.053  18.236  0.00  0.00    +0.000 N 
ATOM     11  C   UNL     1       5.035   4.765  18.317  0.00  0.00    +0.000 A 
ATOM     12  C   UNL     1       4.229   4.093  19.204  0.00  0.00    +0.000 A 
ATOM     13  C   UNL     1       3.255   5.009  19.700  0.00  0.00    +0.000 A 
ATOM     14  H   UNL     1       4.989   6.773  17.656  0.00  0.00    +0.000 HD
BRANCH   5  15
ATOM     15  C   UNL     1       1.852   3.629  21.245  0.00  0.00    +0.000 C 
ATOM     16  O   UNL     1       2.493   3.119  22.148  0.00  0.00    +0.000 OA
BRANCH  15  18
ATOM     17  C   UNL     1       1.086   2.302  19.478  0.00  0.00    +0.000 C 
ATOM     18  O   UNL     1       0.771   3.085  20.630  0.00  0.00    +0.000 OA
ENDBRANCH  15  18
ENDBRANCH   5  15
ENDBRANCH   1   7
BRANCH   2  19
ATOM     19  C   UNL     1       0.100  10.500  21.685  0.00  0.00    +0.000 C 
ATOM     20  C   UNL     1      -0.887  10.317  22.835  0.00  0.00    +0.000 C 
BRANCH  19  21
ATOM     21  N   UNL     1      -0.598  10.598  20.398  0.00  0.00    +0.000 N 
ATOM     22  C   UNL     1      -0.818  11.812  19.793  0.00  0.00    +0.000 C 
ATOM     23  O   UNL     1      -0.534  12.875  20.346  0.00  0.00    +0.000 OA
ATOM     24  H   UNL     1      -0.909   9.732  19.970  0.00  0.00    +0.000 HD
BRANCH  22  25
ATOM     25  C   UNL     1      -1.448  11.742  18.408  0.00  0.00    +0.000 C 
BRANCH  25  26
ATOM     26  C   UNL     1      -2.335  10.485  18.224  0.00  0.00    +0.000 C 
ATOM     27  C   UNL     1      -3.840  10.793  18.315  0.00  0.00    +0.000 C 
ATOM     28  C   UNL     1      -4.323  11.643  17.145  0.00  0.00    +0.000 C 
ATOM     29  C   UNL     1      -4.050  10.944  15.818  0.00  0.00    +0.000 C 
ATOM     30  C   UNL     1      -2.590  10.519  15.668  0.00  0.00    +0.000 C 
ATOM     31  C   UNL     1      -2.060   9.764  16.889  0.00  0.00    +0.000 C 
ENDBRANCH  25  26
ENDBRANCH  22  25
ENDBRANCH  19  21
ENDBRANCH   2  19
TORSDOF 7
ENDMDL
MODEL 6
REMARK VINA RESULT:      -7.9      1.832      2.762
REMARK  Name = 
REMARK  9 active torsions:
REMARK  status: ('A' for Active; 'I' for Inactive)
REMARK    1  A    between atoms: C_1  and  O_2
REMARK    2  A    between atoms: O_2  and  C_3
REMARK    3  A    between atoms: C_3  and  C_5
REMARK    4  A    between atoms: C_7  and  N_8
REMARK    5  A    between atoms: C_9  and  C_11
REMARK    6  A    between atoms: C_11  and  C_12
REMARK    7  A    between atoms: C_11  and  N_13
REMARK    8  A    between atoms: C_14  and  C_16
REMARK    9  A    between atoms: C_16  and  C_17
REMARK                            x       y       z     vdW  Elec       q    Type
REMARK                         _______ _______ _______ _____ _____    ______ ____
ROOT
ATOM      1  N   UNL     1       2.053   7.391  19.947  0.00  0.00    +0.000 N 
ATOM      2  C   UNL     1       1.647   8.516  19.234  0.00  0.00    +0.000 C 
ATOM      3  O   UNL     1       1.669   8.642  18.010  0.00  0.00    +0.000 OA
ATOM      4  H   UNL     1       1.843   7.372  20.938  0.00  0.00    +0.000 HD
ENDROOT
BRANCH   1   7
ATOM      5  C   UNL     1       4.533   5.022  18.398  0.00  0.00    +0.000 A 
ATOM      6  C   UNL     1       3.960   6.201  18.919  0.00  0.00    +0.000 A 
ATOM      7  C   UNL     1       2.659   6.221  19.424  0.00  0.00    +0.000 A 
ATOM      8  C   UNL     1       1.907   5.033  19.439  0.00  0.00    +0.000 A 
ATOM      9  C   UNL     1       2.470   3.871  18.877  0.00  0.00    +0.000 A 
ATOM     10  N   UNL     1       1.938   2.607  18.724  0.00  0.00    +0.000 N 
ATOM     11  C   UNL     1       2.839   1.783  18.107  0.00  0.00    +0.000 A 
ATOM     12  C   UNL     1       3.979   2.512  17.872  0.00  0.00    +0.000 A 
ATOM     13  C   UNL     1       3.762   3.840  18.345  0.00  0.00    +0.000 A 
ATOM     14  H   UNL     1       1.009   2.333  19.013  0.00  0.00    +0.000 HD
BRANCH   5  15
ATOM     15  C   UNL     1       5.927   5.010  17.892  0.00  0.00    +0.000 C 
ATOM     16  O   UNL     1       6.853   4.415  18.414  0.00  0.00    +0.000 OA
BRANCH  15  18
ATOM     17  C   UNL     1       5.770   5.127  15.561  0.00  0.00    +0.000 C 
ATOM     18  O   UNL     1       6.009   5.806  16.795  0.00  0.00    +0.000 OA
ENDBRANCH  15  18
ENDBRANCH   5  15
ENDBRANCH   1   7
BRANCH   2  19
ATOM     19  C   UNL     1       1.089   9.650  20.128  0.00  0.00    +0.000 C 
ATOM     20  C   UNL     1       0.909   9.158  21.561  0.00  0.00    +0.000 C 
BRANCH  19  21
ATOM     21  N   UNL     1      -0.174  10.154  19.577  0.00  0.00    +0.000 N 
ATOM     22  C   UNL     1      -0.243  11.367  18.936  0.00  0.00    +0.000 C 
ATOM     23  O   UNL     1       0.722  12.131  18.884  0.00  0.00    +0.000 OA
ATOM     24  H   UNL     1      -0.996   9.567  19.685  0.00  0.00    +0.000 HD
BRANCH  22  25
ATOM     25  C   UNL     1      -1.595  11.698  18.317  0.00  0.00    +0.000 C 
BRANCH  25  26
ATOM     26  C   UNL     1      -2.457  10.435  18.067  0.00  0.00    +0.000 C 
ATOM     27  C   UNL     1      -3.969  10.722  18.113  0.00  0.00    +0.000 C 
ATOM     28  C   UNL     1      -4.421  11.597  16.950  0.00  0.00    +0.000 C 
ATOM     29  C   UNL     1      -4.093  10.938  15.615  0.00  0.00    +0.000 C 
ATOM     30  C   UNL     1      -2.622  10.535  15.506  0.00  0.00    +0.000 C 
ATOM     31  C   UNL     1      -2.126   9.754  16.725  0.00  0.00    +0.000 C 
ENDBRANCH  25  26
ENDBRANCH  22  25
ENDBRANCH  19  21
ENDBRANCH   2  19
TORSDOF 7
ENDMDL
MODEL 7
REMARK VINA RESULT:      -7.7      1.774      2.709
REMARK  Name = 
REMARK  9 active torsions:
REMARK  status: ('A' for Active; 'I' for Inactive)
REMARK    1  A    between atoms: C_1  and  O_2
REMARK    2  A    between atoms: O_2  and  C_3
REMARK    3  A    between atoms: C_3  and  C_5
REMARK    4  A    between atoms: C_7  and  N_8
REMARK    5  A    between atoms: C_9  and  C_11
REMARK    6  A    between atoms: C_11  and  C_12
REMARK    7  A    between atoms: C_11  and  N_13
REMARK    8  A    between atoms: C_14  and  C_16
REMARK    9  A    between atoms: C_16  and  C_17
REMARK                            x       y       z     vdW  Elec       q    Type
REMARK                         _______ _______ _______ _____ _____    ______ ____
ROOT
ATOM      1  N   UNL     1       1.904   7.770  19.516  0.00  0.00    +0.000 N 
ATOM      2  C   UNL     1       1.621   9.032  19.002  0.00  0.00    +0.000 C 
ATOM      3  O   UNL     1       1.861   9.416  17.858  0.00  0.00    +0.000 OA
ATOM      4  H   UNL     1       1.520   7.546  20.426  0.00  0.00    +0.000 HD
ENDROOT
BRANCH   1   7
ATOM      5  C   UNL     1       4.308   5.884  17.319  0.00  0.00    +0.000 A 
ATOM      6  C   UNL     1       3.634   6.949  17.952  0.00  0.00    +0.000 A 
ATOM      7  C   UNL     1       2.606   6.721  18.870  0.00  0.00    +0.000 A 
ATOM      8  C   UNL     1       2.251   5.400  19.193  0.00  0.00    +0.000 A 
ATOM      9  C   UNL     1       2.900   4.344  18.524  0.00  0.00    +0.000 A 
ATOM     10  N   UNL     1       2.711   2.980  18.617  0.00  0.00    +0.000 N 
ATOM     11  C   UNL     1       3.557   2.323  17.767  0.00  0.00    +0.000 A 
ATOM     12  C   UNL     1       4.320   3.268  17.124  0.00  0.00    +0.000 A 
ATOM     13  C   UNL     1       3.912   4.555  17.585  0.00  0.00    +0.000 A 
ATOM     14  H   UNL     1       2.033   2.531  19.219  0.00  0.00    +0.000 HD
BRANCH   5  15
ATOM     15  C   UNL     1       5.417   6.141  16.368  0.00  0.00    +0.000 C 
ATOM     16  O   UNL     1       6.366   6.874  16.585  0.00  0.00    +0.000 OA
BRANCH  15  18
ATOM     17  C   UNL     1       6.342   4.933  14.592  0.00  0.00    +0.000 C 
ATOM     18  O   UNL     1       5.174   5.475  15.210  0.00  0.00    +0.000 OA
ENDBRANCH  15  18
ENDBRANCH   5  15
ENDBRANCH   1   7
BRANCH   2  19
ATOM     19  C   UNL     1       0.901   9.964  20.005  0.00  0.00    +0.000 C 
ATOM     20  C   UNL     1       0.765   9.282  21.363  0.00  0.00    +0.000 C 
BRANCH  19  21
ATOM     21  N   UNL     1      -0.410  10.360  19.477  0.00  0.00    +0.000 N 
ATOM     22  C   UNL     1      -0.589  11.556  18.826  0.00  0.00    +0.000 C 
ATOM     23  O   UNL     1       0.310  12.394  18.746  0.00  0.00    +0.000 OA
ATOM     24  H   UNL     1      -1.180   9.711  19.609  0.00  0.00    +0.000 HD
BRANCH  22  25
ATOM     25  C   UNL     1      -1.976  11.771  18.234  0.00  0.00    +0.000 C 
BRANCH  25  26
ATOM     26  C   UNL     1      -2.698  10.438  17.916  0.00  0.00    +0.000 C 
ATOM     27  C   UNL     1      -4.228  10.587  17.836  0.00  0.00    +0.000 C 
ATOM     28  C   UNL     1      -4.660  11.425  16.638  0.00  0.00    +0.000 C 
ATOM     29  C   UNL     1      -4.165  10.806  15.337  0.00  0.00    +0.000 C 
ATOM     30  C   UNL     1      -2.660  10.537  15.350  0.00  0.00    +0.000 C 
ATOM     31  C   UNL     1      -2.198   9.797  16.607  0.00  0.00    +0.000 C 
ENDBRANCH  25  26
ENDBRANCH  22  25
ENDBRANCH  19  21
ENDBRANCH   2  19
TORSDOF 7
ENDMDL
MODEL 8
REMARK VINA RESULT:      -7.6      3.094      8.439
REMARK  Name = 
REMARK  9 active torsions:
REMARK  status: ('A' for Active; 'I' for Inactive)
REMARK    1  A    between atoms: C_1  and  O_2
REMARK    2  A    between atoms: O_2  and  C_3
REMARK    3  A    between atoms: C_3  and  C_5
REMARK    4  A    between atoms: C_7  and  N_8
REMARK    5  A    between atoms: C_9  and  C_11
REMARK    6  A    between atoms: C_11  and  C_12
REMARK    7  A    between atoms: C_11  and  N_13
REMARK    8  A    between atoms: C_14  and  C_16
REMARK    9  A    between atoms: C_16  and  C_17
REMARK                            x       y       z     vdW  Elec       q    Type
REMARK                         _______ _______ _______ _____ _____    ______ ____
ROOT
ATOM      1  N   UNL     1       2.466   5.919  20.134  0.00  0.00    +0.000 N 
ATOM      2  C   UNL     1       1.747   4.730  20.212  0.00  0.00    +0.000 C 
ATOM      3  O   UNL     1       0.521   4.630  20.257  0.00  0.00    +0.000 OA
ATOM      4  H   UNL     1       3.461   5.846  19.957  0.00  0.00    +0.000 HD
ENDROOT
BRANCH   1   7
ATOM      5  C   UNL     1       0.834   9.081  21.360  0.00  0.00    +0.000 A 
ATOM      6  C   UNL     1       1.349   7.768  21.336  0.00  0.00    +0.000 A 
ATOM      7  C   UNL     1       1.947   7.238  20.192  0.00  0.00    +0.000 A 
ATOM      8  C   UNL     1       2.066   8.038  19.042  0.00  0.00    +0.000 A 
ATOM      9  C   UNL     1       1.511   9.332  19.061  0.00  0.00    +0.000 A 
ATOM     10  N   UNL     1       1.449  10.290  18.069  0.00  0.00    +0.000 N 
ATOM     11  C   UNL     1       0.801  11.405  18.524  0.00  0.00    +0.000 A 
ATOM     12  C   UNL     1       0.452  11.180  19.834  0.00  0.00    +0.000 A 
ATOM     13  C   UNL     1       0.887   9.869  20.189  0.00  0.00    +0.000 A 
ATOM     14  H   UNL     1       1.817  10.177  17.134  0.00  0.00    +0.000 HD
BRANCH   5  15
ATOM     15  C   UNL     1       0.228   9.640  22.592  0.00  0.00    +0.000 C 
ATOM     16  O   UNL     1       0.762   9.658  23.687  0.00  0.00    +0.000 OA
BRANCH  15  18
ATOM     17  C   UNL     1      -1.465  11.163  23.127  0.00  0.00    +0.000 C 
ATOM     18  O   UNL     1      -1.028  10.075  22.312  0.00  0.00    +0.000 OA
ENDBRANCH  15  18
ENDBRANCH   5  15
ENDBRANCH   1   7
BRANCH   2  19
ATOM     19  C   UNL     1       2.636   3.464  20.192  0.00  0.00    +0.000 C 
ATOM     20  C   UNL     1       2.651   2.801  21.566  0.00  0.00    +0.000 C 
BRANCH  19  21
ATOM     21  N   UNL     1       3.993   3.806  19.753  0.00  0.00    +0.000 N 
ATOM     22  C   UNL     1       4.445   3.478  18.497  0.00  0.00    +0.000 C 
ATOM     23  O   UNL     1       3.774   2.795  17.723  0.00  0.00    +0.000 OA
ATOM     24  H   UNL     1       4.586   4.299  20.414  0.00  0.00    +0.000 HD
BRANCH  22  25
ATOM     25  C   UNL     1       5.832   4.002  18.149  0.00  0.00    +0.000 C 
BRANCH  25  26
ATOM     26  C   UNL     1       5.788   5.409  17.502  0.00  0.00    +0.000 C 
ATOM     27  C   UNL     1       7.161   5.876  16.986  0.00  0.00    +0.000 C 
ATOM     28  C   UNL     1       7.641   5.044  15.802  0.00  0.00    +0.000 C 
ATOM     29  C   UNL     1       6.644   5.111  14.652  0.00  0.00    +0.000 C 
ATOM     30  C   UNL     1       5.224   4.745  15.085  0.00  0.00    +0.000 C 
ATOM     31  C   UNL     1       4.774   5.491  16.343  0.00  0.00    +0.000 C 
ENDBRANCH  25  26
ENDBRANCH  22  25
ENDBRANCH  19  21
ENDBRANCH   2  19
TORSDOF 7
ENDMDL
MODEL 9
REMARK VINA RESULT:      -7.5      3.568      5.707
REMARK  Name = 
REMARK  9 active torsions:
REMARK  status: ('A' for Active; 'I' for Inactive)
REMARK    1  A    between atoms: C_1  and  O_2
REMARK    2  A    between atoms: O_2  and  C_3
REMARK    3  A    between atoms: C_3  and  C_5
REMARK    4  A    between atoms: C_7  and  N_8
REMARK    5  A    between atoms: C_9  and  C_11
REMARK    6  A    between atoms: C_11  and  C_12
REMARK    7  A    between atoms: C_11  and  N_13
REMARK    8  A    between atoms: C_14  and  C_16
REMARK    9  A    between atoms: C_16  and  C_17
REMARK                            x       y       z     vdW  Elec       q    Type
REMARK                         _______ _______ _______ _____ _____    ______ ____
ROOT
ATOM      1  N   UNL     1       3.121   4.199  18.273  0.00  0.00    +0.000 N 
ATOM      2  C   UNL     1       2.939   3.091  19.095  0.00  0.00    +0.000 C 
ATOM      3  O   UNL     1       3.798   2.259  19.387  0.00  0.00    +0.000 OA
ATOM      4  H   UNL     1       2.369   4.876  18.238  0.00  0.00    +0.000 HD
ENDROOT
BRANCH   1   7
ATOM      5  C   UNL     1       6.421   5.705  17.268  0.00  0.00    +0.000 A 
ATOM      6  C   UNL     1       5.278   5.384  18.029  0.00  0.00    +0.000 A 
ATOM      7  C   UNL     1       4.286   4.535  17.536  0.00  0.00    +0.000 A 
ATOM      8  C   UNL     1       4.440   3.962  16.262  0.00  0.00    +0.000 A 
ATOM      9  C   UNL     1       5.562   4.321  15.492  0.00  0.00    +0.000 A 
ATOM     10  N   UNL     1       5.923   3.948  14.213  0.00  0.00    +0.000 N 
ATOM     11  C   UNL     1       7.095   4.554  13.853  0.00  0.00    +0.000 A 
ATOM     12  C   UNL     1       7.514   5.318  14.915  0.00  0.00    +0.000 A 
ATOM     13  C   UNL     1       6.552   5.190  15.960  0.00  0.00    +0.000 A 
ATOM     14  H   UNL     1       5.389   3.326  13.621  0.00  0.00    +0.000 HD
BRANCH   5  15
ATOM     15  C   UNL     1       7.480   6.586  17.817  0.00  0.00    +0.000 C 
ATOM     16  O   UNL     1       8.157   6.335  18.799  0.00  0.00    +0.000 OA
BRANCH  15  18
ATOM     17  C   UNL     1       7.958   8.876  17.822  0.00  0.00    +0.000 C 
ATOM     18  O   UNL     1       7.533   7.729  17.085  0.00  0.00    +0.000 OA
ENDBRANCH  15  18
ENDBRANCH   5  15
ENDBRANCH   1   7
BRANCH   2  19
ATOM     19  C   UNL     1       1.515   2.987  19.692  0.00  0.00    +0.000 C 
ATOM     20  C   UNL     1       0.631   2.108  18.812  0.00  0.00    +0.000 C 
BRANCH  19  21
ATOM     21  N   UNL     1       0.936   4.326  19.855  0.00  0.00    +0.000 N 
ATOM     22  C   UNL     1       1.492   5.248  20.709  0.00  0.00    +0.000 C 
ATOM     23  O   UNL     1       2.433   4.963  21.450  0.00  0.00    +0.000 OA
ATOM     24  H   UNL     1       0.110   4.545  19.307  0.00  0.00    +0.000 HD
BRANCH  22  25
ATOM     25  C   UNL     1       0.848   6.628  20.680  0.00  0.00    +0.000 C 
BRANCH  25  26
ATOM     26  C   UNL     1       1.887   7.762  20.491  0.00  0.00    +0.000 C 
ATOM     27  C   UNL     1       2.629   7.679  19.145  0.00  0.00    +0.000 C 
ATOM     28  C   UNL     1       1.705   7.953  17.964  0.00  0.00    +0.000 C 
ATOM     29  C   UNL     1       1.069   9.333  18.081  0.00  0.00    +0.000 C 
ATOM     30  C   UNL     1       0.376   9.546  19.427  0.00  0.00    +0.000 C 
ATOM     31  C   UNL     1       1.255   9.163  20.619  0.00  0.00    +0.000 C 
ENDBRANCH  25  26
ENDBRANCH  22  25
ENDBRANCH  19  21
ENDBRANCH   2  19
TORSDOF 7
ENDMDL
