MODEL 1
REMARK VINA RESULT:      -8.6      0.000      0.000
REMARK  Name = 
REMARK  4 active torsions:
REMARK  status: ('A' for Active; 'I' for Inactive)
REMARK    1  A    between atoms: C_2  and  C_5
REMARK    2  A    between atoms: C_5  and  C_6
REMARK    3  A    between atoms: C_7  and  C_8
REMARK    4  A    between atoms: N_13  and  C_14
REMARK                            x       y       z     vdW  Elec       q    Type
REMARK                         _______ _______ _______ _____ _____    ______ ____
ROOT
ATOM      1  C   UNL     1       0.828  10.284  18.609  0.00  0.00    +0.000 C 
ATOM      2  N   UNL     1       1.527   9.230  17.863  0.00  0.00    +0.000 N 
ATOM      3  C   UNL     1       2.117   8.174  18.473  0.00  0.00    +0.000 C 
ATOM      4  N   UNL     1       2.873   7.436  17.601  0.00  0.00    +0.000 N 
ATOM      5  N   UNL     1       1.967   7.891  19.730  0.00  0.00    +0.000 NA
ATOM      6  C   UNL     1       1.160   8.703  20.529  0.00  0.00    +0.000 A 
ATOM      7  C   UNL     1       0.917   8.308  21.848  0.00  0.00    +0.000 A 
ATOM      8  C   UNL     1       0.139   9.096  22.702  0.00  0.00    +0.000 A 
ATOM      9  C   UNL     1      -0.406  10.285  22.234  0.00  0.00    +0.000 A 
ATOM     10 CL   UNL     1      -1.355  11.272  23.273  0.00  0.00    +0.000 Cl
ATOM     11  C   UNL     1      -0.188  10.681  20.919  0.00  0.00    +0.000 A 
ATOM     12  C   UNL     1       0.602   9.890  20.055  0.00  0.00    +0.000 A 
ATOM     13  H   UNL     1       1.769   9.460  16.910  0.00  0.00    +0.000 HD
ATOM     14  H   UNL     1       2.718   7.534  16.611  0.00  0.00    +0.000 HD
ENDROOT
BRANCH   4  15
ATOM     15  C   UNL     1       3.930   6.574  17.955  0.00  0.00    +0.000 A 
ATOM     16  C   UNL     1       5.249   6.905  17.630  0.00  0.00    +0.000 A 
ATOM     17  C   UNL     1       6.293   6.014  17.918  0.00  0.00    +0.000 A 
ATOM     18  C   UNL     1       6.022   4.789  18.524  0.00  0.00    +0.000 A 
ATOM     19  C   UNL     1       4.717   4.457  18.851  0.00  0.00    +0.000 A 
ATOM     20 BR   UNL     1       4.338   2.804  19.676  0.00  0.00    +0.000 Br
ATOM     21  C   UNL     1       3.679   5.338  18.564  0.00  0.00    +0.000 A 
ENDBRANCH   4  15
BRANCH   1  23
ATOM     22  F   UNL     1       2.585  11.642  17.605  0.00  0.00    +0.000 F 
ATOM     23  C   UNL     1       1.554  11.674  18.487  0.00  0.00    +0.000 C 
ATOM     24  F   UNL     1       2.089  12.063  19.677  0.00  0.00    +0.000 F 
ATOM     25  F   UNL     1       0.740  12.681  18.086  0.00  0.00    +0.000 F 
ENDBRANCH   1  23
BRANCH   1  26
ATOM     26  C   UNL     1      -0.538  10.293  17.941  0.00  0.00    +0.000 C 
ATOM     27  C   UNL     1      -1.708  10.301  17.367  0.00  0.00    +0.000 C 
BRANCH  27  28
ATOM     28  C   UNL     1      -2.985  10.275  16.720  0.00  0.00    +0.000 C 
ATOM     29  C   UNL     1      -3.188  11.151  15.511  0.00  0.00    +0.000 C 
ATOM     30  C   UNL     1      -3.091   9.663  15.349  0.00  0.00    +0.000 C 
ENDBRANCH  27  28
ENDBRANCH   1  26
TORSDOF 4
ENDMDL
MODEL 2
REMARK VINA RESULT:      -8.3      1.024      1.367
REMARK  Name = 
REMARK  4 active torsions:
REMARK  status: ('A' for Active; 'I' for Inactive)
REMARK    1  A    between atoms: C_2  and  C_5
REMARK    2  A    between atoms: C_5  and  C_6
REMARK    3  A    between atoms: C_7  and  C_8
REMARK    4  A    between atoms: N_13  and  C_14
REMARK                            x       y       z     vdW  Elec       q    Type
REMARK                         _______ _______ _______ _____ _____    ______ ____
ROOT
ATOM      1  C   UNL     1       0.772  10.242  18.660  0.00  0.00    +0.000 C 
ATOM      2  N   UNL     1       1.415   9.117  17.969  0.00  0.00    +0.000 N 
ATOM      3  C   UNL     1       1.956   8.067  18.633  0.00  0.00    +0.000 C 
ATOM      4  N   UNL     1       2.672   7.249  17.800  0.00  0.00    +0.000 N 
ATOM      5  N   UNL     1       1.799   7.859  19.903  0.00  0.00    +0.000 NA
ATOM      6  C   UNL     1       1.036   8.750  20.660  0.00  0.00    +0.000 A 
ATOM      7  C   UNL     1       0.781   8.438  21.999  0.00  0.00    +0.000 A 
ATOM      8  C   UNL     1       0.046   9.306  22.812  0.00  0.00    +0.000 A 
ATOM      9  C   UNL     1      -0.443  10.493  22.283  0.00  0.00    +0.000 A 
ATOM     10 CL   UNL     1      -1.338  11.579  23.271  0.00  0.00    +0.000 Cl
ATOM     11  C   UNL     1      -0.212  10.809  20.948  0.00  0.00    +0.000 A 
ATOM     12  C   UNL     1       0.534   9.935  20.125  0.00  0.00    +0.000 A 
ATOM     13  H   UNL     1       1.663   9.284  17.005  0.00  0.00    +0.000 HD
ATOM     14  H   UNL     1       2.517   7.301  16.805  0.00  0.00    +0.000 HD
ENDROOT
BRANCH   4  15
ATOM     15  C   UNL     1       3.688   6.356  18.196  0.00  0.00    +0.000 A 
ATOM     16  C   UNL     1       3.360   5.121  18.764  0.00  0.00    +0.000 A 
ATOM     17  C   UNL     1       4.369   4.264  19.223  0.00  0.00    +0.000 A 
ATOM     18  C   UNL     1       5.708   4.641  19.126  0.00  0.00    +0.000 A 
ATOM     19  C   UNL     1       6.039   5.863  18.563  0.00  0.00    +0.000 A 
ATOM     20 BR   UNL     1       7.846   6.382  18.420  0.00  0.00    +0.000 Br
ATOM     21  C   UNL     1       5.038   6.716  18.107  0.00  0.00    +0.000 A 
ENDBRANCH   4  15
BRANCH   1  23
ATOM     22  F   UNL     1       2.543  11.477  17.529  0.00  0.00    +0.000 F 
ATOM     23  C   UNL     1       1.563  11.587  18.463  0.00  0.00    +0.000 C 
ATOM     24  F   UNL     1       2.182  11.973  19.612  0.00  0.00    +0.000 F 
ATOM     25  F   UNL     1       0.784  12.626  18.078  0.00  0.00    +0.000 F 
ENDBRANCH   1  23
BRANCH   1  26
ATOM     26  C   UNL     1      -0.595  10.281  17.995  0.00  0.00    +0.000 C 
ATOM     27  C   UNL     1      -1.767  10.316  17.425  0.00  0.00    +0.000 C 
BRANCH  27  28
ATOM     28  C   UNL     1      -3.038  10.372  16.769  0.00  0.00    +0.000 C 
ATOM     29  C   UNL     1      -3.152  11.184  15.505  0.00  0.00    +0.000 C 
ATOM     30  C   UNL     1      -3.198   9.686  15.439  0.00  0.00    +0.000 C 
ENDBRANCH  27  28
ENDBRANCH   1  26
TORSDOF 4
ENDMDL
MODEL 3
REMARK VINA RESULT:      -8.2      0.471      1.012
REMARK  Name = 
REMARK  4 active torsions:
REMARK  status: ('A' for Active; 'I' for Inactive)
REMARK    1  A    between atoms: C_2  and  C_5
REMARK    2  A    between atoms: C_5  and  C_6
REMARK    3  A    between atoms: C_7  and  C_8
REMARK    4  A    between atoms: N_13  and  C_14
REMARK                            x       y       z     vdW  Elec       q    Type
REMARK                         _______ _______ _______ _____ _____    ______ ____
ROOT
ATOM      1  C   UNL     1       0.752  10.383  18.595  0.00  0.00    +0.000 C 
ATOM      2  N   UNL     1       1.451   9.348  17.822  0.00  0.00    +0.000 N 
ATOM      3  C   UNL     1       2.065   8.292  18.406  0.00  0.00    +0.000 C 
ATOM      4  N   UNL     1       2.816   7.577  17.511  0.00  0.00    +0.000 N 
ATOM      5  N   UNL     1       1.942   7.990  19.661  0.00  0.00    +0.000 NA
ATOM      6  C   UNL     1       1.140   8.780  20.486  0.00  0.00    +0.000 A 
ATOM      7  C   UNL     1       0.926   8.364  21.804  0.00  0.00    +0.000 A 
ATOM      8  C   UNL     1       0.153   9.129  22.683  0.00  0.00    +0.000 A 
ATOM      9  C   UNL     1      -0.416  10.317  22.242  0.00  0.00    +0.000 A 
ATOM     10 CL   UNL     1      -1.359  11.277  23.311  0.00  0.00    +0.000 Cl
ATOM     11  C   UNL     1      -0.227  10.734  20.929  0.00  0.00    +0.000 A 
ATOM     12  C   UNL     1       0.557   9.965  20.039  0.00  0.00    +0.000 A 
ATOM     13  H   UNL     1       1.672   9.594  16.868  0.00  0.00    +0.000 HD
ATOM     14  H   UNL     1       2.641   7.686  16.524  0.00  0.00    +0.000 HD
ENDROOT
BRANCH   4  15
ATOM     15  C   UNL     1       3.890   6.724  17.833  0.00  0.00    +0.000 A 
ATOM     16  C   UNL     1       5.193   7.055  17.449  0.00  0.00    +0.000 A 
ATOM     17  C   UNL     1       6.252   6.173  17.707  0.00  0.00    +0.000 A 
ATOM     18  C   UNL     1       6.012   4.956  18.342  0.00  0.00    +0.000 A 
ATOM     19  C   UNL     1       4.723   4.623  18.727  0.00  0.00    +0.000 A 
ATOM     20 BR   UNL     1       4.386   2.982  19.592  0.00  0.00    +0.000 Br
ATOM     21  C   UNL     1       3.670   5.497  18.471  0.00  0.00    +0.000 A 
ENDBRANCH   4  15
BRANCH   1  23
ATOM     22  F   UNL     1       1.977  12.199  19.662  0.00  0.00    +0.000 F 
ATOM     23  C   UNL     1       1.457  11.784  18.479  0.00  0.00    +0.000 C 
ATOM     24  F   UNL     1       0.581  12.752  18.094  0.00  0.00    +0.000 F 
ATOM     25  F   UNL     1       2.474  11.810  17.585  0.00  0.00    +0.000 F 
ENDBRANCH   1  23
BRANCH   1  26
ATOM     26  C   UNL     1      -0.626  10.382  17.951  0.00  0.00    +0.000 C 
ATOM     27  C   UNL     1      -1.807  10.381  17.399  0.00  0.00    +0.000 C 
BRANCH  27  28
ATOM     28  C   UNL     1      -3.116  10.354  16.821  0.00  0.00    +0.000 C 
ATOM     29  C   UNL     1      -4.304  10.337  17.747  0.00  0.00    +0.000 C 
ATOM     30  C   UNL     1      -3.992  11.571  16.953  0.00  0.00    +0.000 C 
ENDBRANCH  27  28
ENDBRANCH   1  26
TORSDOF 4
ENDMDL
MODEL 4
REMARK VINA RESULT:      -8.0      1.385      1.761
REMARK  Name = 
REMARK  4 active torsions:
REMARK  status: ('A' for Active; 'I' for Inactive)
REMARK    1  A    between atoms: C_2  and  C_5
REMARK    2  A    between atoms: C_5  and  C_6
REMARK    3  A    between atoms: C_7  and  C_8
REMARK    4  A    between atoms: N_13  and  C_14
REMARK                            x       y       z     vdW  Elec       q    Type
REMARK                         _______ _______ _______ _____ _____    ______ ____
ROOT
ATOM      1  C   UNL     1       0.472  11.004  18.794  0.00  0.00    +0.000 C 
ATOM      2  N   UNL     1       1.059   9.882  18.053  0.00  0.00    +0.000 N 
ATOM      3  C   UNL     1       1.554   8.781  18.668  0.00  0.00    +0.000 C 
ATOM      4  N   UNL     1       2.228   7.966  17.796  0.00  0.00    +0.000 N 
ATOM      5  N   UNL     1       1.393   8.526  19.929  0.00  0.00    +0.000 NA
ATOM      6  C   UNL     1       0.676   9.418  20.728  0.00  0.00    +0.000 A 
ATOM      7  C   UNL     1       0.413   9.061  22.054  0.00  0.00    +0.000 A 
ATOM      8  C   UNL     1      -0.278   9.927  22.908  0.00  0.00    +0.000 A 
ATOM      9  C   UNL     1      -0.714  11.157  22.433  0.00  0.00    +0.000 A 
ATOM     10 CL   UNL     1      -1.554  12.240  23.471  0.00  0.00    +0.000 Cl
ATOM     11  C   UNL     1      -0.475  11.518  21.111  0.00  0.00    +0.000 A 
ATOM     12  C   UNL     1       0.226  10.647  20.247  0.00  0.00    +0.000 A 
ATOM     13  H   UNL     1       1.311  10.078  17.094  0.00  0.00    +0.000 HD
ATOM     14  H   UNL     1       2.071   8.068  16.806  0.00  0.00    +0.000 HD
ENDROOT
BRANCH   4  15
ATOM     15  C   UNL     1       3.203   7.012  18.148  0.00  0.00    +0.000 A 
ATOM     16  C   UNL     1       2.956   6.096  19.175  0.00  0.00    +0.000 A 
ATOM     17  C   UNL     1       3.952   5.194  19.573  0.00  0.00    +0.000 A 
ATOM     18  C   UNL     1       5.200   5.209  18.953  0.00  0.00    +0.000 A 
ATOM     19  C   UNL     1       5.451   6.114  17.934  0.00  0.00    +0.000 A 
ATOM     20 BR   UNL     1       7.134   6.141  17.083  0.00  0.00    +0.000 Br
ATOM     21  C   UNL     1       4.464   7.011  17.538  0.00  0.00    +0.000 A 
ENDBRANCH   4  15
BRANCH   1  23
ATOM     22  F   UNL     1       2.298  12.201  17.711  0.00  0.00    +0.000 F 
ATOM     23  C   UNL     1       1.323  12.319  18.649  0.00  0.00    +0.000 C 
ATOM     24  F   UNL     1       1.958  12.632  19.812  0.00  0.00    +0.000 F 
ATOM     25  F   UNL     1       0.592  13.407  18.306  0.00  0.00    +0.000 F 
ENDBRANCH   1  23
BRANCH   1  26
ATOM     26  C   UNL     1      -0.895  11.135  18.141  0.00  0.00    +0.000 C 
ATOM     27  C   UNL     1      -2.067  11.246  17.580  0.00  0.00    +0.000 C 
BRANCH  27  28
ATOM     28  C   UNL     1      -3.366  11.338  16.986  0.00  0.00    +0.000 C 
ATOM     29  C   UNL     1      -4.437  10.393  17.466  0.00  0.00    +0.000 C 
ATOM     30  C   UNL     1      -4.510  11.849  17.820  0.00  0.00    +0.000 C 
ENDBRANCH  27  28
ENDBRANCH   1  26
TORSDOF 4
ENDMDL
MODEL 5
REMARK VINA RESULT:      -7.8      1.066      1.456
REMARK  Name = 
REMARK  4 active torsions:
REMARK  status: ('A' for Active; 'I' for Inactive)
REMARK    1  A    between atoms: C_2  and  C_5
REMARK    2  A    between atoms: C_5  and  C_6
REMARK    3  A    between atoms: C_7  and  C_8
REMARK    4  A    between atoms: N_13  and  C_14
REMARK                            x       y       z     vdW  Elec       q    Type
REMARK                         _______ _______ _______ _____ _____    ______ ____
ROOT
ATOM      1  C   UNL     1       0.429  11.059  18.802  0.00  0.00    +0.000 C 
ATOM      2  N   UNL     1       0.982   9.940  18.029  0.00  0.00    +0.000 N 
ATOM      3  C   UNL     1       1.476   8.823  18.616  0.00  0.00    +0.000 C 
ATOM      4  N   UNL     1       2.117   8.013  17.715  0.00  0.00    +0.000 N 
ATOM      5  N   UNL     1       1.342   8.550  19.876  0.00  0.00    +0.000 NA
ATOM      6  C   UNL     1       0.656   9.440  20.705  0.00  0.00    +0.000 A 
ATOM      7  C   UNL     1       0.420   9.066  22.032  0.00  0.00    +0.000 A 
ATOM      8  C   UNL     1      -0.238   9.928  22.915  0.00  0.00    +0.000 A 
ATOM      9  C   UNL     1      -0.668  11.171  22.469  0.00  0.00    +0.000 A 
ATOM     10 CL   UNL     1      -1.467  12.249  23.544  0.00  0.00    +0.000 Cl
ATOM     11  C   UNL     1      -0.455  11.549  21.148  0.00  0.00    +0.000 A 
ATOM     12  C   UNL     1       0.213  10.682  20.254  0.00  0.00    +0.000 A 
ATOM     13  H   UNL     1       1.214  10.148  17.068  0.00  0.00    +0.000 HD
ATOM     14  H   UNL     1       1.938   8.132  16.731  0.00  0.00    +0.000 HD
ENDROOT
BRANCH   4  15
ATOM     15  C   UNL     1       3.087   7.040  18.029  0.00  0.00    +0.000 A 
ATOM     16  C   UNL     1       4.397   7.172  17.560  0.00  0.00    +0.000 A 
ATOM     17  C   UNL     1       5.343   6.169  17.812  0.00  0.00    +0.000 A 
ATOM     18  C   UNL     1       4.982   5.028  18.525  0.00  0.00    +0.000 A 
ATOM     19  C   UNL     1       3.685   4.891  18.994  0.00  0.00    +0.000 A 
ATOM     20 BR   UNL     1       3.186   3.354  19.966  0.00  0.00    +0.000 Br
ATOM     21  C   UNL     1       2.744   5.885  18.744  0.00  0.00    +0.000 A 
ENDBRANCH   4  15
BRANCH   1  23
ATOM     22  F   UNL     1       0.566  13.422  18.221  0.00  0.00    +0.000 F 
ATOM     23  C   UNL     1       1.296  12.363  18.656  0.00  0.00    +0.000 C 
ATOM     24  F   UNL     1       2.296  12.198  17.748  0.00  0.00    +0.000 F 
ATOM     25  F   UNL     1       1.887  12.756  19.810  0.00  0.00    +0.000 F 
ENDBRANCH   1  23
BRANCH   1  26
ATOM     26  C   UNL     1      -0.951  11.219  18.183  0.00  0.00    +0.000 C 
ATOM     27  C   UNL     1      -2.134  11.355  17.654  0.00  0.00    +0.000 C 
BRANCH  27  28
ATOM     28  C   UNL     1      -3.438  11.540  17.091  0.00  0.00    +0.000 C 
ATOM     29  C   UNL     1      -4.511  10.540  17.437  0.00  0.00    +0.000 C 
ATOM     30  C   UNL     1      -4.572  11.929  18.001  0.00  0.00    +0.000 C 
ENDBRANCH  27  28
ENDBRANCH   1  26
TORSDOF 4
ENDMDL
MODEL 6
REMARK VINA RESULT:      -7.0      2.835      4.533
REMARK  Name = 
REMARK  4 active torsions:
REMARK  status: ('A' for Active; 'I' for Inactive)
REMARK    1  A    between atoms: C_2  and  C_5
REMARK    2  A    between atoms: C_5  and  C_6
REMARK    3  A    between atoms: C_7  and  C_8
REMARK    4  A    between atoms: N_13  and  C_14
REMARK                            x       y       z     vdW  Elec       q    Type
REMARK                         _______ _______ _______ _____ _____    ______ ____
ROOT
ATOM      1  C   UNL     1      -0.242  11.492  19.625  0.00  0.00    +0.000 C 
ATOM      2  N   UNL     1       1.034  10.803  19.394  0.00  0.00    +0.000 N 
ATOM      3  C   UNL     1       1.149   9.740  18.563  0.00  0.00    +0.000 C 
ATOM      4  N   UNL     1       2.378   9.143  18.662  0.00  0.00    +0.000 N 
ATOM      5  N   UNL     1       0.210   9.349  17.758  0.00  0.00    +0.000 NA
ATOM      6  C   UNL     1      -1.003  10.039  17.726  0.00  0.00    +0.000 A 
ATOM      7  C   UNL     1      -1.952   9.673  16.766  0.00  0.00    +0.000 A 
ATOM      8  C   UNL     1      -3.195  10.311  16.704  0.00  0.00    +0.000 A 
ATOM      9  C   UNL     1      -3.491  11.326  17.603  0.00  0.00    +0.000 A 
ATOM     10 CL   UNL     1      -5.018  12.113  17.550  0.00  0.00    +0.000 Cl
ATOM     11  C   UNL     1      -2.551  11.713  18.552  0.00  0.00    +0.000 A 
ATOM     12  C   UNL     1      -1.296  11.067  18.620  0.00  0.00    +0.000 A 
ATOM     13  H   UNL     1       1.758  10.991  20.073  0.00  0.00    +0.000 HD
ATOM     14  H   UNL     1       3.142   9.654  19.075  0.00  0.00    +0.000 HD
ENDROOT
BRANCH   4  15
ATOM     15  C   UNL     1       2.680   7.816  18.296  0.00  0.00    +0.000 A 
ATOM     16  C   UNL     1       1.967   6.751  18.853  0.00  0.00    +0.000 A 
ATOM     17  C   UNL     1       2.314   5.428  18.543  0.00  0.00    +0.000 A 
ATOM     18  C   UNL     1       3.379   5.166  17.684  0.00  0.00    +0.000 A 
ATOM     19  C   UNL     1       4.089   6.218  17.128  0.00  0.00    +0.000 A 
ATOM     20 BR   UNL     1       5.529   5.877  15.959  0.00  0.00    +0.000 Br
ATOM     21  C   UNL     1       3.747   7.531  17.435  0.00  0.00    +0.000 A 
ENDBRANCH   4  15
BRANCH   1  23
ATOM     22  F   UNL     1       0.117  11.865  22.006  0.00  0.00    +0.000 F 
ATOM     23  C   UNL     1      -0.744  11.326  21.106  0.00  0.00    +0.000 C 
ATOM     24  F   UNL     1      -0.869  10.014  21.446  0.00  0.00    +0.000 F 
ATOM     25  F   UNL     1      -1.949  11.899  21.340  0.00  0.00    +0.000 F 
ENDBRANCH   1  23
BRANCH   1  26
ATOM     26  C   UNL     1       0.113  12.934  19.300  0.00  0.00    +0.000 C 
ATOM     27  C   UNL     1       0.418  14.171  19.022  0.00  0.00    +0.000 C 
BRANCH  27  28
ATOM     28  C   UNL     1       0.758  15.518  18.679  0.00  0.00    +0.000 C 
ATOM     29  C   UNL     1      -0.359  16.522  18.545  0.00  0.00    +0.000 C 
ATOM     30  C   UNL     1       0.579  16.597  19.714  0.00  0.00    +0.000 C 
ENDBRANCH  27  28
ENDBRANCH   1  26
TORSDOF 4
ENDMDL
MODEL 7
REMARK VINA RESULT:      -6.9      5.242      8.612
REMARK  Name = 
REMARK  4 active torsions:
REMARK  status: ('A' for Active; 'I' for Inactive)
REMARK    1  A    between atoms: C_2  and  C_5
REMARK    2  A    between atoms: C_5  and  C_6
REMARK    3  A    between atoms: C_7  and  C_8
REMARK    4  A    between atoms: N_13  and  C_14
REMARK                            x       y       z     vdW  Elec       q    Type
REMARK                         _______ _______ _______ _____ _____    ______ ____
ROOT
ATOM      1  C   UNL     1      -1.045  11.964  19.284  0.00  0.00    +0.000 C 
ATOM      2  N   UNL     1      -1.863  13.122  19.667  0.00  0.00    +0.000 N 
ATOM      3  C   UNL     1      -2.454  13.228  20.881  0.00  0.00    +0.000 C 
ATOM      4  N   UNL     1      -3.322  14.286  20.937  0.00  0.00    +0.000 N 
ATOM      5  N   UNL     1      -2.211  12.430  21.874  0.00  0.00    +0.000 NA
ATOM      6  C   UNL     1      -1.295  11.389  21.714  0.00  0.00    +0.000 A 
ATOM      7  C   UNL     1      -0.959  10.620  22.832  0.00  0.00    +0.000 A 
ATOM      8  C   UNL     1      -0.068   9.547  22.726  0.00  0.00    +0.000 A 
ATOM      9  C   UNL     1       0.498   9.244  21.495  0.00  0.00    +0.000 A 
ATOM     10 CL   UNL     1       1.586   7.922  21.343  0.00  0.00    +0.000 Cl
ATOM     11  C   UNL     1       0.188  10.012  20.378  0.00  0.00    +0.000 A 
ATOM     12  C   UNL     1      -0.716  11.093  20.480  0.00  0.00    +0.000 A 
ATOM     13  H   UNL     1      -2.174  13.706  18.903  0.00  0.00    +0.000 HD
ATOM     14  H   UNL     1      -3.249  15.020  20.250  0.00  0.00    +0.000 HD
ENDROOT
BRANCH   4  15
ATOM     15  C   UNL     1      -4.390  14.427  21.846  0.00  0.00    +0.000 A 
ATOM     16  C   UNL     1      -4.386  15.465  22.783  0.00  0.00    +0.000 A 
ATOM     17  C   UNL     1      -5.412  15.563  23.733  0.00  0.00    +0.000 A 
ATOM     18  C   UNL     1      -6.440  14.621  23.755  0.00  0.00    +0.000 A 
ATOM     19  C   UNL     1      -6.450  13.592  22.828  0.00  0.00    +0.000 A 
ATOM     20 BR   UNL     1      -7.837  12.315  22.844  0.00  0.00    +0.000 Br
ATOM     21  C   UNL     1      -5.432  13.492  21.885  0.00  0.00    +0.000 A 
ENDBRANCH   4  15
BRANCH   1  23
ATOM     22  F   UNL     1      -2.228  11.932  17.153  0.00  0.00    +0.000 F 
ATOM     23  C   UNL     1      -1.702  11.136  18.119  0.00  0.00    +0.000 C 
ATOM     24  F   UNL     1      -2.730  10.368  18.573  0.00  0.00    +0.000 F 
ATOM     25  F   UNL     1      -0.841  10.296  17.495  0.00  0.00    +0.000 F 
ENDBRANCH   1  23
BRANCH   1  26
ATOM     26  C   UNL     1       0.255  12.623  18.853  0.00  0.00    +0.000 C 
ATOM     27  C   UNL     1       1.371  13.187  18.483  0.00  0.00    +0.000 C 
BRANCH  27  28
ATOM     28  C   UNL     1       2.579  13.817  18.044  0.00  0.00    +0.000 C 
ATOM     29  C   UNL     1       2.701  15.311  18.201  0.00  0.00    +0.000 C 
ATOM     30  C   UNL     1       3.510  14.398  19.074  0.00  0.00    +0.000 C 
ENDBRANCH  27  28
ENDBRANCH   1  26
TORSDOF 4
ENDMDL
MODEL 8
REMARK VINA RESULT:      -6.9      3.005      4.624
REMARK  Name = 
REMARK  4 active torsions:
REMARK  status: ('A' for Active; 'I' for Inactive)
REMARK    1  A    between atoms: C_2  and  C_5
REMARK    2  A    between atoms: C_5  and  C_6
REMARK    3  A    between atoms: C_7  and  C_8
REMARK    4  A    between atoms: N_13  and  C_14
REMARK                            x       y       z     vdW  Elec       q    Type
REMARK                         _______ _______ _______ _____ _____    ______ ____
ROOT
ATOM      1  C   UNL     1      -0.650  11.868  19.838  0.00  0.00    +0.000 C 
ATOM      2  N   UNL     1       0.651  11.200  19.709  0.00  0.00    +0.000 N 
ATOM      3  C   UNL     1       0.825  10.079  18.969  0.00  0.00    +0.000 C 
ATOM      4  N   UNL     1       2.064   9.527  19.159  0.00  0.00    +0.000 N 
ATOM      5  N   UNL     1      -0.073   9.598  18.166  0.00  0.00    +0.000 NA
ATOM      6  C   UNL     1      -1.301  10.248  18.035  0.00  0.00    +0.000 A 
ATOM      7  C   UNL     1      -2.203   9.781  17.074  0.00  0.00    +0.000 A 
ATOM      8  C   UNL     1      -3.459  10.376  16.918  0.00  0.00    +0.000 A 
ATOM      9  C   UNL     1      -3.815  11.450  17.723  0.00  0.00    +0.000 A 
ATOM     10 CL   UNL     1      -5.359  12.186  17.553  0.00  0.00    +0.000 Cl
ATOM     11  C   UNL     1      -2.921  11.937  18.670  0.00  0.00    +0.000 A 
ATOM     12  C   UNL     1      -1.653  11.335  18.834  0.00  0.00    +0.000 A 
ATOM     13  H   UNL     1       1.344  11.462  20.396  0.00  0.00    +0.000 HD
ATOM     14  H   UNL     1       2.799  10.091  19.557  0.00  0.00    +0.000 HD
ENDROOT
BRANCH   4  15
ATOM     15  C   UNL     1       2.414   8.185  18.911  0.00  0.00    +0.000 A 
ATOM     16  C   UNL     1       3.065   7.833  17.725  0.00  0.00    +0.000 A 
ATOM     17  C   UNL     1       3.349   6.489  17.446  0.00  0.00    +0.000 A 
ATOM     18  C   UNL     1       2.978   5.492  18.346  0.00  0.00    +0.000 A 
ATOM     19  C   UNL     1       2.334   5.835  19.524  0.00  0.00    +0.000 A 
ATOM     20 BR   UNL     1       1.830   4.496  20.753  0.00  0.00    +0.000 Br
ATOM     21  C   UNL     1       2.049   7.168  19.803  0.00  0.00    +0.000 A 
ENDBRANCH   4  15
BRANCH   1  23
ATOM     22  F   UNL     1      -1.211  10.541  21.804  0.00  0.00    +0.000 F 
ATOM     23  C   UNL     1      -1.203  11.805  21.309  0.00  0.00    +0.000 C 
ATOM     24  F   UNL     1      -2.490  12.243  21.377  0.00  0.00    +0.000 F 
ATOM     25  F   UNL     1      -0.496  12.554  22.189  0.00  0.00    +0.000 F 
ENDBRANCH   1  23
BRANCH   1  26
ATOM     26  C   UNL     1      -0.320  13.290  19.413  0.00  0.00    +0.000 C 
ATOM     27  C   UNL     1      -0.037  14.509  19.048  0.00  0.00    +0.000 C 
BRANCH  27  28
ATOM     28  C   UNL     1       0.299  15.833  18.622  0.00  0.00    +0.000 C 
ATOM     29  C   UNL     1      -0.780  16.885  18.646  0.00  0.00    +0.000 C 
ATOM     30  C   UNL     1       0.338  16.936  19.645  0.00  0.00    +0.000 C 
ENDBRANCH  27  28
ENDBRANCH   1  26
TORSDOF 4
ENDMDL
MODEL 9
REMARK VINA RESULT:      -6.8      4.359      8.040
REMARK  Name = 
REMARK  4 active torsions:
REMARK  status: ('A' for Active; 'I' for Inactive)
REMARK    1  A    between atoms: C_2  and  C_5
REMARK    2  A    between atoms: C_5  and  C_6
REMARK    3  A    between atoms: C_7  and  C_8
REMARK    4  A    between atoms: N_13  and  C_14
REMARK                            x       y       z     vdW  Elec       q    Type
REMARK                         _______ _______ _______ _____ _____    ______ ____
ROOT
ATOM      1  C   UNL     1       0.017  10.627  19.755  0.00  0.00    +0.000 C 
ATOM      2  N   UNL     1      -1.306  10.344  19.185  0.00  0.00    +0.000 N 
ATOM      3  C   UNL     1      -2.113  11.316  18.697  0.00  0.00    +0.000 C 
ATOM      4  N   UNL     1      -3.366  10.844  18.408  0.00  0.00    +0.000 N 
ATOM      5  N   UNL     1      -1.735  12.543  18.514  0.00  0.00    +0.000 NA
ATOM      6  C   UNL     1      -0.428  12.917  18.829  0.00  0.00    +0.000 A 
ATOM      7  C   UNL     1      -0.010  14.212  18.509  0.00  0.00    +0.000 A 
ATOM      8  C   UNL     1       1.280  14.651  18.826  0.00  0.00    +0.000 A 
ATOM      9  C   UNL     1       2.161  13.787  19.463  0.00  0.00    +0.000 A 
ATOM     10 CL   UNL     1       3.746  14.312  19.872  0.00  0.00    +0.000 Cl
ATOM     11  C   UNL     1       1.765  12.490  19.772  0.00  0.00    +0.000 A 
ATOM     12  C   UNL     1       0.461  12.046  19.457  0.00  0.00    +0.000 A 
ATOM     13  H   UNL     1      -1.690   9.436  19.407  0.00  0.00    +0.000 HD
ATOM     14  H   UNL     1      -3.506   9.852  18.298  0.00  0.00    +0.000 HD
ENDROOT
BRANCH   4  15
ATOM     15  C   UNL     1      -4.537  11.622  18.310  0.00  0.00    +0.000 A 
ATOM     16  C   UNL     1      -5.054  11.966  17.057  0.00  0.00    +0.000 A 
ATOM     17  C   UNL     1      -6.177  12.799  16.959  0.00  0.00    +0.000 A 
ATOM     18  C   UNL     1      -6.782  13.298  18.111  0.00  0.00    +0.000 A 
ATOM     19  C   UNL     1      -6.275  12.961  19.356  0.00  0.00    +0.000 A 
ATOM     20 BR   UNL     1      -7.088  13.626  20.922  0.00  0.00    +0.000 Br
ATOM     21  C   UNL     1      -5.160  12.135  19.455  0.00  0.00    +0.000 A 
ENDBRANCH   4  15
BRANCH   1  23
ATOM     22  F   UNL     1       1.339  10.024  21.711  0.00  0.00    +0.000 F 
ATOM     23  C   UNL     1       0.079  10.304  21.293  0.00  0.00    +0.000 C 
ATOM     24  F   UNL     1      -0.672   9.211  21.603  0.00  0.00    +0.000 F 
ATOM     25  F   UNL     1      -0.370  11.312  22.080  0.00  0.00    +0.000 F 
ENDBRANCH   1  23
BRANCH   1  26
ATOM     26  C   UNL     1       0.915   9.709  18.942  0.00  0.00    +0.000 C 
ATOM     27  C   UNL     1       1.686   8.921  18.246  0.00  0.00    +0.000 C 
BRANCH  27  28
ATOM     28  C   UNL     1       2.510   8.026  17.491  0.00  0.00    +0.000 C 
ATOM     29  C   UNL     1       3.718   7.429  18.167  0.00  0.00    +0.000 C 
ATOM     30  C   UNL     1       2.527   6.568  17.864  0.00  0.00    +0.000 C 
ENDBRANCH  27  28
ENDBRANCH   1  26
TORSDOF 4
ENDMDL
