MODEL 1
REMARK VINA RESULT:      -6.9      0.000      0.000
REMARK  Name = 
REMARK  4 active torsions:
REMARK  status: ('A' for Active; 'I' for Inactive)
REMARK    1  A    between atoms: N_4  and  C_5
REMARK    2  A    between atoms: C_5  and  C_6
REMARK    3  A    between atoms: C_6  and  O_7
REMARK    4  A    between atoms: O_7  and  C_8
REMARK                            x       y       z     vdW  Elec       q    Type
REMARK                         _______ _______ _______ _____ _____    ______ ____
ROOT
ATOM      1  C   UNL     1       4.820   6.416  16.589  0.00  0.00    +0.000 C 
ENDROOT
BRANCH   1   5
ATOM      2  O   UNL     1       7.967   4.535  18.420  0.00  0.00    +0.000 OA
ATOM      3  C   UNL     1       7.222   4.532  17.444  0.00  0.00    +0.000 C 
ATOM      4  C   UNL     1       5.707   4.327  17.566  0.00  0.00    +0.000 C 
ATOM      5  N   UNL     1       4.912   4.947  16.479  0.00  0.00    +0.000 NA
ATOM      6  C   UNL     1       5.477   4.533  15.181  0.00  0.00    +0.000 C 
ATOM      7  C   UNL     1       6.952   4.924  15.016  0.00  0.00    +0.000 C 
ATOM      8  N   UNL     1       7.752   4.601  16.179  0.00  0.00    +0.000 N 
ATOM      9  H   UNL     1       8.749   4.764  16.156  0.00  0.00    +0.000 HD
ENDBRANCH   1   5
BRANCH   1  10
ATOM     10  C   UNL     1       3.830   6.898  17.659  0.00  0.00    +0.000 C 
BRANCH  10  11
ATOM     11  O   UNL     1       2.609   6.161  17.517  0.00  0.00    +0.000 OA
BRANCH  11  12
ATOM     12  C   UNL     1       2.272   5.390  18.597  0.00  0.00    +0.000 A 
ATOM     13  C   UNL     1       2.558   5.708  19.927  0.00  0.00    +0.000 A 
ATOM     14  C   UNL     1       2.237   4.807  20.946  0.00  0.00    +0.000 A 
ATOM     15  C   UNL     1       1.610   3.603  20.635  0.00  0.00    +0.000 A 
ATOM     16 CL   UNL     1       1.259   2.477  21.887  0.00  0.00    +0.000 Cl
ATOM     17  C   UNL     1       1.274   3.304  19.316  0.00  0.00    +0.000 A 
ATOM     18  C   UNL     1       1.599   4.204  18.300  0.00  0.00    +0.000 A 
ENDBRANCH  11  12
ENDBRANCH  10  11
ENDBRANCH   1  10
TORSDOF 4
ENDMDL
MODEL 2
REMARK VINA RESULT:      -6.5      3.497      5.724
REMARK  Name = 
REMARK  4 active torsions:
REMARK  status: ('A' for Active; 'I' for Inactive)
REMARK    1  A    between atoms: N_4  and  C_5
REMARK    2  A    between atoms: C_5  and  C_6
REMARK    3  A    between atoms: C_6  and  O_7
REMARK    4  A    between atoms: O_7  and  C_8
REMARK                            x       y       z     vdW  Elec       q    Type
REMARK                         _______ _______ _______ _____ _____    ______ ____
ROOT
ATOM      1  C   UNL     1       2.869   4.898  19.854  0.00  0.00    +0.000 C 
ENDROOT
BRANCH   1   5
ATOM      2  O   UNL     1       3.729   1.254  18.188  0.00  0.00    +0.000 OA
ATOM      3  C   UNL     1       2.990   1.858  18.961  0.00  0.00    +0.000 C 
ATOM      4  C   UNL     1       3.510   2.541  20.231  0.00  0.00    +0.000 C 
ATOM      5  N   UNL     1       2.695   3.694  20.689  0.00  0.00    +0.000 NA
ATOM      6  C   UNL     1       1.281   3.278  20.758  0.00  0.00    +0.000 C 
ATOM      7  C   UNL     1       0.737   2.774  19.415  0.00  0.00    +0.000 C 
ATOM      8  N   UNL     1       1.632   1.843  18.760  0.00  0.00    +0.000 N 
ATOM      9  H   UNL     1       1.346   1.406  17.895  0.00  0.00    +0.000 HD
ENDBRANCH   1   5
BRANCH   1  10
ATOM     10  C   UNL     1       4.331   5.202  19.500  0.00  0.00    +0.000 C 
BRANCH  10  11
ATOM     11  O   UNL     1       4.355   6.166  18.439  0.00  0.00    +0.000 OA
BRANCH  11  12
ATOM     12  C   UNL     1       4.841   5.699  17.247  0.00  0.00    +0.000 A 
ATOM     13  C   UNL     1       5.070   6.485  16.115  0.00  0.00    +0.000 A 
ATOM     14  C   UNL     1       5.494   5.888  14.924  0.00  0.00    +0.000 A 
ATOM     15  C   UNL     1       5.712   4.513  14.876  0.00  0.00    +0.000 A 
ATOM     16 CL   UNL     1       6.189   3.777  13.397  0.00  0.00    +0.000 Cl
ATOM     17  C   UNL     1       5.537   3.733  16.017  0.00  0.00    +0.000 A 
ATOM     18  C   UNL     1       5.109   4.330  17.204  0.00  0.00    +0.000 A 
ENDBRANCH  11  12
ENDBRANCH  10  11
ENDBRANCH   1  10
TORSDOF 4
ENDMDL
MODEL 3
REMARK VINA RESULT:      -6.4      3.578      6.265
REMARK  Name = 
REMARK  4 active torsions:
REMARK  status: ('A' for Active; 'I' for Inactive)
REMARK    1  A    between atoms: N_4  and  C_5
REMARK    2  A    between atoms: C_5  and  C_6
REMARK    3  A    between atoms: C_6  and  O_7
REMARK    4  A    between atoms: O_7  and  C_8
REMARK                            x       y       z     vdW  Elec       q    Type
REMARK                         _______ _______ _______ _____ _____    ______ ____
ROOT
ATOM      1  C   UNL     1       3.695   4.043  18.862  0.00  0.00    +0.000 C 
ENDROOT
BRANCH   1   5
ATOM      2  O   UNL     1       0.077   2.182  18.371  0.00  0.00    +0.000 OA
ATOM      3  C   UNL     1       0.988   2.420  19.159  0.00  0.00    +0.000 C 
ATOM      4  C   UNL     1       2.422   1.926  18.932  0.00  0.00    +0.000 C 
ATOM      5  N   UNL     1       3.470   2.764  19.564  0.00  0.00    +0.000 NA
ATOM      6  C   UNL     1       3.118   2.976  20.981  0.00  0.00    +0.000 C 
ATOM      7  C   UNL     1       1.752   3.648  21.166  0.00  0.00    +0.000 C 
ATOM      8  N   UNL     1       0.717   3.053  20.347  0.00  0.00    +0.000 N 
ATOM      9  H   UNL     1      -0.234   3.382  20.433  0.00  0.00    +0.000 HD
ENDBRANCH   1   5
BRANCH   1  10
ATOM     10  C   UNL     1       3.883   3.893  17.345  0.00  0.00    +0.000 C 
BRANCH  10  11
ATOM     11  O   UNL     1       5.278   3.705  17.072  0.00  0.00    +0.000 OA
BRANCH  11  12
ATOM     12  C   UNL     1       6.067   4.793  17.331  0.00  0.00    +0.000 A 
ATOM     13  C   UNL     1       7.123   4.816  18.246  0.00  0.00    +0.000 A 
ATOM     14  C   UNL     1       7.813   6.007  18.489  0.00  0.00    +0.000 A 
ATOM     15  C   UNL     1       7.461   7.164  17.799  0.00  0.00    +0.000 A 
ATOM     16 CL   UNL     1       8.283   8.638  18.135  0.00  0.00    +0.000 Cl
ATOM     17  C   UNL     1       6.445   7.136  16.846  0.00  0.00    +0.000 A 
ATOM     18  C   UNL     1       5.755   5.946  16.608  0.00  0.00    +0.000 A 
ENDBRANCH  11  12
ENDBRANCH  10  11
ENDBRANCH   1  10
TORSDOF 4
ENDMDL
MODEL 4
REMARK VINA RESULT:      -6.4      3.568      6.058
REMARK  Name = 
REMARK  4 active torsions:
REMARK  status: ('A' for Active; 'I' for Inactive)
REMARK    1  A    between atoms: N_4  and  C_5
REMARK    2  A    between atoms: C_5  and  C_6
REMARK    3  A    between atoms: C_6  and  O_7
REMARK    4  A    between atoms: O_7  and  C_8
REMARK                            x       y       z     vdW  Elec       q    Type
REMARK                         _______ _______ _______ _____ _____    ______ ____
ROOT
ATOM      1  C   UNL     1       3.714   3.711  18.693  0.00  0.00    +0.000 C 
ENDROOT
BRANCH   1   5
ATOM      2  O   UNL     1       2.105   3.107  22.414  0.00  0.00    +0.000 OA
ATOM      3  C   UNL     1       1.863   3.420  21.251  0.00  0.00    +0.000 C 
ATOM      4  C   UNL     1       2.459   4.671  20.594  0.00  0.00    +0.000 C 
ATOM      5  N   UNL     1       2.603   4.584  19.120  0.00  0.00    +0.000 NA
ATOM      6  C   UNL     1       1.316   4.150  18.543  0.00  0.00    +0.000 C 
ATOM      7  C   UNL     1       0.841   2.796  19.086  0.00  0.00    +0.000 C 
ATOM      8  N   UNL     1       0.943   2.702  20.527  0.00  0.00    +0.000 N 
ATOM      9  H   UNL     1       0.604   1.873  20.995  0.00  0.00    +0.000 HD
ENDBRANCH   1   5
BRANCH   1  10
ATOM     10  C   UNL     1       3.861   3.595  17.170  0.00  0.00    +0.000 C 
BRANCH  10  11
ATOM     11  O   UNL     1       5.254   3.499  16.849  0.00  0.00    +0.000 OA
BRANCH  11  12
ATOM     12  C   UNL     1       5.979   4.637  17.079  0.00  0.00    +0.000 A 
ATOM     13  C   UNL     1       7.107   4.715  17.900  0.00  0.00    +0.000 A 
ATOM     14  C   UNL     1       7.723   5.949  18.127  0.00  0.00    +0.000 A 
ATOM     15  C   UNL     1       7.225   7.096  17.514  0.00  0.00    +0.000 A 
ATOM     16 CL   UNL     1       7.958   8.619  17.832  0.00  0.00    +0.000 Cl
ATOM     17  C   UNL     1       6.133   7.016  16.652  0.00  0.00    +0.000 A 
ATOM     18  C   UNL     1       5.516   5.784  16.430  0.00  0.00    +0.000 A 
ENDBRANCH  11  12
ENDBRANCH  10  11
ENDBRANCH   1  10
TORSDOF 4
ENDMDL
MODEL 5
REMARK VINA RESULT:      -6.4      1.305      1.787
REMARK  Name = 
REMARK  4 active torsions:
REMARK  status: ('A' for Active; 'I' for Inactive)
REMARK    1  A    between atoms: N_4  and  C_5
REMARK    2  A    between atoms: C_5  and  C_6
REMARK    3  A    between atoms: C_6  and  O_7
REMARK    4  A    between atoms: O_7  and  C_8
REMARK                            x       y       z     vdW  Elec       q    Type
REMARK                         _______ _______ _______ _____ _____    ______ ____
ROOT
ATOM      1  C   UNL     1       4.361   5.481  16.932  0.00  0.00    +0.000 C 
ENDROOT
BRANCH   1   5
ATOM      2  O   UNL     1       7.662   7.892  17.229  0.00  0.00    +0.000 OA
ATOM      3  C   UNL     1       7.266   6.746  17.034  0.00  0.00    +0.000 C 
ATOM      4  C   UNL     1       6.491   5.952  18.093  0.00  0.00    +0.000 C 
ATOM      5  N   UNL     1       5.580   4.918  17.543  0.00  0.00    +0.000 NA
ATOM      6  C   UNL     1       6.332   4.082  16.587  0.00  0.00    +0.000 C 
ATOM      7  C   UNL     1       6.938   4.889  15.432  0.00  0.00    +0.000 C 
ATOM      8  N   UNL     1       7.613   6.090  15.879  0.00  0.00    +0.000 N 
ATOM      9  H   UNL     1       8.097   6.667  15.205  0.00  0.00    +0.000 HD
ENDBRANCH   1   5
BRANCH   1  10
ATOM     10  C   UNL     1       3.677   6.555  17.789  0.00  0.00    +0.000 C 
BRANCH  10  11
ATOM     11  O   UNL     1       2.299   6.198  17.959  0.00  0.00    +0.000 OA
BRANCH  11  12
ATOM     12  C   UNL     1       2.070   5.193  18.860  0.00  0.00    +0.000 A 
ATOM     13  C   UNL     1       1.440   3.982  18.565  0.00  0.00    +0.000 A 
ATOM     14  C   UNL     1       1.187   3.059  19.584  0.00  0.00    +0.000 A 
ATOM     15  C   UNL     1       1.587   3.339  20.888  0.00  0.00    +0.000 A 
ATOM     16 CL   UNL     1       1.233   2.220  22.146  0.00  0.00    +0.000 Cl
ATOM     17  C   UNL     1       2.264   4.521  21.179  0.00  0.00    +0.000 A 
ATOM     18  C   UNL     1       2.512   5.444  20.161  0.00  0.00    +0.000 A 
ENDBRANCH  11  12
ENDBRANCH  10  11
ENDBRANCH   1  10
TORSDOF 4
ENDMDL
MODEL 6
REMARK VINA RESULT:      -6.4      1.279      1.759
REMARK  Name = 
REMARK  4 active torsions:
REMARK  status: ('A' for Active; 'I' for Inactive)
REMARK    1  A    between atoms: N_4  and  C_5
REMARK    2  A    between atoms: C_5  and  C_6
REMARK    3  A    between atoms: C_6  and  O_7
REMARK    4  A    between atoms: O_7  and  C_8
REMARK                            x       y       z     vdW  Elec       q    Type
REMARK                         _______ _______ _______ _____ _____    ______ ____
ROOT
ATOM      1  C   UNL     1       4.645   6.891  17.000  0.00  0.00    +0.000 C 
ENDROOT
BRANCH   1   5
ATOM      2  O   UNL     1       7.604   4.787  15.097  0.00  0.00    +0.000 OA
ATOM      3  C   UNL     1       7.043   4.989  16.171  0.00  0.00    +0.000 C 
ATOM      4  C   UNL     1       7.055   6.359  16.861  0.00  0.00    +0.000 C 
ATOM      5  N   UNL     1       5.890   6.614  17.743  0.00  0.00    +0.000 NA
ATOM      6  C   UNL     1       5.732   5.472  18.664  0.00  0.00    +0.000 C 
ATOM      7  C   UNL     1       5.532   4.137  17.936  0.00  0.00    +0.000 C 
ATOM      8  N   UNL     1       6.473   3.942  16.852  0.00  0.00    +0.000 N 
ATOM      9  H   UNL     1       6.467   3.070  16.341  0.00  0.00    +0.000 HD
ENDBRANCH   1   5
BRANCH   1  10
ATOM     10  C   UNL     1       3.436   7.179  17.900  0.00  0.00    +0.000 C 
BRANCH  10  11
ATOM     11  O   UNL     1       2.427   6.194  17.642  0.00  0.00    +0.000 OA
BRANCH  11  12
ATOM     12  C   UNL     1       2.126   5.384  18.704  0.00  0.00    +0.000 A 
ATOM     13  C   UNL     1       2.345   5.710  20.045  0.00  0.00    +0.000 A 
ATOM     14  C   UNL     1       2.073   4.773  21.045  0.00  0.00    +0.000 A 
ATOM     15  C   UNL     1       1.560   3.524  20.705  0.00  0.00    +0.000 A 
ATOM     16 CL   UNL     1       1.270   2.357  21.935  0.00  0.00    +0.000 Cl
ATOM     17  C   UNL     1       1.289   3.213  19.374  0.00  0.00    +0.000 A 
ATOM     18  C   UNL     1       1.566   4.148  18.375  0.00  0.00    +0.000 A 
ENDBRANCH  11  12
ENDBRANCH  10  11
ENDBRANCH   1  10
TORSDOF 4
ENDMDL
MODEL 7
REMARK VINA RESULT:      -6.4      1.298      2.123
REMARK  Name = 
REMARK  4 active torsions:
REMARK  status: ('A' for Active; 'I' for Inactive)
REMARK    1  A    between atoms: N_4  and  C_5
REMARK    2  A    between atoms: C_5  and  C_6
REMARK    3  A    between atoms: C_6  and  O_7
REMARK    4  A    between atoms: O_7  and  C_8
REMARK                            x       y       z     vdW  Elec       q    Type
REMARK                         _______ _______ _______ _____ _____    ______ ____
ROOT
ATOM      1  C   UNL     1       4.475   6.745  17.099  0.00  0.00    +0.000 C 
ENDROOT
BRANCH   1   5
ATOM      2  O   UNL     1       7.616   4.856  15.266  0.00  0.00    +0.000 OA
ATOM      3  C   UNL     1       7.023   5.023  16.328  0.00  0.00    +0.000 C 
ATOM      4  C   UNL     1       6.920   6.394  17.006  0.00  0.00    +0.000 C 
ATOM      5  N   UNL     1       5.724   6.568  17.866  0.00  0.00    +0.000 NA
ATOM      6  C   UNL     1       5.635   5.424  18.794  0.00  0.00    +0.000 C 
ATOM      7  C   UNL     1       5.549   4.073  18.074  0.00  0.00    +0.000 C 
ATOM      8  N   UNL     1       6.520   3.941  17.008  0.00  0.00    +0.000 N 
ATOM      9  H   UNL     1       6.589   3.067  16.505  0.00  0.00    +0.000 HD
ENDBRANCH   1   5
BRANCH   1  10
ATOM     10  C   UNL     1       3.368   7.471  17.875  0.00  0.00    +0.000 C 
BRANCH  10  11
ATOM     11  O   UNL     1       2.152   6.722  17.749  0.00  0.00    +0.000 OA
BRANCH  11  12
ATOM     12  C   UNL     1       2.038   5.661  18.607  0.00  0.00    +0.000 A 
ATOM     13  C   UNL     1       1.759   4.347  18.221  0.00  0.00    +0.000 A 
ATOM     14  C   UNL     1       1.585   3.356  19.191  0.00  0.00    +0.000 A 
ATOM     15  C   UNL     1       1.715   3.675  20.540  0.00  0.00    +0.000 A 
ATOM     16 CL   UNL     1       1.455   2.462  21.732  0.00  0.00    +0.000 Cl
ATOM     17  C   UNL     1       2.047   4.971  20.929  0.00  0.00    +0.000 A 
ATOM     18  C   UNL     1       2.216   5.961  19.959  0.00  0.00    +0.000 A 
ENDBRANCH  11  12
ENDBRANCH  10  11
ENDBRANCH   1  10
TORSDOF 4
ENDMDL
MODEL 8
REMARK VINA RESULT:      -6.3      3.187      5.898
REMARK  Name = 
REMARK  4 active torsions:
REMARK  status: ('A' for Active; 'I' for Inactive)
REMARK    1  A    between atoms: N_4  and  C_5
REMARK    2  A    between atoms: C_5  and  C_6
REMARK    3  A    between atoms: C_6  and  O_7
REMARK    4  A    between atoms: O_7  and  C_8
REMARK                            x       y       z     vdW  Elec       q    Type
REMARK                         _______ _______ _______ _____ _____    ______ ____
ROOT
ATOM      1  C   UNL     1       4.589   4.894  19.305  0.00  0.00    +0.000 C 
ENDROOT
BRANCH   1   5
ATOM      2  O   UNL     1       1.098   4.073  17.322  0.00  0.00    +0.000 OA
ATOM      3  C   UNL     1       1.920   3.650  18.131  0.00  0.00    +0.000 C 
ATOM      4  C   UNL     1       3.384   3.391  17.757  0.00  0.00    +0.000 C 
ATOM      5  N   UNL     1       4.338   3.501  18.888  0.00  0.00    +0.000 NA
ATOM      6  C   UNL     1       3.843   2.678  20.008  0.00  0.00    +0.000 C 
ATOM      7  C   UNL     1       2.444   3.091  20.483  0.00  0.00    +0.000 C 
ATOM      8  N   UNL     1       1.514   3.285  19.391  0.00  0.00    +0.000 N 
ATOM      9  H   UNL     1       0.548   3.503  19.594  0.00  0.00    +0.000 HD
ENDBRANCH   1   5
BRANCH   1  10
ATOM     10  C   UNL     1       6.077   5.270  19.348  0.00  0.00    +0.000 C 
BRANCH  10  11
ATOM     11  O   UNL     1       6.341   6.218  18.305  0.00  0.00    +0.000 OA
BRANCH  11  12
ATOM     12  C   UNL     1       6.242   5.719  17.034  0.00  0.00    +0.000 A 
ATOM     13  C   UNL     1       5.373   6.201  16.052  0.00  0.00    +0.000 A 
ATOM     14  C   UNL     1       5.299   5.564  14.810  0.00  0.00    +0.000 A 
ATOM     15  C   UNL     1       6.110   4.463  14.547  0.00  0.00    +0.000 A 
ATOM     16 CL   UNL     1       5.982   3.653  13.034  0.00  0.00    +0.000 Cl
ATOM     17  C   UNL     1       7.017   4.011  15.503  0.00  0.00    +0.000 A 
ATOM     18  C   UNL     1       7.087   4.646  16.744  0.00  0.00    +0.000 A 
ENDBRANCH  11  12
ENDBRANCH  10  11
ENDBRANCH   1  10
TORSDOF 4
ENDMDL
MODEL 9
REMARK VINA RESULT:      -6.2      3.839      6.378
REMARK  Name = 
REMARK  4 active torsions:
REMARK  status: ('A' for Active; 'I' for Inactive)
REMARK    1  A    between atoms: N_4  and  C_5
REMARK    2  A    between atoms: C_5  and  C_6
REMARK    3  A    between atoms: C_6  and  O_7
REMARK    4  A    between atoms: O_7  and  C_8
REMARK                            x       y       z     vdW  Elec       q    Type
REMARK                         _______ _______ _______ _____ _____    ______ ____
ROOT
ATOM      1  C   UNL     1       3.743   3.273  19.039  0.00  0.00    +0.000 C 
ENDROOT
BRANCH   1   5
ATOM      2  O   UNL     1       1.405   2.634  22.344  0.00  0.00    +0.000 OA
ATOM      3  C   UNL     1       1.431   3.081  21.201  0.00  0.00    +0.000 C 
ATOM      4  C   UNL     1       2.320   4.265  20.800  0.00  0.00    +0.000 C 
ATOM      5  N   UNL     1       2.717   4.282  19.371  0.00  0.00    +0.000 NA
ATOM      6  C   UNL     1       1.508   4.122  18.540  0.00  0.00    +0.000 C 
ATOM      7  C   UNL     1       0.742   2.827  18.838  0.00  0.00    +0.000 C 
ATOM      8  N   UNL     1       0.562   2.593  20.256  0.00  0.00    +0.000 N 
ATOM      9  H   UNL     1       0.021   1.797  20.563  0.00  0.00    +0.000 HD
ENDBRANCH   1   5
BRANCH   1  10
ATOM     10  C   UNL     1       5.183   3.768  19.230  0.00  0.00    +0.000 C 
BRANCH  10  11
ATOM     11  O   UNL     1       5.702   4.172  17.956  0.00  0.00    +0.000 OA
BRANCH  11  12
ATOM     12  C   UNL     1       6.440   5.325  17.973  0.00  0.00    +0.000 A 
ATOM     13  C   UNL     1       7.577   5.534  18.757  0.00  0.00    +0.000 A 
ATOM     14  C   UNL     1       8.209   6.781  18.755  0.00  0.00    +0.000 A 
ATOM     15  C   UNL     1       7.715   7.806  17.951  0.00  0.00    +0.000 A 
ATOM     16 CL   UNL     1       8.468   9.353  17.987  0.00  0.00    +0.000 Cl
ATOM     17  C   UNL     1       6.614   7.587  17.127  0.00  0.00    +0.000 A 
ATOM     18  C   UNL     1       5.982   6.343  17.134  0.00  0.00    +0.000 A 
ENDBRANCH  11  12
ENDBRANCH  10  11
ENDBRANCH   1  10
TORSDOF 4
ENDMDL
