MODEL 1
REMARK VINA RESULT:      -6.8      0.000      0.000
REMARK  Name = 
REMARK  5 active torsions:
REMARK  status: ('A' for Active; 'I' for Inactive)
REMARK    1  A    between atoms: C_1  and  S_2
REMARK    2  A    between atoms: S_2  and  C_3
REMARK    3  A    between atoms: N_6  and  C_7
REMARK    4  A    between atoms: C_7  and  C_8
REMARK    5  A    between atoms: N_21  and  C_22
REMARK                            x       y       z     vdW  Elec       q    Type
REMARK                         _______ _______ _______ _____ _____    ______ ____
ROOT
ATOM      1  C   UNL     1       6.015   6.707  17.570  0.00  0.00    +0.000 A 
ATOM      2  N   UNL     1       4.824   7.328  17.450  0.00  0.00    +0.000 NA
ATOM      3  C   UNL     1       3.697   6.631  17.696  0.00  0.00    +0.000 A 
ATOM      4  N   UNL     1       2.442   7.224  17.647  0.00  0.00    +0.000 N 
ATOM      5  C   UNL     1       3.805   5.279  18.077  0.00  0.00    +0.000 A 
ATOM      6  C   UNL     1       2.838   4.273  18.425  0.00  0.00    +0.000 A 
ATOM      7  C   UNL     1       3.440   3.128  18.923  0.00  0.00    +0.000 A 
ATOM      8  S   UNL     1       5.134   3.190  18.818  0.00  0.00    +0.000 S 
ATOM      9  C   UNL     1       5.088   4.788  18.217  0.00  0.00    +0.000 A 
ATOM     10  N   UNL     1       6.224   5.444  17.961  0.00  0.00    +0.000 NA
ATOM     11  C   UNL     1       2.700   1.950  19.487  0.00  0.00    +0.000 C 
ATOM     12  N   UNL     1       1.302   2.294  19.844  0.00  0.00    +0.000 NA
ATOM     13  C   UNL     1       1.238   3.034  21.108  0.00  0.00    +0.000 C 
ATOM     14  C   UNL     1       0.666   3.049  18.739  0.00  0.00    +0.000 C 
ATOM     15  C   UNL     1       1.342   4.399  18.406  0.00  0.00    +0.000 C 
ATOM     16  H   UNL     1       1.929   6.927  16.824  0.00  0.00    +0.000 HD
ENDROOT
BRANCH   1  18
ATOM     17  C   UNL     1       8.370   7.547  18.693  0.00  0.00    +0.000 C 
ATOM     18  S   UNL     1       7.455   7.662  17.134  0.00  0.00    +0.000 S 
ENDBRANCH   1  18
BRANCH   4  19
ATOM     19  C   UNL     1       2.337   8.652  17.888  0.00  0.00    +0.000 C 
BRANCH  19  20
ATOM     20  C   UNL     1       1.493   8.836  19.137  0.00  0.00    +0.000 A 
ATOM     21  C   UNL     1       0.509   9.840  19.176  0.00  0.00    +0.000 A 
ATOM     22  C   UNL     1      -0.271  10.037  20.317  0.00  0.00    +0.000 A 
ATOM     23  C   UNL     1      -0.084   9.225  21.432  0.00  0.00    +0.000 A 
ATOM     24  C   UNL     1       0.883   8.221  21.405  0.00  0.00    +0.000 A 
ATOM     25  C   UNL     1       1.671   8.027  20.266  0.00  0.00    +0.000 A 
ENDBRANCH  19  20
ENDBRANCH   4  19
TORSDOF 3
ENDMDL
MODEL 2
REMARK VINA RESULT:      -6.5      6.931     10.283
REMARK  Name = 
REMARK  5 active torsions:
REMARK  status: ('A' for Active; 'I' for Inactive)
REMARK    1  A    between atoms: C_1  and  S_2
REMARK    2  A    between atoms: S_2  and  C_3
REMARK    3  A    between atoms: N_6  and  C_7
REMARK    4  A    between atoms: C_7  and  C_8
REMARK    5  A    between atoms: N_21  and  C_22
REMARK                            x       y       z     vdW  Elec       q    Type
REMARK                         _______ _______ _______ _____ _____    ______ ____
ROOT
ATOM      1  C   UNL     1      -3.921  11.520  17.829  0.00  0.00    +0.000 A 
ATOM      2  N   UNL     1      -2.772  11.932  18.401  0.00  0.00    +0.000 NA
ATOM      3  C   UNL     1      -2.820  12.516  19.615  0.00  0.00    +0.000 A 
ATOM      4  N   UNL     1      -1.670  12.913  20.286  0.00  0.00    +0.000 N 
ATOM      5  C   UNL     1      -4.071  12.668  20.245  0.00  0.00    +0.000 A 
ATOM      6  C   UNL     1      -4.476  13.212  21.514  0.00  0.00    +0.000 A 
ATOM      7  C   UNL     1      -5.814  12.964  21.778  0.00  0.00    +0.000 A 
ATOM      8  S   UNL     1      -6.611  12.243  20.464  0.00  0.00    +0.000 S 
ATOM      9  C   UNL     1      -5.159  12.147  19.571  0.00  0.00    +0.000 A 
ATOM     10  N   UNL     1      -5.148  11.583  18.360  0.00  0.00    +0.000 NA
ATOM     11  C   UNL     1      -6.505  13.294  23.070  0.00  0.00    +0.000 C 
ATOM     12  N   UNL     1      -5.538  13.523  24.172  0.00  0.00    +0.000 NA
ATOM     13  C   UNL     1      -5.008  12.259  24.692  0.00  0.00    +0.000 C 
ATOM     14  C   UNL     1      -4.451  14.421  23.716  0.00  0.00    +0.000 C 
ATOM     15  C   UNL     1      -3.606  13.870  22.545  0.00  0.00    +0.000 C 
ATOM     16  H   UNL     1      -1.575  13.922  20.283  0.00  0.00    +0.000 HD
ENDROOT
BRANCH   1  18
ATOM     17  C   UNL     1      -2.278   9.869  16.384  0.00  0.00    +0.000 C 
ATOM     18  S   UNL     1      -3.790  10.847  16.184  0.00  0.00    +0.000 S 
ENDBRANCH   1  18
BRANCH   4  19
ATOM     19  C   UNL     1      -0.422  12.231  19.990  0.00  0.00    +0.000 C 
BRANCH  19  20
ATOM     20  C   UNL     1      -0.329  11.039  20.926  0.00  0.00    +0.000 A 
ATOM     21  C   UNL     1      -0.700  11.177  22.276  0.00  0.00    +0.000 A 
ATOM     22  C   UNL     1      -0.611  10.099  23.159  0.00  0.00    +0.000 A 
ATOM     23  C   UNL     1      -0.159   8.864  22.701  0.00  0.00    +0.000 A 
ATOM     24  C   UNL     1       0.206   8.711  21.364  0.00  0.00    +0.000 A 
ATOM     25  C   UNL     1       0.125   9.792  20.480  0.00  0.00    +0.000 A 
ENDBRANCH  19  20
ENDBRANCH   4  19
TORSDOF 3
ENDMDL
MODEL 3
REMARK VINA RESULT:      -6.4      1.765      2.293
REMARK  Name = 
REMARK  5 active torsions:
REMARK  status: ('A' for Active; 'I' for Inactive)
REMARK    1  A    between atoms: C_1  and  S_2
REMARK    2  A    between atoms: S_2  and  C_3
REMARK    3  A    between atoms: N_6  and  C_7
REMARK    4  A    between atoms: C_7  and  C_8
REMARK    5  A    between atoms: N_21  and  C_22
REMARK                            x       y       z     vdW  Elec       q    Type
REMARK                         _______ _______ _______ _____ _____    ______ ____
ROOT
ATOM      1  C   UNL     1       5.425   4.802  16.050  0.00  0.00    +0.000 A 
ATOM      2  N   UNL     1       4.628   5.831  16.405  0.00  0.00    +0.000 NA
ATOM      3  C   UNL     1       3.615   5.605  17.266  0.00  0.00    +0.000 A 
ATOM      4  N   UNL     1       2.793   6.630  17.716  0.00  0.00    +0.000 N 
ATOM      5  C   UNL     1       3.431   4.302  17.769  0.00  0.00    +0.000 A 
ATOM      6  C   UNL     1       2.491   3.727  18.694  0.00  0.00    +0.000 A 
ATOM      7  C   UNL     1       2.829   2.426  19.031  0.00  0.00    +0.000 A 
ATOM      8  S   UNL     1       4.147   1.846  18.132  0.00  0.00    +0.000 S 
ATOM      9  C   UNL     1       4.356   3.358  17.367  0.00  0.00    +0.000 A 
ATOM     10  N   UNL     1       5.356   3.544  16.500  0.00  0.00    +0.000 NA
ATOM     11  C   UNL     1       2.120   1.599  20.065  0.00  0.00    +0.000 C 
ATOM     12  N   UNL     1       1.302   2.437  20.976  0.00  0.00    +0.000 NA
ATOM     13  C   UNL     1       2.134   3.110  21.978  0.00  0.00    +0.000 C 
ATOM     14  C   UNL     1       0.501   3.407  20.194  0.00  0.00    +0.000 C 
ATOM     15  C   UNL     1       1.333   4.410  19.362  0.00  0.00    +0.000 C 
ATOM     16  H   UNL     1       1.873   6.572  17.294  0.00  0.00    +0.000 HD
ENDROOT
BRANCH   1  18
ATOM     17  C   UNL     1       6.244   3.910  13.591  0.00  0.00    +0.000 C 
ATOM     18  S   UNL     1       6.679   5.154  14.835  0.00  0.00    +0.000 S 
ENDBRANCH   1  18
BRANCH   4  19
ATOM     19  C   UNL     1       3.316   7.984  17.737  0.00  0.00    +0.000 C 
BRANCH  19  20
ATOM     20  C   UNL     1       2.306   8.845  18.474  0.00  0.00    +0.000 A 
ATOM     21  C   UNL     1       1.744   8.388  19.681  0.00  0.00    +0.000 A 
ATOM     22  C   UNL     1       0.804   9.155  20.371  0.00  0.00    +0.000 A 
ATOM     23  C   UNL     1       0.420  10.396  19.868  0.00  0.00    +0.000 A 
ATOM     24  C   UNL     1       0.974  10.864  18.677  0.00  0.00    +0.000 A 
ATOM     25  C   UNL     1       1.910  10.093  17.981  0.00  0.00    +0.000 A 
ENDBRANCH  19  20
ENDBRANCH   4  19
TORSDOF 3
ENDMDL
MODEL 4
REMARK VINA RESULT:      -6.3      6.835     10.197
REMARK  Name = 
REMARK  5 active torsions:
REMARK  status: ('A' for Active; 'I' for Inactive)
REMARK    1  A    between atoms: C_1  and  S_2
REMARK    2  A    between atoms: S_2  and  C_3
REMARK    3  A    between atoms: N_6  and  C_7
REMARK    4  A    between atoms: C_7  and  C_8
REMARK    5  A    between atoms: N_21  and  C_22
REMARK                            x       y       z     vdW  Elec       q    Type
REMARK                         _______ _______ _______ _____ _____    ______ ____
ROOT
ATOM      1  C   UNL     1      -3.266  10.713  17.439  0.00  0.00    +0.000 A 
ATOM      2  N   UNL     1      -2.352  11.473  18.076  0.00  0.00    +0.000 NA
ATOM      3  C   UNL     1      -2.761  12.300  19.059  0.00  0.00    +0.000 A 
ATOM      4  N   UNL     1      -1.865  13.068  19.792  0.00  0.00    +0.000 N 
ATOM      5  C   UNL     1      -4.130  12.335  19.390  0.00  0.00    +0.000 A 
ATOM      6  C   UNL     1      -4.887  13.064  20.372  0.00  0.00    +0.000 A 
ATOM      7  C   UNL     1      -6.196  12.616  20.450  0.00  0.00    +0.000 A 
ATOM      8  S   UNL     1      -6.558  11.462  19.257  0.00  0.00    +0.000 S 
ATOM      9  C   UNL     1      -4.945  11.461  18.698  0.00  0.00    +0.000 A 
ATOM     10  N   UNL     1      -4.576  10.646  17.705  0.00  0.00    +0.000 NA
ATOM     11  C   UNL     1      -7.203  13.088  21.460  0.00  0.00    +0.000 C 
ATOM     12  N   UNL     1      -6.554  13.759  22.614  0.00  0.00    +0.000 NA
ATOM     13  C   UNL     1      -5.970  12.785  23.541  0.00  0.00    +0.000 C 
ATOM     14  C   UNL     1      -5.543  14.729  22.135  0.00  0.00    +0.000 C 
ATOM     15  C   UNL     1      -4.382  14.107  21.326  0.00  0.00    +0.000 C 
ATOM     16  H   UNL     1      -1.926  14.046  19.535  0.00  0.00    +0.000 HD
ENDROOT
BRANCH   1  18
ATOM     17  C   UNL     1      -3.710  10.372  14.756  0.00  0.00    +0.000 C 
ATOM     18  S   UNL     1      -2.668   9.719  16.087  0.00  0.00    +0.000 S 
ENDBRANCH   1  18
BRANCH   4  19
ATOM     19  C   UNL     1      -0.494  12.606  19.919  0.00  0.00    +0.000 C 
BRANCH  19  20
ATOM     20  C   UNL     1      -0.495  11.468  20.923  0.00  0.00    +0.000 A 
ATOM     21  C   UNL     1      -1.031  11.667  22.209  0.00  0.00    +0.000 A 
ATOM     22  C   UNL     1      -1.032  10.640  23.154  0.00  0.00    +0.000 A 
ATOM     23  C   UNL     1      -0.504   9.395  22.824  0.00  0.00    +0.000 A 
ATOM     24  C   UNL     1       0.026   9.181  21.552  0.00  0.00    +0.000 A 
ATOM     25  C   UNL     1       0.034  10.211  20.606  0.00  0.00    +0.000 A 
ENDBRANCH  19  20
ENDBRANCH   4  19
TORSDOF 3
ENDMDL
MODEL 5
REMARK VINA RESULT:      -6.0      6.896     10.067
REMARK  Name = 
REMARK  5 active torsions:
REMARK  status: ('A' for Active; 'I' for Inactive)
REMARK    1  A    between atoms: C_1  and  S_2
REMARK    2  A    between atoms: S_2  and  C_3
REMARK    3  A    between atoms: N_6  and  C_7
REMARK    4  A    between atoms: C_7  and  C_8
REMARK    5  A    between atoms: N_21  and  C_22
REMARK                            x       y       z     vdW  Elec       q    Type
REMARK                         _______ _______ _______ _____ _____    ______ ____
ROOT
ATOM      1  C   UNL     1      -3.296  10.728  16.271  0.00  0.00    +0.000 A 
ATOM      2  N   UNL     1      -2.339  11.152  17.121  0.00  0.00    +0.000 NA
ATOM      3  C   UNL     1      -2.700  11.866  18.206  0.00  0.00    +0.000 A 
ATOM      4  N   UNL     1      -1.771  12.283  19.151  0.00  0.00    +0.000 N 
ATOM      5  C   UNL     1      -4.066  12.137  18.417  0.00  0.00    +0.000 A 
ATOM      6  C   UNL     1      -4.785  12.831  19.451  0.00  0.00    +0.000 A 
ATOM      7  C   UNL     1      -6.155  12.670  19.325  0.00  0.00    +0.000 A 
ATOM      8  S   UNL     1      -6.581  11.845  17.903  0.00  0.00    +0.000 S 
ATOM      9  C   UNL     1      -4.942  11.592  17.498  0.00  0.00    +0.000 A 
ATOM     10  N   UNL     1      -4.617  10.900  16.402  0.00  0.00    +0.000 NA
ATOM     11  C   UNL     1      -7.169  13.166  20.315  0.00  0.00    +0.000 C 
ATOM     12  N   UNL     1      -6.554  13.473  21.630  0.00  0.00    +0.000 NA
ATOM     13  C   UNL     1      -6.293  12.251  22.397  0.00  0.00    +0.000 C 
ATOM     14  C   UNL     1      -5.320  14.270  21.440  0.00  0.00    +0.000 C 
ATOM     15  C   UNL     1      -4.210  13.560  20.631  0.00  0.00    +0.000 C 
ATOM     16  H   UNL     1      -1.607  13.282  19.086  0.00  0.00    +0.000 HD
ENDROOT
BRANCH   1  18
ATOM     17  C   UNL     1      -4.202  10.091  13.764  0.00  0.00    +0.000 C 
ATOM     18  S   UNL     1      -2.738   9.877  14.809  0.00  0.00    +0.000 S 
ENDBRANCH   1  18
BRANCH   4  19
ATOM     19  C   UNL     1      -0.544  11.522  19.306  0.00  0.00    +0.000 C 
BRANCH  19  20
ATOM     20  C   UNL     1      -0.580  10.888  20.685  0.00  0.00    +0.000 A 
ATOM     21  C   UNL     1      -1.115  11.603  21.772  0.00  0.00    +0.000 A 
ATOM     22  C   UNL     1      -1.147  11.047  23.051  0.00  0.00    +0.000 A 
ATOM     23  C   UNL     1      -0.653   9.762  23.260  0.00  0.00    +0.000 A 
ATOM     24  C   UNL     1      -0.125   9.039  22.192  0.00  0.00    +0.000 A 
ATOM     25  C   UNL     1      -0.085   9.598  20.910  0.00  0.00    +0.000 A 
ENDBRANCH  19  20
ENDBRANCH   4  19
TORSDOF 3
ENDMDL
MODEL 6
REMARK VINA RESULT:      -5.8      7.211      9.780
REMARK  Name = 
REMARK  5 active torsions:
REMARK  status: ('A' for Active; 'I' for Inactive)
REMARK    1  A    between atoms: C_1  and  S_2
REMARK    2  A    between atoms: S_2  and  C_3
REMARK    3  A    between atoms: N_6  and  C_7
REMARK    4  A    between atoms: C_7  and  C_8
REMARK    5  A    between atoms: N_21  and  C_22
REMARK                            x       y       z     vdW  Elec       q    Type
REMARK                         _______ _______ _______ _____ _____    ______ ____
ROOT
ATOM      1  C   UNL     1       1.737  14.466  21.337  0.00  0.00    +0.000 A 
ATOM      2  N   UNL     1       1.264  13.284  20.894  0.00  0.00    +0.000 NA
ATOM      3  C   UNL     1       0.117  12.803  21.415  0.00  0.00    +0.000 A 
ATOM      4  N   UNL     1      -0.455  11.620  20.964  0.00  0.00    +0.000 N 
ATOM      5  C   UNL     1      -0.549  13.558  22.400  0.00  0.00    +0.000 A 
ATOM      6  C   UNL     1      -1.770  13.362  23.134  0.00  0.00    +0.000 A 
ATOM      7  C   UNL     1      -2.120  14.486  23.865  0.00  0.00    +0.000 A 
ATOM      8  S   UNL     1      -0.926  15.691  23.809  0.00  0.00    +0.000 S 
ATOM      9  C   UNL     1       0.017  14.778  22.717  0.00  0.00    +0.000 A 
ATOM     10  N   UNL     1       1.161  15.273  22.236  0.00  0.00    +0.000 NA
ATOM     11  C   UNL     1      -3.400  14.640  24.636  0.00  0.00    +0.000 C 
ATOM     12  N   UNL     1      -4.426  13.659  24.205  0.00  0.00    +0.000 NA
ATOM     13  C   UNL     1      -5.052  14.058  22.941  0.00  0.00    +0.000 C 
ATOM     14  C   UNL     1      -3.830  12.306  24.113  0.00  0.00    +0.000 C 
ATOM     15  C   UNL     1      -2.685  12.172  23.082  0.00  0.00    +0.000 C 
ATOM     16  H   UNL     1      -0.342  10.877  21.644  0.00  0.00    +0.000 HD
ENDROOT
BRANCH   1  18
ATOM     17  C   UNL     1       3.243  14.156  19.068  0.00  0.00    +0.000 C 
ATOM     18  S   UNL     1       3.306  14.990  20.676  0.00  0.00    +0.000 S 
ENDBRANCH   1  18
BRANCH   4  19
ATOM     19  C   UNL     1      -0.176  11.186  19.607  0.00  0.00    +0.000 C 
BRANCH  19  20
ATOM     20  C   UNL     1      -1.511  11.036  18.900  0.00  0.00    +0.000 A 
ATOM     21  C   UNL     1      -1.678  10.040  17.920  0.00  0.00    +0.000 A 
ATOM     22  C   UNL     1      -2.892   9.890  17.248  0.00  0.00    +0.000 A 
ATOM     23  C   UNL     1      -3.961  10.728  17.553  0.00  0.00    +0.000 A 
ATOM     24  C   UNL     1      -3.812  11.716  18.526  0.00  0.00    +0.000 A 
ATOM     25  C   UNL     1      -2.594  11.872  19.196  0.00  0.00    +0.000 A 
ENDBRANCH  19  20
ENDBRANCH   4  19
TORSDOF 3
ENDMDL
MODEL 7
REMARK VINA RESULT:      -5.8      7.758     11.729
REMARK  Name = 
REMARK  5 active torsions:
REMARK  status: ('A' for Active; 'I' for Inactive)
REMARK    1  A    between atoms: C_1  and  S_2
REMARK    2  A    between atoms: S_2  and  C_3
REMARK    3  A    between atoms: N_6  and  C_7
REMARK    4  A    between atoms: C_7  and  C_8
REMARK    5  A    between atoms: N_21  and  C_22
REMARK                            x       y       z     vdW  Elec       q    Type
REMARK                         _______ _______ _______ _____ _____    ______ ____
ROOT
ATOM      1  C   UNL     1      -5.844  11.918  19.650  0.00  0.00    +0.000 A 
ATOM      2  N   UNL     1      -4.530  12.104  19.411  0.00  0.00    +0.000 NA
ATOM      3  C   UNL     1      -3.851  13.000  20.156  0.00  0.00    +0.000 A 
ATOM      4  N   UNL     1      -2.485  13.199  20.000  0.00  0.00    +0.000 N 
ATOM      5  C   UNL     1      -4.539  13.704  21.164  0.00  0.00    +0.000 A 
ATOM      6  C   UNL     1      -4.133  14.688  22.130  0.00  0.00    +0.000 A 
ATOM      7  C   UNL     1      -5.134  14.951  23.051  0.00  0.00    +0.000 A 
ATOM      8  S   UNL     1      -6.588  14.163  22.668  0.00  0.00    +0.000 S 
ATOM      9  C   UNL     1      -5.868  13.371  21.338  0.00  0.00    +0.000 A 
ATOM     10  N   UNL     1      -6.575  12.506  20.605  0.00  0.00    +0.000 NA
ATOM     11  C   UNL     1      -4.978  15.836  24.254  0.00  0.00    +0.000 C 
ATOM     12  N   UNL     1      -3.551  16.065  24.591  0.00  0.00    +0.000 NA
ATOM     13  C   UNL     1      -2.970  14.906  25.276  0.00  0.00    +0.000 C 
ATOM     14  C   UNL     1      -2.790  16.413  23.369  0.00  0.00    +0.000 C 
ATOM     15  C   UNL     1      -2.777  15.315  22.281  0.00  0.00    +0.000 C 
ATOM     16  H   UNL     1      -2.294  14.084  19.544  0.00  0.00    +0.000 HD
ENDROOT
BRANCH   1  18
ATOM     17  C   UNL     1      -7.092   9.480  19.747  0.00  0.00    +0.000 C 
ATOM     18  S   UNL     1      -6.696  10.793  18.563  0.00  0.00    +0.000 S 
ENDBRANCH   1  18
BRANCH   4  19
ATOM     19  C   UNL     1      -1.678  12.111  19.474  0.00  0.00    +0.000 C 
BRANCH  19  20
ATOM     20  C   UNL     1      -1.195  11.296  20.660  0.00  0.00    +0.000 A 
ATOM     21  C   UNL     1      -0.476  10.106  20.447  0.00  0.00    +0.000 A 
ATOM     22  C   UNL     1      -0.031   9.333  21.520  0.00  0.00    +0.000 A 
ATOM     23  C   UNL     1      -0.292   9.744  22.824  0.00  0.00    +0.000 A 
ATOM     24  C   UNL     1      -0.999  10.925  23.052  0.00  0.00    +0.000 A 
ATOM     25  C   UNL     1      -1.451  11.697  21.977  0.00  0.00    +0.000 A 
ENDBRANCH  19  20
ENDBRANCH   4  19
TORSDOF 3
ENDMDL
MODEL 8
REMARK VINA RESULT:      -5.8      5.221      8.644
REMARK  Name = 
REMARK  5 active torsions:
REMARK  status: ('A' for Active; 'I' for Inactive)
REMARK    1  A    between atoms: C_1  and  S_2
REMARK    2  A    between atoms: S_2  and  C_3
REMARK    3  A    between atoms: N_6  and  C_7
REMARK    4  A    between atoms: C_7  and  C_8
REMARK    5  A    between atoms: N_21  and  C_22
REMARK                            x       y       z     vdW  Elec       q    Type
REMARK                         _______ _______ _______ _____ _____    ______ ____
ROOT
ATOM      1  C   UNL     1       2.381  14.330  19.303  0.00  0.00    +0.000 A 
ATOM      2  N   UNL     1       2.185  13.004  19.156  0.00  0.00    +0.000 NA
ATOM      3  C   UNL     1       1.288  12.385  19.950  0.00  0.00    +0.000 A 
ATOM      4  N   UNL     1       0.996  11.034  19.813  0.00  0.00    +0.000 N 
ATOM      5  C   UNL     1       0.584  13.149  20.902  0.00  0.00    +0.000 A 
ATOM      6  C   UNL     1      -0.429  12.826  21.870  0.00  0.00    +0.000 A 
ATOM      7  C   UNL     1      -0.963  13.962  22.457  0.00  0.00    +0.000 A 
ATOM      8  S   UNL     1      -0.152  15.376  21.984  0.00  0.00    +0.000 S 
ATOM      9  C   UNL     1       0.843  14.506  20.904  0.00  0.00    +0.000 A 
ATOM     10  N   UNL     1       1.738  15.146  20.147  0.00  0.00    +0.000 NA
ATOM     11  C   UNL     1      -2.122  13.966  23.412  0.00  0.00    +0.000 C 
ATOM     12  N   UNL     1      -2.898  12.704  23.345  0.00  0.00    +0.000 NA
ATOM     13  C   UNL     1      -3.773  12.674  22.169  0.00  0.00    +0.000 C 
ATOM     14  C   UNL     1      -1.982  11.540  23.370  0.00  0.00    +0.000 C 
ATOM     15  C   UNL     1      -0.994  11.470  22.183  0.00  0.00    +0.000 C 
ATOM     16  H   UNL     1       1.394  10.495  20.574  0.00  0.00    +0.000 HD
ENDROOT
BRANCH   1  18
ATOM     17  C   UNL     1       2.873  16.663  17.950  0.00  0.00    +0.000 C 
ATOM     18  S   UNL     1       3.650  15.061  18.288  0.00  0.00    +0.000 S 
ENDBRANCH   1  18
BRANCH   4  19
ATOM     19  C   UNL     1       1.194  10.407  18.518  0.00  0.00    +0.000 C 
BRANCH  19  20
ATOM     20  C   UNL     1       1.714   9.004  18.773  0.00  0.00    +0.000 A 
ATOM     21  C   UNL     1       1.505   8.395  20.024  0.00  0.00    +0.000 A 
ATOM     22  C   UNL     1       1.984   7.111  20.286  0.00  0.00    +0.000 A 
ATOM     23  C   UNL     1       2.672   6.413  19.297  0.00  0.00    +0.000 A 
ATOM     24  C   UNL     1       2.882   7.002  18.051  0.00  0.00    +0.000 A 
ATOM     25  C   UNL     1       2.409   8.291  17.789  0.00  0.00    +0.000 A 
ENDBRANCH  19  20
ENDBRANCH   4  19
TORSDOF 3
ENDMDL
MODEL 9
REMARK VINA RESULT:      -5.7      6.602      8.964
REMARK  Name = 
REMARK  5 active torsions:
REMARK  status: ('A' for Active; 'I' for Inactive)
REMARK    1  A    between atoms: C_1  and  S_2
REMARK    2  A    between atoms: S_2  and  C_3
REMARK    3  A    between atoms: N_6  and  C_7
REMARK    4  A    between atoms: C_7  and  C_8
REMARK    5  A    between atoms: N_21  and  C_22
REMARK                            x       y       z     vdW  Elec       q    Type
REMARK                         _______ _______ _______ _____ _____    ______ ____
ROOT
ATOM      1  C   UNL     1       2.185  13.700  19.658  0.00  0.00    +0.000 A 
ATOM      2  N   UNL     1       1.604  12.505  19.427  0.00  0.00    +0.000 NA
ATOM      3  C   UNL     1       0.569  12.122  20.201  0.00  0.00    +0.000 A 
ATOM      4  N   UNL     1      -0.111  10.931  19.981  0.00  0.00    +0.000 N 
ATOM      5  C   UNL     1       0.127  12.989  21.220  0.00  0.00    +0.000 A 
ATOM      6  C   UNL     1      -0.932  12.910  22.190  0.00  0.00    +0.000 A 
ATOM      7  C   UNL     1      -1.103  14.107  22.866  0.00  0.00    +0.000 A 
ATOM      8  S   UNL     1       0.088  15.250  22.469  0.00  0.00    +0.000 S 
ATOM      9  C   UNL     1       0.776  14.205  21.307  0.00  0.00    +0.000 A 
ATOM     10  N   UNL     1       1.816  14.606  20.571  0.00  0.00    +0.000 NA
ATOM     11  C   UNL     1      -2.203  14.384  23.850  0.00  0.00    +0.000 C 
ATOM     12  N   UNL     1      -3.319  13.414  23.719  0.00  0.00    +0.000 NA
ATOM     13  C   UNL     1      -4.169  13.729  22.567  0.00  0.00    +0.000 C 
ATOM     14  C   UNL     1      -2.787  12.034  23.641  0.00  0.00    +0.000 C 
ATOM     15  C   UNL     1      -1.870  11.762  22.426  0.00  0.00    +0.000 C 
ATOM     16  H   UNL     1       0.113  10.245  20.693  0.00  0.00    +0.000 HD
ENDROOT
BRANCH   1  18
ATOM     17  C   UNL     1       4.585  15.004  19.887  0.00  0.00    +0.000 C 
ATOM     18  S   UNL     1       3.608  14.095  18.661  0.00  0.00    +0.000 S 
ENDBRANCH   1  18
BRANCH   4  19
ATOM     19  C   UNL     1      -0.115  10.369  18.642  0.00  0.00    +0.000 C 
BRANCH  19  20
ATOM     20  C   UNL     1      -1.513  10.551  18.081  0.00  0.00    +0.000 A 
ATOM     21  C   UNL     1      -2.427  11.396  18.738  0.00  0.00    +0.000 A 
ATOM     22  C   UNL     1      -3.723  11.570  18.250  0.00  0.00    +0.000 A 
ATOM     23  C   UNL     1      -4.121  10.909  17.091  0.00  0.00    +0.000 A 
ATOM     24  C   UNL     1      -3.224  10.074  16.425  0.00  0.00    +0.000 A 
ATOM     25  C   UNL     1      -1.927   9.893  16.918  0.00  0.00    +0.000 A 
ENDBRANCH  19  20
ENDBRANCH   4  19
TORSDOF 3
ENDMDL
