MODEL 1
REMARK VINA RESULT:      -7.8      0.000      0.000
REMARK  Name = 
REMARK  6 active torsions:
REMARK  status: ('A' for Active; 'I' for Inactive)
REMARK    1  A    between atoms: C_1  and  O_2
REMARK    2  A    between atoms: O_2  and  C_3
REMARK    3  A    between atoms: C_7  and  S_8
REMARK    4  A    between atoms: S_8  and  N_11
REMARK    5  A    between atoms: N_11  and  C_12
REMARK    6  A    between atoms: C_12  and  C_13
REMARK                            x       y       z     vdW  Elec       q    Type
REMARK                         _______ _______ _______ _____ _____    ______ ____
ROOT
ATOM      1  N   UNL     1       4.648   5.889  19.644  0.00  0.00    +0.000 NA
ATOM      2  H   UNL     1       5.016   6.683  20.170  0.00  0.00    +0.000 HD
ENDROOT
BRANCH   1   3
ATOM      3  C   UNL     1       3.275   6.098  19.023  0.00  0.00    +0.000 C 
ATOM      4  C   UNL     1       2.527   7.408  19.439  0.00  0.00    +0.000 C 
ATOM      5  O   UNL     1       2.182   7.706  18.067  0.00  0.00    +0.000 OA
ATOM      6  C   UNL     1       3.197   6.779  17.605  0.00  0.00    +0.000 C 
BRANCH   3   7
ATOM      7  C   UNL     1       2.391   4.734  19.147  0.00  0.00    +0.000 A 
ATOM      8  C   UNL     1       2.041   3.940  18.028  0.00  0.00    +0.000 A 
ATOM      9  C   UNL     1       1.210   2.821  18.142  0.00  0.00    +0.000 A 
ATOM     10  C   UNL     1       0.716   2.438  19.384  0.00  0.00    +0.000 A 
ATOM     11  C   UNL     1       1.076   3.163  20.514  0.00  0.00    +0.000 A 
ATOM     12  C   UNL     1       1.906   4.274  20.386  0.00  0.00    +0.000 A 
ATOM     13  F   UNL     1       2.251   4.935  21.501  0.00  0.00    +0.000 F 
ENDBRANCH   3   7
ENDBRANCH   1   3
BRANCH   1  14
ATOM     14  S   UNL     1       5.818   4.729  19.317  0.00  0.00    +0.000 S 
ATOM     15  O   UNL     1       5.229   3.416  19.434  0.00  0.00    +0.000 OA
ATOM     16  O   UNL     1       6.991   5.102  20.072  0.00  0.00    +0.000 OA
BRANCH  14  21
ATOM     17  C   UNL     1       5.821   4.535  15.284  0.00  0.00    +0.000 A 
ATOM     18  C   UNL     1       6.805   5.483  15.025  0.00  0.00    +0.000 A 
ATOM     19  N   UNL     1       7.483   6.170  15.979  0.00  0.00    +0.000 NA
ATOM     20  C   UNL     1       7.156   5.905  17.265  0.00  0.00    +0.000 A 
ATOM     21  C   UNL     1       6.171   5.000  17.615  0.00  0.00    +0.000 A 
ATOM     22  C   UNL     1       5.528   4.267  16.615  0.00  0.00    +0.000 A 
BRANCH  17  24
ATOM     23  C   UNL     1       6.103   3.599  13.116  0.00  0.00    +0.000 C 
ATOM     24  O   UNL     1       5.242   3.947  14.197  0.00  0.00    +0.000 OA
ENDBRANCH  17  24
ENDBRANCH  14  21
ENDBRANCH   1  14
TORSDOF 5
ENDMDL
MODEL 2
REMARK VINA RESULT:      -7.6      1.827      3.395
REMARK  Name = 
REMARK  6 active torsions:
REMARK  status: ('A' for Active; 'I' for Inactive)
REMARK    1  A    between atoms: C_1  and  O_2
REMARK    2  A    between atoms: O_2  and  C_3
REMARK    3  A    between atoms: C_7  and  S_8
REMARK    4  A    between atoms: S_8  and  N_11
REMARK    5  A    between atoms: N_11  and  C_12
REMARK    6  A    between atoms: C_12  and  C_13
REMARK                            x       y       z     vdW  Elec       q    Type
REMARK                         _______ _______ _______ _____ _____    ______ ____
ROOT
ATOM      1  N   UNL     1       4.286   5.852  18.814  0.00  0.00    +0.000 NA
ATOM      2  H   UNL     1       4.567   6.698  18.315  0.00  0.00    +0.000 HD
ENDROOT
BRANCH   1   3
ATOM      3  C   UNL     1       2.832   5.809  19.258  0.00  0.00    +0.000 C 
ATOM      4  C   UNL     1       1.923   4.766  18.525  0.00  0.00    +0.000 C 
ATOM      5  O   UNL     1       1.365   4.301  19.775  0.00  0.00    +0.000 OA
ATOM      6  C   UNL     1       2.461   4.913  20.499  0.00  0.00    +0.000 C 
BRANCH   3   7
ATOM      7  C   UNL     1       2.223   7.319  19.330  0.00  0.00    +0.000 A 
ATOM      8  C   UNL     1       1.595   7.840  20.487  0.00  0.00    +0.000 A 
ATOM      9  C   UNL     1       1.001   9.107  20.504  0.00  0.00    +0.000 A 
ATOM     10  C   UNL     1       1.034   9.911  19.370  0.00  0.00    +0.000 A 
ATOM     11  C   UNL     1       1.684   9.455  18.230  0.00  0.00    +0.000 A 
ATOM     12  C   UNL     1       2.273   8.193  18.227  0.00  0.00    +0.000 A 
ATOM     13  F   UNL     1       2.911   7.796  17.117  0.00  0.00    +0.000 F 
ENDBRANCH   3   7
ENDBRANCH   1   3
BRANCH   1  14
ATOM     14  S   UNL     1       5.412   4.613  18.677  0.00  0.00    +0.000 S 
ATOM     15  O   UNL     1       4.738   3.343  18.804  0.00  0.00    +0.000 OA
ATOM     16  O   UNL     1       6.522   4.969  19.529  0.00  0.00    +0.000 OA
BRANCH  14  21
ATOM     17  C   UNL     1       5.729   4.283  14.665  0.00  0.00    +0.000 A 
ATOM     18  C   UNL     1       6.883   5.038  14.479  0.00  0.00    +0.000 A 
ATOM     19  N   UNL     1       7.586   5.630  15.478  0.00  0.00    +0.000 NA
ATOM     20  C   UNL     1       7.108   5.469  16.734  0.00  0.00    +0.000 A 
ATOM     21  C   UNL     1       5.953   4.760  17.009  0.00  0.00    +0.000 A 
ATOM     22  C   UNL     1       5.280   4.116  15.969  0.00  0.00    +0.000 A 
BRANCH  17  24
ATOM     23  C   UNL     1       6.025   3.412  12.472  0.00  0.00    +0.000 C 
ATOM     24  O   UNL     1       5.152   3.768  13.541  0.00  0.00    +0.000 OA
ENDBRANCH  17  24
ENDBRANCH  14  21
ENDBRANCH   1  14
TORSDOF 5
ENDMDL
MODEL 3
REMARK VINA RESULT:      -7.5      1.426      3.043
REMARK  Name = 
REMARK  6 active torsions:
REMARK  status: ('A' for Active; 'I' for Inactive)
REMARK    1  A    between atoms: C_1  and  O_2
REMARK    2  A    between atoms: O_2  and  C_3
REMARK    3  A    between atoms: C_7  and  S_8
REMARK    4  A    between atoms: S_8  and  N_11
REMARK    5  A    between atoms: N_11  and  C_12
REMARK    6  A    between atoms: C_12  and  C_13
REMARK                            x       y       z     vdW  Elec       q    Type
REMARK                         _______ _______ _______ _____ _____    ______ ____
ROOT
ATOM      1  N   UNL     1       4.483   5.921  19.222  0.00  0.00    +0.000 NA
ATOM      2  H   UNL     1       4.849   6.872  19.156  0.00  0.00    +0.000 HD
ENDROOT
BRANCH   1   3
ATOM      3  C   UNL     1       2.970   5.796  19.123  0.00  0.00    +0.000 C 
ATOM      4  C   UNL     1       2.435   4.764  18.075  0.00  0.00    +0.000 C 
ATOM      5  O   UNL     1       1.502   4.205  19.028  0.00  0.00    +0.000 OA
ATOM      6  C   UNL     1       2.240   4.816  20.116  0.00  0.00    +0.000 C 
BRANCH   3   7
ATOM      7  C   UNL     1       2.290   7.275  19.039  0.00  0.00    +0.000 A 
ATOM      8  C   UNL     1       2.306   8.062  17.862  0.00  0.00    +0.000 A 
ATOM      9  C   UNL     1       1.794   9.364  17.832  0.00  0.00    +0.000 A 
ATOM     10  C   UNL     1       1.225   9.920  18.972  0.00  0.00    +0.000 A 
ATOM     11  C   UNL     1       1.146   9.161  20.134  0.00  0.00    +0.000 A 
ATOM     12  C   UNL     1       1.659   7.866  20.150  0.00  0.00    +0.000 A 
ATOM     13  F   UNL     1       1.545   7.156  21.282  0.00  0.00    +0.000 F 
ENDBRANCH   3   7
ENDBRANCH   1   3
BRANCH   1  14
ATOM     14  S   UNL     1       5.677   4.752  19.054  0.00  0.00    +0.000 S 
ATOM     15  O   UNL     1       5.089   3.444  19.227  0.00  0.00    +0.000 OA
ATOM     16  O   UNL     1       6.797   5.189  19.854  0.00  0.00    +0.000 OA
BRANCH  14  21
ATOM     17  C   UNL     1       5.907   4.309  15.047  0.00  0.00    +0.000 A 
ATOM     18  C   UNL     1       6.939   5.206  14.792  0.00  0.00    +0.000 A 
ATOM     19  N   UNL     1       7.585   5.928  15.742  0.00  0.00    +0.000 NA
ATOM     20  C   UNL     1       7.175   5.754  17.020  0.00  0.00    +0.000 A 
ATOM     21  C   UNL     1       6.139   4.905  17.364  0.00  0.00    +0.000 A 
ATOM     22  C   UNL     1       5.528   4.134  16.373  0.00  0.00    +0.000 A 
BRANCH  17  24
ATOM     23  C   UNL     1       6.192   3.571  12.805  0.00  0.00    +0.000 C 
ATOM     24  O   UNL     1       5.371   3.675  13.965  0.00  0.00    +0.000 OA
ENDBRANCH  17  24
ENDBRANCH  14  21
ENDBRANCH   1  14
TORSDOF 5
ENDMDL
MODEL 4
REMARK VINA RESULT:      -7.2      1.051      1.437
REMARK  Name = 
REMARK  6 active torsions:
REMARK  status: ('A' for Active; 'I' for Inactive)
REMARK    1  A    between atoms: C_1  and  O_2
REMARK    2  A    between atoms: O_2  and  C_3
REMARK    3  A    between atoms: C_7  and  S_8
REMARK    4  A    between atoms: S_8  and  N_11
REMARK    5  A    between atoms: N_11  and  C_12
REMARK    6  A    between atoms: C_12  and  C_13
REMARK                            x       y       z     vdW  Elec       q    Type
REMARK                         _______ _______ _______ _____ _____    ______ ____
ROOT
ATOM      1  N   UNL     1       4.631   5.943  19.549  0.00  0.00    +0.000 NA
ATOM      2  H   UNL     1       4.994   6.772  20.023  0.00  0.00    +0.000 HD
ENDROOT
BRANCH   1   3
ATOM      3  C   UNL     1       3.282   6.119  18.869  0.00  0.00    +0.000 C 
ATOM      4  C   UNL     1       2.543   7.470  19.152  0.00  0.00    +0.000 C 
ATOM      5  O   UNL     1       2.246   7.659  17.751  0.00  0.00    +0.000 OA
ATOM      6  C   UNL     1       3.259   6.683  17.399  0.00  0.00    +0.000 C 
BRANCH   3   7
ATOM      7  C   UNL     1       2.372   4.783  19.077  0.00  0.00    +0.000 A 
ATOM      8  C   UNL     1       1.654   4.519  20.268  0.00  0.00    +0.000 A 
ATOM      9  C   UNL     1       0.948   3.326  20.462  0.00  0.00    +0.000 A 
ATOM     10  C   UNL     1       0.914   2.362  19.460  0.00  0.00    +0.000 A 
ATOM     11  C   UNL     1       1.565   2.605  18.257  0.00  0.00    +0.000 A 
ATOM     12  C   UNL     1       2.263   3.797  18.077  0.00  0.00    +0.000 A 
ATOM     13  F   UNL     1       2.860   4.007  16.895  0.00  0.00    +0.000 F 
ENDBRANCH   3   7
ENDBRANCH   1   3
BRANCH   1  14
ATOM     14  S   UNL     1       5.793   4.746  19.352  0.00  0.00    +0.000 S 
ATOM     15  O   UNL     1       5.171   3.452  19.499  0.00  0.00    +0.000 OA
ATOM     16  O   UNL     1       6.927   5.136  20.156  0.00  0.00    +0.000 OA
BRANCH  14  21
ATOM     17  C   UNL     1       6.299   4.140  15.392  0.00  0.00    +0.000 A 
ATOM     18  C   UNL     1       7.026   5.287  15.091  0.00  0.00    +0.000 A 
ATOM     19  N   UNL     1       7.391   6.228  15.998  0.00  0.00    +0.000 NA
ATOM     20  C   UNL     1       7.002   6.020  17.278  0.00  0.00    +0.000 A 
ATOM     21  C   UNL     1       6.253   4.923  17.663  0.00  0.00    +0.000 A 
ATOM     22  C   UNL     1       5.938   3.944  16.719  0.00  0.00    +0.000 A 
BRANCH  17  24
ATOM     23  C   UNL     1       5.682   3.919  13.106  0.00  0.00    +0.000 C 
ATOM     24  O   UNL     1       6.018   3.307  14.348  0.00  0.00    +0.000 OA
ENDBRANCH  17  24
ENDBRANCH  14  21
ENDBRANCH   1  14
TORSDOF 5
ENDMDL
MODEL 5
REMARK VINA RESULT:      -6.9      1.842      3.363
REMARK  Name = 
REMARK  6 active torsions:
REMARK  status: ('A' for Active; 'I' for Inactive)
REMARK    1  A    between atoms: C_1  and  O_2
REMARK    2  A    between atoms: O_2  and  C_3
REMARK    3  A    between atoms: C_7  and  S_8
REMARK    4  A    between atoms: S_8  and  N_11
REMARK    5  A    between atoms: N_11  and  C_12
REMARK    6  A    between atoms: C_12  and  C_13
REMARK                            x       y       z     vdW  Elec       q    Type
REMARK                         _______ _______ _______ _____ _____    ______ ____
ROOT
ATOM      1  N   UNL     1       4.435   5.870  19.453  0.00  0.00    +0.000 NA
ATOM      2  H   UNL     1       4.810   6.804  19.283  0.00  0.00    +0.000 HD
ENDROOT
BRANCH   1   3
ATOM      3  C   UNL     1       2.920   5.780  19.541  0.00  0.00    +0.000 C 
ATOM      4  C   UNL     1       2.257   4.593  18.764  0.00  0.00    +0.000 C 
ATOM      5  O   UNL     1       1.428   4.248  19.897  0.00  0.00    +0.000 OA
ATOM      6  C   UNL     1       2.291   5.022  20.770  0.00  0.00    +0.000 C 
BRANCH   3   7
ATOM      7  C   UNL     1       2.255   7.241  19.259  0.00  0.00    +0.000 A 
ATOM      8  C   UNL     1       2.311   7.881  17.997  0.00  0.00    +0.000 A 
ATOM      9  C   UNL     1       1.811   9.172  17.795  0.00  0.00    +0.000 A 
ATOM     10  C   UNL     1       1.213   9.864  18.842  0.00  0.00    +0.000 A 
ATOM     11  C   UNL     1       1.094   9.251  20.084  0.00  0.00    +0.000 A 
ATOM     12  C   UNL     1       1.595   7.964  20.271  0.00  0.00    +0.000 A 
ATOM     13  F   UNL     1       1.442   7.396  21.476  0.00  0.00    +0.000 F 
ENDBRANCH   3   7
ENDBRANCH   1   3
BRANCH   1  14
ATOM     14  S   UNL     1       5.579   4.660  19.224  0.00  0.00    +0.000 S 
ATOM     15  O   UNL     1       5.028   3.399  19.662  0.00  0.00    +0.000 OA
ATOM     16  O   UNL     1       6.824   5.166  19.751  0.00  0.00    +0.000 OA
BRANCH  14  21
ATOM     17  C   UNL     1       6.889   5.098  15.430  0.00  0.00    +0.000 A 
ATOM     18  C   UNL     1       5.853   4.445  14.769  0.00  0.00    +0.000 A 
ATOM     19  N   UNL     1       4.776   3.894  15.382  0.00  0.00    +0.000 NA
ATOM     20  C   UNL     1       4.730   3.988  16.732  0.00  0.00    +0.000 A 
ATOM     21  C   UNL     1       5.729   4.593  17.473  0.00  0.00    +0.000 A 
ATOM     22  C   UNL     1       6.799   5.200  16.813  0.00  0.00    +0.000 A 
BRANCH  17  24
ATOM     23  C   UNL     1       7.859   5.253  13.264  0.00  0.00    +0.000 C 
ATOM     24  O   UNL     1       7.896   5.586  14.649  0.00  0.00    +0.000 OA
ENDBRANCH  17  24
ENDBRANCH  14  21
ENDBRANCH   1  14
TORSDOF 5
ENDMDL
MODEL 6
REMARK VINA RESULT:      -6.9      1.477      1.829
REMARK  Name = 
REMARK  6 active torsions:
REMARK  status: ('A' for Active; 'I' for Inactive)
REMARK    1  A    between atoms: C_1  and  O_2
REMARK    2  A    between atoms: O_2  and  C_3
REMARK    3  A    between atoms: C_7  and  S_8
REMARK    4  A    between atoms: S_8  and  N_11
REMARK    5  A    between atoms: N_11  and  C_12
REMARK    6  A    between atoms: C_12  and  C_13
REMARK                            x       y       z     vdW  Elec       q    Type
REMARK                         _______ _______ _______ _____ _____    ______ ____
ROOT
ATOM      1  N   UNL     1       3.797   5.898  17.659  0.00  0.00    +0.000 NA
ATOM      2  H   UNL     1       3.620   6.084  16.671  0.00  0.00    +0.000 HD
ENDROOT
BRANCH   1   3
ATOM      3  C   UNL     1       2.685   6.312  18.610  0.00  0.00    +0.000 C 
ATOM      4  C   UNL     1       2.999   7.530  19.543  0.00  0.00    +0.000 C 
ATOM      5  O   UNL     1       1.728   8.150  19.245  0.00  0.00    +0.000 OA
ATOM      6  C   UNL     1       1.582   7.303  18.077  0.00  0.00    +0.000 C 
BRANCH   3   7
ATOM      7  C   UNL     1       2.081   5.003  19.370  0.00  0.00    +0.000 A 
ATOM      8  C   UNL     1       2.246   4.775  20.758  0.00  0.00    +0.000 A 
ATOM      9  C   UNL     1       1.796   3.604  21.378  0.00  0.00    +0.000 A 
ATOM     10  C   UNL     1       1.142   2.626  20.637  0.00  0.00    +0.000 A 
ATOM     11  C   UNL     1       0.917   2.834  19.281  0.00  0.00    +0.000 A 
ATOM     12  C   UNL     1       1.369   4.005  18.677  0.00  0.00    +0.000 A 
ATOM     13  F   UNL     1       1.114   4.182  17.373  0.00  0.00    +0.000 F 
ENDBRANCH   3   7
ENDBRANCH   1   3
BRANCH   1  14
ATOM     14  S   UNL     1       5.100   4.865  17.904  0.00  0.00    +0.000 S 
ATOM     15  O   UNL     1       4.606   3.534  18.166  0.00  0.00    +0.000 OA
ATOM     16  O   UNL     1       5.991   5.536  18.820  0.00  0.00    +0.000 OA
BRANCH  14  21
ATOM     17  C   UNL     1       6.022   4.075  14.053  0.00  0.00    +0.000 A 
ATOM     18  C   UNL     1       7.165   4.861  13.941  0.00  0.00    +0.000 A 
ATOM     19  N   UNL     1       7.691   5.602  14.948  0.00  0.00    +0.000 NA
ATOM     20  C   UNL     1       7.037   5.569  16.133  0.00  0.00    +0.000 A 
ATOM     21  C   UNL     1       5.878   4.840  16.326  0.00  0.00    +0.000 A 
ATOM     22  C   UNL     1       5.389   4.042  15.289  0.00  0.00    +0.000 A 
BRANCH  17  24
ATOM     23  C   UNL     1       6.611   3.245  11.904  0.00  0.00    +0.000 C 
ATOM     24  O   UNL     1       5.636   3.400  12.931  0.00  0.00    +0.000 OA
ENDBRANCH  17  24
ENDBRANCH  14  21
ENDBRANCH   1  14
TORSDOF 5
ENDMDL
MODEL 7
REMARK VINA RESULT:      -6.8      1.485      1.965
REMARK  Name = 
REMARK  6 active torsions:
REMARK  status: ('A' for Active; 'I' for Inactive)
REMARK    1  A    between atoms: C_1  and  O_2
REMARK    2  A    between atoms: O_2  and  C_3
REMARK    3  A    between atoms: C_7  and  S_8
REMARK    4  A    between atoms: S_8  and  N_11
REMARK    5  A    between atoms: N_11  and  C_12
REMARK    6  A    between atoms: C_12  and  C_13
REMARK                            x       y       z     vdW  Elec       q    Type
REMARK                         _______ _______ _______ _____ _____    ______ ____
ROOT
ATOM      1  N   UNL     1       4.639   5.927  19.513  0.00  0.00    +0.000 NA
ATOM      2  H   UNL     1       5.104   6.793  19.790  0.00  0.00    +0.000 HD
ENDROOT
BRANCH   1   3
ATOM      3  C   UNL     1       3.187   6.076  19.086  0.00  0.00    +0.000 C 
ATOM      4  C   UNL     1       2.514   7.452  19.409  0.00  0.00    +0.000 C 
ATOM      5  O   UNL     1       1.962   7.552  18.078  0.00  0.00    +0.000 OA
ATOM      6  C   UNL     1       2.891   6.541  17.611  0.00  0.00    +0.000 C 
BRANCH   3   7
ATOM      7  C   UNL     1       2.330   4.768  19.547  0.00  0.00    +0.000 A 
ATOM      8  C   UNL     1       2.209   4.367  20.900  0.00  0.00    +0.000 A 
ATOM      9  C   UNL     1       1.543   3.193  21.270  0.00  0.00    +0.000 A 
ATOM     10  C   UNL     1       0.951   2.389  20.302  0.00  0.00    +0.000 A 
ATOM     11  C   UNL     1       1.006   2.774  18.968  0.00  0.00    +0.000 A 
ATOM     12  C   UNL     1       1.672   3.945  18.614  0.00  0.00    +0.000 A 
ATOM     13  F   UNL     1       1.685   4.297  17.320  0.00  0.00    +0.000 F 
ENDBRANCH   3   7
ENDBRANCH   1   3
BRANCH   1  14
ATOM     14  S   UNL     1       5.715   4.661  19.267  0.00  0.00    +0.000 S 
ATOM     15  O   UNL     1       5.110   3.430  19.718  0.00  0.00    +0.000 OA
ATOM     16  O   UNL     1       6.994   5.103  19.768  0.00  0.00    +0.000 OA
BRANCH  14  21
ATOM     17  C   UNL     1       6.919   5.117  15.439  0.00  0.00    +0.000 A 
ATOM     18  C   UNL     1       5.898   4.413  14.809  0.00  0.00    +0.000 A 
ATOM     19  N   UNL     1       4.860   3.820  15.451  0.00  0.00    +0.000 NA
ATOM     20  C   UNL     1       4.841   3.926  16.800  0.00  0.00    +0.000 A 
ATOM     21  C   UNL     1       5.828   4.582  17.513  0.00  0.00    +0.000 A 
ATOM     22  C   UNL     1       6.856   5.229  16.823  0.00  0.00    +0.000 A 
BRANCH  17  24
ATOM     23  C   UNL     1       7.854   5.263  13.258  0.00  0.00    +0.000 C 
ATOM     24  O   UNL     1       7.885   5.641  14.631  0.00  0.00    +0.000 OA
ENDBRANCH  17  24
ENDBRANCH  14  21
ENDBRANCH   1  14
TORSDOF 5
ENDMDL
MODEL 8
REMARK VINA RESULT:      -6.8      2.128      3.582
REMARK  Name = 
REMARK  6 active torsions:
REMARK  status: ('A' for Active; 'I' for Inactive)
REMARK    1  A    between atoms: C_1  and  O_2
REMARK    2  A    between atoms: O_2  and  C_3
REMARK    3  A    between atoms: C_7  and  S_8
REMARK    4  A    between atoms: S_8  and  N_11
REMARK    5  A    between atoms: N_11  and  C_12
REMARK    6  A    between atoms: C_12  and  C_13
REMARK                            x       y       z     vdW  Elec       q    Type
REMARK                         _______ _______ _______ _____ _____    ______ ____
ROOT
ATOM      1  N   UNL     1       3.635   4.359  18.888  0.00  0.00    +0.000 NA
ATOM      2  H   UNL     1       4.420   5.011  18.932  0.00  0.00    +0.000 HD
ENDROOT
BRANCH   1   3
ATOM      3  C   UNL     1       2.441   4.716  19.760  0.00  0.00    +0.000 C 
ATOM      4  C   UNL     1       1.177   3.807  19.595  0.00  0.00    +0.000 C 
ATOM      5  O   UNL     1       1.021   3.678  21.025  0.00  0.00    +0.000 OA
ATOM      6  C   UNL     1       2.386   4.128  21.220  0.00  0.00    +0.000 C 
BRANCH   3   7
ATOM      7  C   UNL     1       2.150   6.318  19.684  0.00  0.00    +0.000 A 
ATOM      8  C   UNL     1       1.610   7.053  20.766  0.00  0.00    +0.000 A 
ATOM      9  C   UNL     1       1.285   8.410  20.654  0.00  0.00    +0.000 A 
ATOM     10  C   UNL     1       1.512   9.089  19.462  0.00  0.00    +0.000 A 
ATOM     11  C   UNL     1       2.087   8.414  18.392  0.00  0.00    +0.000 A 
ATOM     12  C   UNL     1       2.406   7.063  18.517  0.00  0.00    +0.000 A 
ATOM     13  F   UNL     1       2.980   6.451  17.471  0.00  0.00    +0.000 F 
ENDBRANCH   3   7
ENDBRANCH   1   3
BRANCH   1  14
ATOM     14  S   UNL     1       3.751   3.289  17.598  0.00  0.00    +0.000 S 
ATOM     15  O   UNL     1       2.593   3.440  16.750  0.00  0.00    +0.000 OA
ATOM     16  O   UNL     1       4.118   2.009  18.157  0.00  0.00    +0.000 OA
BRANCH  14  21
ATOM     17  C   UNL     1       6.391   4.183  14.677  0.00  0.00    +0.000 A 
ATOM     18  C   UNL     1       7.331   4.869  15.440  0.00  0.00    +0.000 A 
ATOM     19  N   UNL     1       7.237   5.070  16.779  0.00  0.00    +0.000 NA
ATOM     20  C   UNL     1       6.140   4.568  17.393  0.00  0.00    +0.000 A 
ATOM     21  C   UNL     1       5.141   3.899  16.709  0.00  0.00    +0.000 A 
ATOM     22  C   UNL     1       5.290   3.659  15.342  0.00  0.00    +0.000 A 
BRANCH  17  24
ATOM     23  C   UNL     1       5.653   3.460  12.535  0.00  0.00    +0.000 C 
ATOM     24  O   UNL     1       6.649   4.083  13.341  0.00  0.00    +0.000 OA
ENDBRANCH  17  24
ENDBRANCH  14  21
ENDBRANCH   1  14
TORSDOF 5
ENDMDL
MODEL 9
REMARK VINA RESULT:      -6.8      2.272      3.992
REMARK  Name = 
REMARK  6 active torsions:
REMARK  status: ('A' for Active; 'I' for Inactive)
REMARK    1  A    between atoms: C_1  and  O_2
REMARK    2  A    between atoms: O_2  and  C_3
REMARK    3  A    between atoms: C_7  and  S_8
REMARK    4  A    between atoms: S_8  and  N_11
REMARK    5  A    between atoms: N_11  and  C_12
REMARK    6  A    between atoms: C_12  and  C_13
REMARK                            x       y       z     vdW  Elec       q    Type
REMARK                         _______ _______ _______ _____ _____    ______ ____
ROOT
ATOM      1  N   UNL     1       3.608   4.406  18.906  0.00  0.00    +0.000 NA
ATOM      2  H   UNL     1       4.399   5.051  18.950  0.00  0.00    +0.000 HD
ENDROOT
BRANCH   1   3
ATOM      3  C   UNL     1       2.430   4.756  19.801  0.00  0.00    +0.000 C 
ATOM      4  C   UNL     1       1.166   3.842  19.659  0.00  0.00    +0.000 C 
ATOM      5  O   UNL     1       1.039   3.709  21.092  0.00  0.00    +0.000 OA
ATOM      6  C   UNL     1       2.405   4.166  21.261  0.00  0.00    +0.000 C 
BRANCH   3   7
ATOM      7  C   UNL     1       2.130   6.356  19.732  0.00  0.00    +0.000 A 
ATOM      8  C   UNL     1       1.625   7.092  20.832  0.00  0.00    +0.000 A 
ATOM      9  C   UNL     1       1.292   8.447  20.729  0.00  0.00    +0.000 A 
ATOM     10  C   UNL     1       1.474   9.124  19.529  0.00  0.00    +0.000 A 
ATOM     11  C   UNL     1       2.012   8.450  18.440  0.00  0.00    +0.000 A 
ATOM     12  C   UNL     1       2.341   7.101  18.556  0.00  0.00    +0.000 A 
ATOM     13  F   UNL     1       2.880   6.489  17.492  0.00  0.00    +0.000 F 
ENDBRANCH   3   7
ENDBRANCH   1   3
BRANCH   1  14
ATOM     14  S   UNL     1       3.697   3.358  17.595  0.00  0.00    +0.000 S 
ATOM     15  O   UNL     1       2.510   3.507  16.787  0.00  0.00    +0.000 OA
ATOM     16  O   UNL     1       4.099   2.074  18.121  0.00  0.00    +0.000 OA
BRANCH  14  21
ATOM     17  C   UNL     1       6.857   5.557  16.378  0.00  0.00    +0.000 A 
ATOM     18  C   UNL     1       7.101   4.926  15.163  0.00  0.00    +0.000 A 
ATOM     19  N   UNL     1       6.373   3.892  14.672  0.00  0.00    +0.000 NA
ATOM     20  C   UNL     1       5.347   3.454  15.438  0.00  0.00    +0.000 A 
ATOM     21  C   UNL     1       5.050   4.002  16.673  0.00  0.00    +0.000 A 
ATOM     22  C   UNL     1       5.781   5.101  17.129  0.00  0.00    +0.000 A 
BRANCH  17  24
ATOM     23  C   UNL     1       7.145   7.646  17.478  0.00  0.00    +0.000 C 
ATOM     24  O   UNL     1       7.698   6.578  16.713  0.00  0.00    +0.000 OA
ENDBRANCH  17  24
ENDBRANCH  14  21
ENDBRANCH   1  14
TORSDOF 5
ENDMDL
