MODEL 1
REMARK VINA RESULT:      -6.5      0.000      0.000
REMARK  Name = 
REMARK  4 active torsions:
REMARK  status: ('A' for Active; 'I' for Inactive)
REMARK    1  A    between atoms: C_1  and  C_2
REMARK    2  A    between atoms: C_6  and  N_7
REMARK    3  A    between atoms: C_8  and  C_10
REMARK    4  A    between atoms: C_14  and  C_15
REMARK                            x       y       z     vdW  Elec       q    Type
REMARK                         _______ _______ _______ _____ _____    ______ ____
ROOT
ATOM      1  C   UNL     1       7.641   4.643  11.670  0.00  0.00    +0.000 C 
ATOM      2  C   UNL     1       7.086   4.610  13.037  0.00  0.00    +0.000 A 
ATOM      3  N   UNL     1       6.060   3.918  13.488  0.00  0.00    +0.000 NA
ATOM      4  C   UNL     1       6.001   4.257  14.816  0.00  0.00    +0.000 A 
ATOM      5  C   UNL     1       5.130   3.839  15.830  0.00  0.00    +0.000 A 
ATOM      6  C   UNL     1       5.300   4.350  17.124  0.00  0.00    +0.000 A 
ATOM      7  C   UNL     1       6.320   5.292  17.376  0.00  0.00    +0.000 A 
ATOM      8  C   UNL     1       7.208   5.715  16.373  0.00  0.00    +0.000 A 
ATOM      9  C   UNL     1       7.002   5.164  15.116  0.00  0.00    +0.000 A 
ATOM     10  O   UNL     1       7.712   5.396  13.974  0.00  0.00    +0.000 OA
ENDROOT
BRANCH   6  11
ATOM     11  N   UNL     1       4.488   3.967  18.212  0.00  0.00    +0.000 N 
ATOM     12  C   UNL     1       3.172   4.350  18.456  0.00  0.00    +0.000 C 
ATOM     13  O   UNL     1       2.526   5.074  17.702  0.00  0.00    +0.000 OA
ATOM     14  H   UNL     1       4.862   3.273  18.850  0.00  0.00    +0.000 HD
BRANCH  12  15
ATOM     15  C   UNL     1       2.570   3.787  19.673  0.00  0.00    +0.000 A 
ATOM     16  S   UNL     1       2.603   2.096  19.982  0.00  0.00    +0.000 S 
ATOM     17  C   UNL     1       1.751   2.266  21.447  0.00  0.00    +0.000 A 
ATOM     18  C   UNL     1       1.455   3.581  21.716  0.00  0.00    +0.000 A 
ATOM     19  C   UNL     1       1.926   4.477  20.700  0.00  0.00    +0.000 A 
ATOM     20  C   UNL     1       1.721   5.958  20.761  0.00  0.00    +0.000 C 
ENDBRANCH  12  15
ENDBRANCH   6  11
TORSDOF 2
ENDMDL
MODEL 2
REMARK VINA RESULT:      -6.4      0.960      1.384
REMARK  Name = 
REMARK  4 active torsions:
REMARK  status: ('A' for Active; 'I' for Inactive)
REMARK    1  A    between atoms: C_1  and  C_2
REMARK    2  A    between atoms: C_6  and  N_7
REMARK    3  A    between atoms: C_8  and  C_10
REMARK    4  A    between atoms: C_14  and  C_15
REMARK                            x       y       z     vdW  Elec       q    Type
REMARK                         _______ _______ _______ _____ _____    ______ ____
ROOT
ATOM      1  C   UNL     1       7.586   4.876  11.783  0.00  0.00    +0.000 C 
ATOM      2  C   UNL     1       7.007   4.779  13.137  0.00  0.00    +0.000 A 
ATOM      3  N   UNL     1       5.958   4.089  13.532  0.00  0.00    +0.000 NA
ATOM      4  C   UNL     1       5.884   4.354  14.876  0.00  0.00    +0.000 A 
ATOM      5  C   UNL     1       4.985   3.900  15.850  0.00  0.00    +0.000 A 
ATOM      6  C   UNL     1       5.146   4.333  17.174  0.00  0.00    +0.000 A 
ATOM      7  C   UNL     1       6.183   5.234  17.495  0.00  0.00    +0.000 A 
ATOM      8  C   UNL     1       7.098   5.691  16.532  0.00  0.00    +0.000 A 
ATOM      9  C   UNL     1       6.901   5.217  15.243  0.00  0.00    +0.000 A 
ATOM     10  O   UNL     1       7.635   5.495  14.127  0.00  0.00    +0.000 OA
ENDROOT
BRANCH   6  11
ATOM     11  N   UNL     1       4.306   3.909  18.225  0.00  0.00    +0.000 N 
ATOM     12  C   UNL     1       3.119   4.502  18.646  0.00  0.00    +0.000 C 
ATOM     13  O   UNL     1       2.626   5.488  18.105  0.00  0.00    +0.000 OA
ATOM     14  H   UNL     1       4.537   3.033  18.680  0.00  0.00    +0.000 HD
BRANCH  12  15
ATOM     15  C   UNL     1       2.448   3.834  19.770  0.00  0.00    +0.000 A 
ATOM     16  S   UNL     1       2.671   4.373  21.388  0.00  0.00    +0.000 S 
ATOM     17  C   UNL     1       1.658   3.158  22.017  0.00  0.00    +0.000 A 
ATOM     18  C   UNL     1       1.140   2.359  21.026  0.00  0.00    +0.000 A 
ATOM     19  C   UNL     1       1.585   2.739  19.716  0.00  0.00    +0.000 A 
ATOM     20  C   UNL     1       1.166   2.020  18.472  0.00  0.00    +0.000 C 
ENDBRANCH  12  15
ENDBRANCH   6  11
TORSDOF 2
ENDMDL
MODEL 3
REMARK VINA RESULT:      -6.3      3.881      7.990
REMARK  Name = 
REMARK  4 active torsions:
REMARK  status: ('A' for Active; 'I' for Inactive)
REMARK    1  A    between atoms: C_1  and  C_2
REMARK    2  A    between atoms: C_6  and  N_7
REMARK    3  A    between atoms: C_8  and  C_10
REMARK    4  A    between atoms: C_14  and  C_15
REMARK                            x       y       z     vdW  Elec       q    Type
REMARK                         _______ _______ _______ _____ _____    ______ ____
ROOT
ATOM      1  C   UNL     1      -0.822  10.199  23.156  0.00  0.00    +0.000 C 
ATOM      2  C   UNL     1      -0.067   9.698  21.991  0.00  0.00    +0.000 A 
ATOM      3  N   UNL     1       0.791   8.701  21.937  0.00  0.00    +0.000 NA
ATOM      4  C   UNL     1       1.172   8.674  20.620  0.00  0.00    +0.000 A 
ATOM      5  C   UNL     1       2.058   7.827  19.941  0.00  0.00    +0.000 A 
ATOM      6  C   UNL     1       2.264   8.022  18.567  0.00  0.00    +0.000 A 
ATOM      7  C   UNL     1       1.604   9.078  17.904  0.00  0.00    +0.000 A 
ATOM      8  C   UNL     1       0.706   9.930  18.569  0.00  0.00    +0.000 A 
ATOM      9  C   UNL     1       0.528   9.679  19.922  0.00  0.00    +0.000 A 
ATOM     10  O   UNL     1      -0.278  10.346  20.798  0.00  0.00    +0.000 OA
ENDROOT
BRANCH   6  11
ATOM     11  N   UNL     1       3.117   7.204  17.798  0.00  0.00    +0.000 N 
ATOM     12  C   UNL     1       3.566   5.925  18.112  0.00  0.00    +0.000 C 
ATOM     13  O   UNL     1       3.231   5.319  19.127  0.00  0.00    +0.000 OA
ATOM     14  H   UNL     1       3.374   7.538  16.875  0.00  0.00    +0.000 HD
BRANCH  12  15
ATOM     15  C   UNL     1       4.447   5.306  17.112  0.00  0.00    +0.000 A 
ATOM     16  S   UNL     1       5.502   6.258  16.143  0.00  0.00    +0.000 S 
ATOM     17  C   UNL     1       6.096   4.896  15.310  0.00  0.00    +0.000 A 
ATOM     18  C   UNL     1       5.524   3.731  15.762  0.00  0.00    +0.000 A 
ATOM     19  C   UNL     1       4.568   3.949  16.809  0.00  0.00    +0.000 A 
ATOM     20  C   UNL     1       3.806   2.839  17.462  0.00  0.00    +0.000 C 
ENDBRANCH  12  15
ENDBRANCH   6  11
TORSDOF 2
ENDMDL
MODEL 4
REMARK VINA RESULT:      -6.3      4.109      5.407
REMARK  Name = 
REMARK  4 active torsions:
REMARK  status: ('A' for Active; 'I' for Inactive)
REMARK    1  A    between atoms: C_1  and  C_2
REMARK    2  A    between atoms: C_6  and  N_7
REMARK    3  A    between atoms: C_8  and  C_10
REMARK    4  A    between atoms: C_14  and  C_15
REMARK                            x       y       z     vdW  Elec       q    Type
REMARK                         _______ _______ _______ _____ _____    ______ ____
ROOT
ATOM      1  C   UNL     1       6.641   4.051  14.858  0.00  0.00    +0.000 C 
ATOM      2  C   UNL     1       5.672   4.715  15.751  0.00  0.00    +0.000 A 
ATOM      3  N   UNL     1       5.633   5.978  16.123  0.00  0.00    +0.000 NA
ATOM      4  C   UNL     1       4.530   6.041  16.936  0.00  0.00    +0.000 A 
ATOM      5  C   UNL     1       3.962   7.120  17.626  0.00  0.00    +0.000 A 
ATOM      6  C   UNL     1       2.810   6.902  18.396  0.00  0.00    +0.000 A 
ATOM      7  C   UNL     1       2.264   5.604  18.486  0.00  0.00    +0.000 A 
ATOM      8  C   UNL     1       2.817   4.514  17.793  0.00  0.00    +0.000 A 
ATOM      9  C   UNL     1       3.945   4.792  17.035  0.00  0.00    +0.000 A 
ATOM     10  O   UNL     1       4.673   3.928  16.270  0.00  0.00    +0.000 OA
ENDROOT
BRANCH   6  11
ATOM     11  N   UNL     1       2.156   7.933  19.102  0.00  0.00    +0.000 N 
ATOM     12  C   UNL     1       1.640   9.115  18.581  0.00  0.00    +0.000 C 
ATOM     13  O   UNL     1       1.666   9.397  17.385  0.00  0.00    +0.000 OA
ATOM     14  H   UNL     1       1.962   7.772  20.085  0.00  0.00    +0.000 HD
BRANCH  12  15
ATOM     15  C   UNL     1       1.002  10.007  19.560  0.00  0.00    +0.000 A 
ATOM     16  S   UNL     1       0.016   9.384  20.823  0.00  0.00    +0.000 S 
ATOM     17  C   UNL     1      -0.319  10.936  21.436  0.00  0.00    +0.000 A 
ATOM     18  C   UNL     1       0.313  11.919  20.713  0.00  0.00    +0.000 A 
ATOM     19  C   UNL     1       1.087  11.398  19.624  0.00  0.00    +0.000 A 
ATOM     20  C   UNL     1       1.863  12.268  18.686  0.00  0.00    +0.000 C 
ENDBRANCH  12  15
ENDBRANCH   6  11
TORSDOF 2
ENDMDL
MODEL 5
REMARK VINA RESULT:      -6.3      4.363      8.268
REMARK  Name = 
REMARK  4 active torsions:
REMARK  status: ('A' for Active; 'I' for Inactive)
REMARK    1  A    between atoms: C_1  and  C_2
REMARK    2  A    between atoms: C_6  and  N_7
REMARK    3  A    between atoms: C_8  and  C_10
REMARK    4  A    between atoms: C_14  and  C_15
REMARK                            x       y       z     vdW  Elec       q    Type
REMARK                         _______ _______ _______ _____ _____    ______ ____
ROOT
ATOM      1  C   UNL     1      -1.490  11.538  22.937  0.00  0.00    +0.000 C 
ATOM      2  C   UNL     1      -0.695  10.813  21.928  0.00  0.00    +0.000 A 
ATOM      3  N   UNL     1       0.119   9.793  22.105  0.00  0.00    +0.000 NA
ATOM      4  C   UNL     1       0.573   9.519  20.840  0.00  0.00    +0.000 A 
ATOM      5  C   UNL     1       1.456   8.535  20.377  0.00  0.00    +0.000 A 
ATOM      6  C   UNL     1       1.749   8.476  19.007  0.00  0.00    +0.000 A 
ATOM      7  C   UNL     1       1.176   9.420  18.128  0.00  0.00    +0.000 A 
ATOM      8  C   UNL     1       0.282  10.407  18.575  0.00  0.00    +0.000 A 
ATOM      9  C   UNL     1       0.016  10.406  19.937  0.00  0.00    +0.000 A 
ATOM     10  O   UNL     1      -0.807  11.245  20.629  0.00  0.00    +0.000 OA
ENDROOT
BRANCH   6  11
ATOM     11  N   UNL     1       2.606   7.505  18.448  0.00  0.00    +0.000 N 
ATOM     12  C   UNL     1       2.904   6.248  18.965  0.00  0.00    +0.000 C 
ATOM     13  O   UNL     1       2.407   5.805  19.998  0.00  0.00    +0.000 OA
ATOM     14  H   UNL     1       2.990   7.698  17.530  0.00  0.00    +0.000 HD
BRANCH  12  15
ATOM     15  C   UNL     1       3.832   5.442  18.160  0.00  0.00    +0.000 A 
ATOM     16  S   UNL     1       5.479   5.901  17.972  0.00  0.00    +0.000 S 
ATOM     17  C   UNL     1       5.819   4.569  16.967  0.00  0.00    +0.000 A 
ATOM     18  C   UNL     1       4.714   3.773  16.782  0.00  0.00    +0.000 A 
ATOM     19  C   UNL     1       3.554   4.261  17.470  0.00  0.00    +0.000 A 
ATOM     20  C   UNL     1       2.226   3.573  17.419  0.00  0.00    +0.000 C 
ENDBRANCH  12  15
ENDBRANCH   6  11
TORSDOF 2
ENDMDL
MODEL 6
REMARK VINA RESULT:      -6.2      4.722      8.727
REMARK  Name = 
REMARK  4 active torsions:
REMARK  status: ('A' for Active; 'I' for Inactive)
REMARK    1  A    between atoms: C_1  and  C_2
REMARK    2  A    between atoms: C_6  and  N_7
REMARK    3  A    between atoms: C_8  and  C_10
REMARK    4  A    between atoms: C_14  and  C_15
REMARK                            x       y       z     vdW  Elec       q    Type
REMARK                         _______ _______ _______ _____ _____    ______ ____
ROOT
ATOM      1  C   UNL     1      -2.182  12.377  23.486  0.00  0.00    +0.000 C 
ATOM      2  C   UNL     1      -1.320  11.408  22.782  0.00  0.00    +0.000 A 
ATOM      3  N   UNL     1      -0.802  10.288  23.241  0.00  0.00    +0.000 NA
ATOM      4  C   UNL     1      -0.106   9.790  22.168  0.00  0.00    +0.000 A 
ATOM      5  C   UNL     1       0.648   8.618  22.030  0.00  0.00    +0.000 A 
ATOM      6  C   UNL     1       1.260   8.347  20.798  0.00  0.00    +0.000 A 
ATOM      7  C   UNL     1       1.133   9.266  19.736  0.00  0.00    +0.000 A 
ATOM      8  C   UNL     1       0.373  10.442  19.855  0.00  0.00    +0.000 A 
ATOM      9  C   UNL     1      -0.224  10.649  21.091  0.00  0.00    +0.000 A 
ATOM     10  O   UNL     1      -1.009  11.697  21.476  0.00  0.00    +0.000 OA
ENDROOT
BRANCH   6  11
ATOM     11  N   UNL     1       2.016   7.180  20.560  0.00  0.00    +0.000 N 
ATOM     12  C   UNL     1       2.366   6.641  19.325  0.00  0.00    +0.000 C 
ATOM     13  O   UNL     1       2.072   7.160  18.251  0.00  0.00    +0.000 OA
ATOM     14  H   UNL     1       2.424   6.718  21.365  0.00  0.00    +0.000 HD
BRANCH  12  15
ATOM     15  C   UNL     1       3.169   5.411  19.383  0.00  0.00    +0.000 A 
ATOM     16  S   UNL     1       4.830   5.410  18.937  0.00  0.00    +0.000 S 
ATOM     17  C   UNL     1       4.993   3.742  19.240  0.00  0.00    +0.000 A 
ATOM     18  C   UNL     1       3.818   3.187  19.686  0.00  0.00    +0.000 A 
ATOM     19  C   UNL     1       2.751   4.141  19.779  0.00  0.00    +0.000 A 
ATOM     20  C   UNL     1       1.372   3.779  20.234  0.00  0.00    +0.000 C 
ENDBRANCH  12  15
ENDBRANCH   6  11
TORSDOF 2
ENDMDL
MODEL 7
REMARK VINA RESULT:      -6.2      1.091      1.502
REMARK  Name = 
REMARK  4 active torsions:
REMARK  status: ('A' for Active; 'I' for Inactive)
REMARK    1  A    between atoms: C_1  and  C_2
REMARK    2  A    between atoms: C_6  and  N_7
REMARK    3  A    between atoms: C_8  and  C_10
REMARK    4  A    between atoms: C_14  and  C_15
REMARK                            x       y       z     vdW  Elec       q    Type
REMARK                         _______ _______ _______ _____ _____    ______ ____
ROOT
ATOM      1  C   UNL     1       7.753   5.139  11.969  0.00  0.00    +0.000 C 
ATOM      2  C   UNL     1       7.183   4.954  13.318  0.00  0.00    +0.000 A 
ATOM      3  N   UNL     1       6.106   4.282  13.667  0.00  0.00    +0.000 NA
ATOM      4  C   UNL     1       6.058   4.435  15.029  0.00  0.00    +0.000 A 
ATOM      5  C   UNL     1       5.148   3.942  15.974  0.00  0.00    +0.000 A 
ATOM      6  C   UNL     1       5.341   4.254  17.328  0.00  0.00    +0.000 A 
ATOM      7  C   UNL     1       6.421   5.077  17.709  0.00  0.00    +0.000 A 
ATOM      8  C   UNL     1       7.347   5.572  16.776  0.00  0.00    +0.000 A 
ATOM      9  C   UNL     1       7.116   5.217  15.454  0.00  0.00    +0.000 A 
ATOM     10  O   UNL     1       7.852   5.555  14.356  0.00  0.00    +0.000 OA
ENDROOT
BRANCH   6  11
ATOM     11  N   UNL     1       4.491   3.782  18.350  0.00  0.00    +0.000 N 
ATOM     12  C   UNL     1       3.506   4.497  19.024  0.00  0.00    +0.000 C 
ATOM     13  O   UNL     1       3.226   5.666  18.773  0.00  0.00    +0.000 OA
ATOM     14  H   UNL     1       4.537   2.793  18.573  0.00  0.00    +0.000 HD
BRANCH  12  15
ATOM     15  C   UNL     1       2.768   3.740  20.045  0.00  0.00    +0.000 A 
ATOM     16  S   UNL     1       1.147   4.141  20.454  0.00  0.00    +0.000 S 
ATOM     17  C   UNL     1       1.052   2.909  21.625  0.00  0.00    +0.000 A 
ATOM     18  C   UNL     1       2.219   2.187  21.704  0.00  0.00    +0.000 A 
ATOM     19  C   UNL     1       3.224   2.653  20.792  0.00  0.00    +0.000 A 
ATOM     20  C   UNL     1       4.583   2.035  20.692  0.00  0.00    +0.000 C 
ENDBRANCH  12  15
ENDBRANCH   6  11
TORSDOF 2
ENDMDL
MODEL 8
REMARK VINA RESULT:      -6.2      4.163      5.616
REMARK  Name = 
REMARK  4 active torsions:
REMARK  status: ('A' for Active; 'I' for Inactive)
REMARK    1  A    between atoms: C_1  and  C_2
REMARK    2  A    between atoms: C_6  and  N_7
REMARK    3  A    between atoms: C_8  and  C_10
REMARK    4  A    between atoms: C_14  and  C_15
REMARK                            x       y       z     vdW  Elec       q    Type
REMARK                         _______ _______ _______ _____ _____    ______ ____
ROOT
ATOM      1  C   UNL     1       6.142   3.766  15.091  0.00  0.00    +0.000 C 
ATOM      2  C   UNL     1       5.284   4.569  15.984  0.00  0.00    +0.000 A 
ATOM      3  N   UNL     1       5.328   5.864  16.216  0.00  0.00    +0.000 NA
ATOM      4  C   UNL     1       4.305   6.068  17.107  0.00  0.00    +0.000 A 
ATOM      5  C   UNL     1       3.844   7.241  17.718  0.00  0.00    +0.000 A 
ATOM      6  C   UNL     1       2.757   7.163  18.601  0.00  0.00    +0.000 A 
ATOM      7  C   UNL     1       2.171   5.911  18.880  0.00  0.00    +0.000 A 
ATOM      8  C   UNL     1       2.615   4.727  18.268  0.00  0.00    +0.000 A 
ATOM      9  C   UNL     1       3.681   4.867  17.392  0.00  0.00    +0.000 A 
ATOM     10  O   UNL     1       4.304   3.892  16.668  0.00  0.00    +0.000 OA
ENDROOT
BRANCH   6  11
ATOM     11  N   UNL     1       2.210   8.294  19.243  0.00  0.00    +0.000 N 
ATOM     12  C   UNL     1       1.245   9.162  18.740  0.00  0.00    +0.000 C 
ATOM     13  O   UNL     1       0.709   9.018  17.644  0.00  0.00    +0.000 OA
ATOM     14  H   UNL     1       2.480   8.459  20.206  0.00  0.00    +0.000 HD
BRANCH  12  15
ATOM     15  C   UNL     1       0.858  10.259  19.639  0.00  0.00    +0.000 A 
ATOM     16  S   UNL     1       1.246  11.893  19.269  0.00  0.00    +0.000 S 
ATOM     17  C   UNL     1       0.528  12.472  20.700  0.00  0.00    +0.000 A 
ATOM     18  C   UNL     1      -0.014  11.454  21.448  0.00  0.00    +0.000 A 
ATOM     19  C   UNL     1       0.164  10.164  20.846  0.00  0.00    +0.000 A 
ATOM     20  C   UNL     1      -0.332   8.898  21.470  0.00  0.00    +0.000 C 
ENDBRANCH  12  15
ENDBRANCH   6  11
TORSDOF 2
ENDMDL
MODEL 9
REMARK VINA RESULT:      -6.2      3.694      4.767
REMARK  Name = 
REMARK  4 active torsions:
REMARK  status: ('A' for Active; 'I' for Inactive)
REMARK    1  A    between atoms: C_1  and  C_2
REMARK    2  A    between atoms: C_6  and  N_7
REMARK    3  A    between atoms: C_8  and  C_10
REMARK    4  A    between atoms: C_14  and  C_15
REMARK                            x       y       z     vdW  Elec       q    Type
REMARK                         _______ _______ _______ _____ _____    ______ ____
ROOT
ATOM      1  C   UNL     1       7.029   4.551  13.957  0.00  0.00    +0.000 C 
ATOM      2  C   UNL     1       6.103   5.059  14.988  0.00  0.00    +0.000 A 
ATOM      3  N   UNL     1       5.897   6.305  15.362  0.00  0.00    +0.000 NA
ATOM      4  C   UNL     1       4.935   6.195  16.334  0.00  0.00    +0.000 A 
ATOM      5  C   UNL     1       4.295   7.176  17.103  0.00  0.00    +0.000 A 
ATOM      6  C   UNL     1       3.330   6.779  18.040  0.00  0.00    +0.000 A 
ATOM      7  C   UNL     1       3.043   5.409  18.212  0.00  0.00    +0.000 A 
ATOM      8  C   UNL     1       3.670   4.414  17.443  0.00  0.00    +0.000 A 
ATOM      9  C   UNL     1       4.603   4.866  16.521  0.00  0.00    +0.000 A 
ATOM     10  O   UNL     1       5.349   4.123  15.653  0.00  0.00    +0.000 OA
ENDROOT
BRANCH   6  11
ATOM     11  N   UNL     1       2.616   7.698  18.839  0.00  0.00    +0.000 N 
ATOM     12  C   UNL     1       1.859   8.781  18.404  0.00  0.00    +0.000 C 
ATOM     13  O   UNL     1       1.689   9.057  17.219  0.00  0.00    +0.000 OA
ATOM     14  H   UNL     1       2.576   7.513  19.835  0.00  0.00    +0.000 HD
BRANCH  12  15
ATOM     15  C   UNL     1       1.219   9.567  19.468  0.00  0.00    +0.000 A 
ATOM     16  S   UNL     1       0.862  11.235  19.253  0.00  0.00    +0.000 S 
ATOM     17  C   UNL     1       0.214  11.382  20.820  0.00  0.00    +0.000 A 
ATOM     18  C   UNL     1       0.247  10.188  21.501  0.00  0.00    +0.000 A 
ATOM     19  C   UNL     1       0.823   9.124  20.731  0.00  0.00    +0.000 A 
ATOM     20  C   UNL     1       0.977   7.730  21.254  0.00  0.00    +0.000 C 
ENDBRANCH  12  15
ENDBRANCH   6  11
TORSDOF 2
ENDMDL
