MODEL 1
REMARK VINA RESULT:      -9.5      0.000      0.000
REMARK  Name = 
REMARK  6 active torsions:
REMARK  status: ('A' for Active; 'I' for Inactive)
REMARK    1  A    between atoms: C_2  and  O_3
REMARK    2  A    between atoms: C_2  and  C_16
REMARK    3  A    between atoms: O_3  and  C_4
REMARK    4  A    between atoms: C_4  and  C_5
REMARK    5  A    between atoms: C_20  and  S_21
REMARK    6  A    between atoms: S_21  and  N_24
REMARK                            x       y       z     vdW  Elec       q    Type
REMARK                         _______ _______ _______ _____ _____    ______ ____
ROOT
ATOM      1  C   UNL     1       2.091   5.493  20.389  0.00  0.00    +0.000 A 
ATOM      2  C   UNL     1       2.631   5.734  19.119  0.00  0.00    +0.000 A 
ATOM      3  C   UNL     1       2.572   7.014  18.557  0.00  0.00    +0.000 A 
ATOM      4  C   UNL     1       2.003   8.095  19.259  0.00  0.00    +0.000 A 
ATOM      5  C   UNL     1       1.418   7.894  20.507  0.00  0.00    +0.000 A 
ATOM      6  C   UNL     1       1.451   6.567  21.063  0.00  0.00    +0.000 A 
ENDROOT
BRANCH   5   7
ATOM      7  S   UNL     1       0.666   9.274  21.511  0.00  0.00    +0.000 S 
ATOM      8  O   UNL     1      -0.585   8.674  21.963  0.00  0.00    +0.000 OA
ATOM      9  O   UNL     1       1.686   9.622  22.473  0.00  0.00    +0.000 OA
BRANCH   7  10
ATOM     10  N   UNL     1       0.212  10.678  20.613  0.00  0.00    +0.000 N 
ATOM     11  C   UNL     1       0.732  11.976  21.098  0.00  0.00    +0.000 C 
ATOM     12  C   UNL     1      -0.445  12.735  21.686  0.00  0.00    +0.000 C 
ATOM     13  C   UNL     1      -1.411  13.067  20.575  0.00  0.00    +0.000 C 
ATOM     14  C   UNL     1      -1.848  11.812  19.847  0.00  0.00    +0.000 A 
ATOM     15  C   UNL     1      -2.997  11.951  19.046  0.00  0.00    +0.000 A 
ATOM     16  C   UNL     1      -3.043  11.318  17.820  0.00  0.00    +0.000 A 
ATOM     17  C   UNL     1      -1.939  10.562  17.428  0.00  0.00    +0.000 A 
ATOM     18  C   UNL     1      -0.889  10.262  18.343  0.00  0.00    +0.000 A 
ATOM     19  C   UNL     1      -0.890  10.795  19.640  0.00  0.00    +0.000 A 
ENDBRANCH   7  10
ENDBRANCH   5   7
BRANCH   1  21
ATOM     20  O   UNL     1       2.301   3.759  22.063  0.00  0.00    +0.000 OA
ATOM     21  C   UNL     1       2.258   4.079  20.877  0.00  0.00    +0.000 C 
BRANCH  21  22
ATOM     22  O   UNL     1       2.256   3.185  19.843  0.00  0.00    +0.000 OA
BRANCH  22  23
ATOM     23  C   UNL     1       3.561   2.698  19.422  0.00  0.00    +0.000 C 
BRANCH  23  24
ATOM     24  C   UNL     1       3.751   2.783  17.903  0.00  0.00    +0.000 C 
ATOM     25  O   UNL     1       3.034   2.096  17.158  0.00  0.00    +0.000 OA
ATOM     26  N   UNL     1       4.711   3.609  17.356  0.00  0.00    +0.000 N 
ATOM     27  C   UNL     1       4.748   3.724  15.879  0.00  0.00    +0.000 C 
ATOM     28  C   UNL     1       5.910   4.636  15.495  0.00  0.00    +0.000 C 
ATOM     29  C   UNL     1       6.347   5.137  16.836  0.00  0.00    +0.000 A 
ATOM     30  C   UNL     1       7.336   6.082  17.065  0.00  0.00    +0.000 A 
ATOM     31  C   UNL     1       7.664   6.389  18.383  0.00  0.00    +0.000 A 
ATOM     32  C   UNL     1       7.014   5.732  19.436  0.00  0.00    +0.000 A 
ATOM     33  C   UNL     1       6.016   4.778  19.195  0.00  0.00    +0.000 A 
ATOM     34  C   UNL     1       5.675   4.493  17.885  0.00  0.00    +0.000 A 
ENDBRANCH  23  24
ENDBRANCH  22  23
ENDBRANCH  21  22
ENDBRANCH   1  21
TORSDOF 6
ENDMDL
MODEL 2
REMARK VINA RESULT:      -9.2      1.808      9.365
REMARK  Name = 
REMARK  6 active torsions:
REMARK  status: ('A' for Active; 'I' for Inactive)
REMARK    1  A    between atoms: C_2  and  O_3
REMARK    2  A    between atoms: C_2  and  C_16
REMARK    3  A    between atoms: O_3  and  C_4
REMARK    4  A    between atoms: C_4  and  C_5
REMARK    5  A    between atoms: C_20  and  S_21
REMARK    6  A    between atoms: S_21  and  N_24
REMARK                            x       y       z     vdW  Elec       q    Type
REMARK                         _______ _______ _______ _____ _____    ______ ____
ROOT
ATOM      1  C   UNL     1       1.475   8.764  20.005  0.00  0.00    +0.000 A 
ATOM      2  C   UNL     1       1.596   9.442  18.785  0.00  0.00    +0.000 A 
ATOM      3  C   UNL     1       2.130   8.794  17.666  0.00  0.00    +0.000 A 
ATOM      4  C   UNL     1       2.527   7.443  17.725  0.00  0.00    +0.000 A 
ATOM      5  C   UNL     1       2.463   6.742  18.926  0.00  0.00    +0.000 A 
ATOM      6  C   UNL     1       1.946   7.427  20.082  0.00  0.00    +0.000 A 
ENDROOT
BRANCH   5   7
ATOM      7  S   UNL     1       2.947   4.948  19.084  0.00  0.00    +0.000 S 
ATOM      8  O   UNL     1       2.992   4.770  20.531  0.00  0.00    +0.000 OA
ATOM      9  O   UNL     1       1.964   4.235  18.301  0.00  0.00    +0.000 OA
BRANCH   7  10
ATOM     10  N   UNL     1       4.532   4.558  18.517  0.00  0.00    +0.000 N 
ATOM     11  C   UNL     1       5.579   4.370  19.545  0.00  0.00    +0.000 C 
ATOM     12  C   UNL     1       6.515   5.563  19.451  0.00  0.00    +0.000 C 
ATOM     13  C   UNL     1       7.228   5.516  18.122  0.00  0.00    +0.000 C 
ATOM     14  C   UNL     1       6.236   5.478  16.978  0.00  0.00    +0.000 A 
ATOM     15  C   UNL     1       6.766   5.789  15.712  0.00  0.00    +0.000 A 
ATOM     16  C   UNL     1       6.344   5.073  14.610  0.00  0.00    +0.000 A 
ATOM     17  C   UNL     1       5.402   4.063  14.804  0.00  0.00    +0.000 A 
ATOM     18  C   UNL     1       4.726   3.915  16.050  0.00  0.00    +0.000 A 
ATOM     19  C   UNL     1       5.054   4.724  17.148  0.00  0.00    +0.000 A 
ENDBRANCH   7  10
ENDBRANCH   5   7
BRANCH   1  21
ATOM     20  O   UNL     1       1.400   9.813  22.185  0.00  0.00    +0.000 OA
ATOM     21  C   UNL     1       0.853   9.577  21.109  0.00  0.00    +0.000 C 
BRANCH  21  22
ATOM     22  O   UNL     1      -0.350  10.104  20.731  0.00  0.00    +0.000 OA
BRANCH  22  23
ATOM     23  C   UNL     1      -0.392  11.551  20.580  0.00  0.00    +0.000 C 
BRANCH  23  24
ATOM     24  C   UNL     1      -1.801  12.118  20.789  0.00  0.00    +0.000 C 
ATOM     25  O   UNL     1      -2.071  12.706  21.849  0.00  0.00    +0.000 OA
ATOM     26  N   UNL     1      -2.771  11.978  19.818  0.00  0.00    +0.000 N 
ATOM     27  C   UNL     1      -4.066  12.658  20.049  0.00  0.00    +0.000 C 
ATOM     28  C   UNL     1      -4.999  12.326  18.887  0.00  0.00    +0.000 C 
ATOM     29  C   UNL     1      -4.070  11.608  17.959  0.00  0.00    +0.000 A 
ATOM     30  C   UNL     1      -4.386  11.151  16.689  0.00  0.00    +0.000 A 
ATOM     31  C   UNL     1      -3.418  10.443  15.981  0.00  0.00    +0.000 A 
ATOM     32  C   UNL     1      -2.170  10.191  16.565  0.00  0.00    +0.000 A 
ATOM     33  C   UNL     1      -1.859  10.655  17.851  0.00  0.00    +0.000 A 
ATOM     34  C   UNL     1      -2.814  11.380  18.541  0.00  0.00    +0.000 A 
ENDBRANCH  23  24
ENDBRANCH  22  23
ENDBRANCH  21  22
ENDBRANCH   1  21
TORSDOF 6
ENDMDL
MODEL 3
REMARK VINA RESULT:      -9.1      1.302      2.283
REMARK  Name = 
REMARK  6 active torsions:
REMARK  status: ('A' for Active; 'I' for Inactive)
REMARK    1  A    between atoms: C_2  and  O_3
REMARK    2  A    between atoms: C_2  and  C_16
REMARK    3  A    between atoms: O_3  and  C_4
REMARK    4  A    between atoms: C_4  and  C_5
REMARK    5  A    between atoms: C_20  and  S_21
REMARK    6  A    between atoms: S_21  and  N_24
REMARK                            x       y       z     vdW  Elec       q    Type
REMARK                         _______ _______ _______ _____ _____    ______ ____
ROOT
ATOM      1  C   UNL     1       1.995   5.975  20.114  0.00  0.00    +0.000 A 
ATOM      2  C   UNL     1       2.444   6.305  18.829  0.00  0.00    +0.000 A 
ATOM      3  C   UNL     1       2.335   7.618  18.358  0.00  0.00    +0.000 A 
ATOM      4  C   UNL     1       1.805   8.642  19.166  0.00  0.00    +0.000 A 
ATOM      5  C   UNL     1       1.309   8.353  20.435  0.00  0.00    +0.000 A 
ATOM      6  C   UNL     1       1.392   6.993  20.899  0.00  0.00    +0.000 A 
ENDROOT
BRANCH   5   7
ATOM      7  S   UNL     1       0.614   9.654  21.576  0.00  0.00    +0.000 S 
ATOM      8  O   UNL     1      -0.678   9.081  21.939  0.00  0.00    +0.000 OA
ATOM      9  O   UNL     1       1.631   9.833  22.587  0.00  0.00    +0.000 OA
BRANCH   7  10
ATOM     10  N   UNL     1       0.259  11.173  20.834  0.00  0.00    +0.000 N 
ATOM     11  C   UNL     1      -1.154  11.425  20.475  0.00  0.00    +0.000 C 
ATOM     12  C   UNL     1      -1.244  11.369  18.959  0.00  0.00    +0.000 C 
ATOM     13  C   UNL     1      -0.460  12.524  18.385  0.00  0.00    +0.000 C 
ATOM     14  C   UNL     1       0.974  12.498  18.872  0.00  0.00    +0.000 A 
ATOM     15  C   UNL     1       1.872  13.295  18.139  0.00  0.00    +0.000 A 
ATOM     16  C   UNL     1       2.846  14.005  18.811  0.00  0.00    +0.000 A 
ATOM     17  C   UNL     1       2.896  13.899  20.201  0.00  0.00    +0.000 A 
ATOM     18  C   UNL     1       2.121  12.924  20.894  0.00  0.00    +0.000 A 
ATOM     19  C   UNL     1       1.216  12.103  20.206  0.00  0.00    +0.000 A 
ENDBRANCH   7  10
ENDBRANCH   5   7
BRANCH   1  21
ATOM     20  O   UNL     1       2.446   4.151  21.639  0.00  0.00    +0.000 OA
ATOM     21  C   UNL     1       2.208   4.534  20.495  0.00  0.00    +0.000 C 
BRANCH  21  22
ATOM     22  O   UNL     1       2.008   3.696  19.435  0.00  0.00    +0.000 OA
BRANCH  22  23
ATOM     23  C   UNL     1       3.186   2.995  18.947  0.00  0.00    +0.000 C 
BRANCH  23  24
ATOM     24  C   UNL     1       3.446   3.260  17.459  0.00  0.00    +0.000 C 
ATOM     25  O   UNL     1       2.692   2.760  16.609  0.00  0.00    +0.000 OA
ATOM     26  N   UNL     1       4.508   4.043  17.055  0.00  0.00    +0.000 N 
ATOM     27  C   UNL     1       4.617   4.347  15.610  0.00  0.00    +0.000 C 
ATOM     28  C   UNL     1       5.882   5.171  15.384  0.00  0.00    +0.000 C 
ATOM     29  C   UNL     1       6.314   5.438  16.792  0.00  0.00    +0.000 A 
ATOM     30  C   UNL     1       7.386   6.231  17.174  0.00  0.00    +0.000 A 
ATOM     31  C   UNL     1       7.690   6.323  18.529  0.00  0.00    +0.000 A 
ATOM     32  C   UNL     1       6.932   5.608  19.466  0.00  0.00    +0.000 A 
ATOM     33  C   UNL     1       5.851   4.808  19.071  0.00  0.00    +0.000 A 
ATOM     34  C   UNL     1       5.536   4.738  17.725  0.00  0.00    +0.000 A 
ENDBRANCH  23  24
ENDBRANCH  22  23
ENDBRANCH  21  22
ENDBRANCH   1  21
TORSDOF 6
ENDMDL
MODEL 4
REMARK VINA RESULT:      -9.1      1.228      2.303
REMARK  Name = 
REMARK  6 active torsions:
REMARK  status: ('A' for Active; 'I' for Inactive)
REMARK    1  A    between atoms: C_2  and  O_3
REMARK    2  A    between atoms: C_2  and  C_16
REMARK    3  A    between atoms: O_3  and  C_4
REMARK    4  A    between atoms: C_4  and  C_5
REMARK    5  A    between atoms: C_20  and  S_21
REMARK    6  A    between atoms: S_21  and  N_24
REMARK                            x       y       z     vdW  Elec       q    Type
REMARK                         _______ _______ _______ _____ _____    ______ ____
ROOT
ATOM      1  C   UNL     1       1.908   5.786  20.056  0.00  0.00    +0.000 A 
ATOM      2  C   UNL     1       2.483   6.289  18.882  0.00  0.00    +0.000 A 
ATOM      3  C   UNL     1       2.444   7.660  18.607  0.00  0.00    +0.000 A 
ATOM      4  C   UNL     1       1.859   8.570  19.509  0.00  0.00    +0.000 A 
ATOM      5  C   UNL     1       1.239   8.111  20.669  0.00  0.00    +0.000 A 
ATOM      6  C   UNL     1       1.252   6.695  20.928  0.00  0.00    +0.000 A 
ENDROOT
BRANCH   5   7
ATOM      7  S   UNL     1       0.463   9.250  21.926  0.00  0.00    +0.000 S 
ATOM      8  O   UNL     1      -0.656   8.450  22.411  0.00  0.00    +0.000 OA
ATOM      9  O   UNL     1       1.543   9.596  22.821  0.00  0.00    +0.000 OA
BRANCH   7  10
ATOM     10  N   UNL     1      -0.239  10.691  21.281  0.00  0.00    +0.000 N 
ATOM     11  C   UNL     1      -0.323  10.789  19.807  0.00  0.00    +0.000 C 
ATOM     12  C   UNL     1       0.692  11.833  19.372  0.00  0.00    +0.000 C 
ATOM     13  C   UNL     1       0.258  13.179  19.901  0.00  0.00    +0.000 C 
ATOM     14  C   UNL     1       0.090  13.139  21.405  0.00  0.00    +0.000 A 
ATOM     15  C   UNL     1       0.041  14.395  22.038  0.00  0.00    +0.000 A 
ATOM     16  C   UNL     1      -0.845  14.591  23.078  0.00  0.00    +0.000 A 
ATOM     17  C   UNL     1      -1.659  13.524  23.458  0.00  0.00    +0.000 A 
ATOM     18  C   UNL     1      -1.438  12.211  22.951  0.00  0.00    +0.000 A 
ATOM     19  C   UNL     1      -0.452  11.970  21.983  0.00  0.00    +0.000 A 
ENDBRANCH   7  10
ENDBRANCH   5   7
BRANCH   1  21
ATOM     20  O   UNL     1       1.133   3.494  20.124  0.00  0.00    +0.000 OA
ATOM     21  C   UNL     1       2.057   4.298  20.233  0.00  0.00    +0.000 C 
BRANCH  21  22
ATOM     22  O   UNL     1       3.361   3.942  20.432  0.00  0.00    +0.000 OA
BRANCH  22  23
ATOM     23  C   UNL     1       3.827   2.789  19.675  0.00  0.00    +0.000 C 
BRANCH  23  24
ATOM     24  C   UNL     1       3.764   3.022  18.161  0.00  0.00    +0.000 C 
ATOM     25  O   UNL     1       2.925   2.407  17.484  0.00  0.00    +0.000 OA
ATOM     26  N   UNL     1       4.631   3.901  17.545  0.00  0.00    +0.000 N 
ATOM     27  C   UNL     1       4.424   4.158  16.101  0.00  0.00    +0.000 C 
ATOM     28  C   UNL     1       5.517   5.108  15.618  0.00  0.00    +0.000 C 
ATOM     29  C   UNL     1       6.177   5.477  16.910  0.00  0.00    +0.000 A 
ATOM     30  C   UNL     1       7.201   6.399  17.062  0.00  0.00    +0.000 A 
ATOM     31  C   UNL     1       7.747   6.578  18.331  0.00  0.00    +0.000 A 
ATOM     32  C   UNL     1       7.272   5.820  19.409  0.00  0.00    +0.000 A 
ATOM     33  C   UNL     1       6.236   4.890  19.246  0.00  0.00    +0.000 A 
ATOM     34  C   UNL     1       5.679   4.733  17.989  0.00  0.00    +0.000 A 
ENDBRANCH  23  24
ENDBRANCH  22  23
ENDBRANCH  21  22
ENDBRANCH   1  21
TORSDOF 6
ENDMDL
MODEL 5
REMARK VINA RESULT:      -9.0      2.012      9.456
REMARK  Name = 
REMARK  6 active torsions:
REMARK  status: ('A' for Active; 'I' for Inactive)
REMARK    1  A    between atoms: C_2  and  O_3
REMARK    2  A    between atoms: C_2  and  C_16
REMARK    3  A    between atoms: O_3  and  C_4
REMARK    4  A    between atoms: C_4  and  C_5
REMARK    5  A    between atoms: C_20  and  S_21
REMARK    6  A    between atoms: S_21  and  N_24
REMARK                            x       y       z     vdW  Elec       q    Type
REMARK                         _______ _______ _______ _____ _____    ______ ____
ROOT
ATOM      1  C   UNL     1       1.900   7.797  19.101  0.00  0.00    +0.000 A 
ATOM      2  C   UNL     1       1.464   7.703  20.429  0.00  0.00    +0.000 A 
ATOM      3  C   UNL     1       1.482   6.472  21.093  0.00  0.00    +0.000 A 
ATOM      4  C   UNL     1       1.964   5.308  20.463  0.00  0.00    +0.000 A 
ATOM      5  C   UNL     1       2.370   5.345  19.131  0.00  0.00    +0.000 A 
ATOM      6  C   UNL     1       2.315   6.609  18.443  0.00  0.00    +0.000 A 
ENDROOT
BRANCH   5   7
ATOM      7  S   UNL     1       3.042   3.857  18.230  0.00  0.00    +0.000 S 
ATOM      8  O   UNL     1       2.849   2.795  19.212  0.00  0.00    +0.000 OA
ATOM      9  O   UNL     1       2.313   3.826  16.983  0.00  0.00    +0.000 OA
BRANCH   7  10
ATOM     10  N   UNL     1       4.739   3.893  17.909  0.00  0.00    +0.000 N 
ATOM     11  C   UNL     1       5.638   3.930  19.084  0.00  0.00    +0.000 C 
ATOM     12  C   UNL     1       6.250   5.320  19.133  0.00  0.00    +0.000 C 
ATOM     13  C   UNL     1       7.139   5.501  17.927  0.00  0.00    +0.000 C 
ATOM     14  C   UNL     1       6.366   5.263  16.647  0.00  0.00    +0.000 A 
ATOM     15  C   UNL     1       6.981   5.744  15.475  0.00  0.00    +0.000 A 
ATOM     16  C   UNL     1       6.917   4.988  14.322  0.00  0.00    +0.000 A 
ATOM     17  C   UNL     1       6.239   3.770  14.371  0.00  0.00    +0.000 A 
ATOM     18  C   UNL     1       5.446   3.412  15.500  0.00  0.00    +0.000 A 
ATOM     19  C   UNL     1       5.398   4.234  16.635  0.00  0.00    +0.000 A 
ENDBRANCH   7  10
ENDBRANCH   5   7
BRANCH   1  21
ATOM     20  O   UNL     1       2.175   9.472  17.377  0.00  0.00    +0.000 OA
ATOM     21  C   UNL     1       1.856   9.189  18.530  0.00  0.00    +0.000 C 
BRANCH  21  22
ATOM     22  O   UNL     1       1.326  10.082  19.417  0.00  0.00    +0.000 OA
BRANCH  22  23
ATOM     23  C   UNL     1       1.193  11.450  18.939  0.00  0.00    +0.000 C 
BRANCH  23  24
ATOM     24  C   UNL     1       0.233  12.278  19.802  0.00  0.00    +0.000 C 
ATOM     25  O   UNL     1       0.692  13.024  20.681  0.00  0.00    +0.000 OA
ATOM     26  N   UNL     1      -1.132  12.198  19.616  0.00  0.00    +0.000 N 
ATOM     27  C   UNL     1      -1.980  13.118  20.408  0.00  0.00    +0.000 C 
ATOM     28  C   UNL     1      -3.443  12.823  20.088  0.00  0.00    +0.000 C 
ATOM     29  C   UNL     1      -3.306  11.848  18.960  0.00  0.00    +0.000 A 
ATOM     30  C   UNL     1      -4.349  11.308  18.224  0.00  0.00    +0.000 A 
ATOM     31  C   UNL     1      -4.050  10.362  17.247  0.00  0.00    +0.000 A 
ATOM     32  C   UNL     1      -2.722   9.964  17.044  0.00  0.00    +0.000 A 
ATOM     33  C   UNL     1      -1.673  10.514  17.794  0.00  0.00    +0.000 A 
ATOM     34  C   UNL     1      -1.972  11.472  18.746  0.00  0.00    +0.000 A 
ENDBRANCH  23  24
ENDBRANCH  22  23
ENDBRANCH  21  22
ENDBRANCH   1  21
TORSDOF 6
ENDMDL
MODEL 6
REMARK VINA RESULT:      -9.0      2.327      3.674
REMARK  Name = 
REMARK  6 active torsions:
REMARK  status: ('A' for Active; 'I' for Inactive)
REMARK    1  A    between atoms: C_2  and  O_3
REMARK    2  A    between atoms: C_2  and  C_16
REMARK    3  A    between atoms: O_3  and  C_4
REMARK    4  A    between atoms: C_4  and  C_5
REMARK    5  A    between atoms: C_20  and  S_21
REMARK    6  A    between atoms: S_21  and  N_24
REMARK                            x       y       z     vdW  Elec       q    Type
REMARK                         _______ _______ _______ _____ _____    ______ ____
ROOT
ATOM      1  C   UNL     1       1.101   8.591  20.562  0.00  0.00    +0.000 A 
ATOM      2  C   UNL     1       1.057   8.661  21.961  0.00  0.00    +0.000 A 
ATOM      3  C   UNL     1       0.312   9.661  22.595  0.00  0.00    +0.000 A 
ATOM      4  C   UNL     1      -0.435  10.597  21.854  0.00  0.00    +0.000 A 
ATOM      5  C   UNL     1      -0.390  10.591  20.462  0.00  0.00    +0.000 A 
ATOM      6  C   UNL     1       0.408   9.581  19.817  0.00  0.00    +0.000 A 
ENDROOT
BRANCH   5   7
ATOM      7  S   UNL     1      -1.367  11.779  19.407  0.00  0.00    +0.000 S 
ATOM      8  O   UNL     1      -1.953  12.663  20.409  0.00  0.00    +0.000 OA
ATOM      9  O   UNL     1      -0.407  12.299  18.461  0.00  0.00    +0.000 OA
BRANCH   7  10
ATOM     10  N   UNL     1      -2.702  11.086  18.558  0.00  0.00    +0.000 N 
ATOM     11  C   UNL     1      -2.388  10.018  17.582  0.00  0.00    +0.000 C 
ATOM     12  C   UNL     1      -2.613  10.601  16.198  0.00  0.00    +0.000 C 
ATOM     13  C   UNL     1      -4.083  10.896  16.029  0.00  0.00    +0.000 C 
ATOM     14  C   UNL     1      -4.578  11.819  17.123  0.00  0.00    +0.000 A 
ATOM     15  C   UNL     1      -5.816  12.439  16.872  0.00  0.00    +0.000 A 
ATOM     16  C   UNL     1      -6.721  12.578  17.906  0.00  0.00    +0.000 A 
ATOM     17  C   UNL     1      -6.363  12.093  19.163  0.00  0.00    +0.000 A 
ATOM     18  C   UNL     1      -5.030  11.670  19.438  0.00  0.00    +0.000 A 
ATOM     19  C   UNL     1      -4.060  11.644  18.425  0.00  0.00    +0.000 A 
ENDBRANCH   7  10
ENDBRANCH   5   7
BRANCH   1  21
ATOM     20  O   UNL     1       2.792   7.562  19.171  0.00  0.00    +0.000 OA
ATOM     21  C   UNL     1       1.913   7.444  20.023  0.00  0.00    +0.000 C 
BRANCH  21  22
ATOM     22  O   UNL     1       1.624   6.274  20.666  0.00  0.00    +0.000 OA
BRANCH  22  23
ATOM     23  C   UNL     1       2.598   5.204  20.507  0.00  0.00    +0.000 C 
BRANCH  23  24
ATOM     24  C   UNL     1       2.459   4.486  19.159  0.00  0.00    +0.000 C 
ATOM     25  O   UNL     1       1.355   4.032  18.820  0.00  0.00    +0.000 OA
ATOM     26  N   UNL     1       3.547   4.336  18.323  0.00  0.00    +0.000 N 
ATOM     27  C   UNL     1       3.301   3.739  16.990  0.00  0.00    +0.000 C 
ATOM     28  C   UNL     1       4.637   3.617  16.262  0.00  0.00    +0.000 C 
ATOM     29  C   UNL     1       5.549   4.350  17.196  0.00  0.00    +0.000 A 
ATOM     30  C   UNL     1       6.891   4.617  16.975  0.00  0.00    +0.000 A 
ATOM     31  C   UNL     1       7.613   5.256  17.980  0.00  0.00    +0.000 A 
ATOM     32  C   UNL     1       6.983   5.594  19.185  0.00  0.00    +0.000 A 
ATOM     33  C   UNL     1       5.625   5.319  19.401  0.00  0.00    +0.000 A 
ATOM     34  C   UNL     1       4.906   4.706  18.391  0.00  0.00    +0.000 A 
ENDBRANCH  23  24
ENDBRANCH  22  23
ENDBRANCH  21  22
ENDBRANCH   1  21
TORSDOF 6
ENDMDL
MODEL 7
REMARK VINA RESULT:      -8.9      2.661      4.620
REMARK  Name = 
REMARK  6 active torsions:
REMARK  status: ('A' for Active; 'I' for Inactive)
REMARK    1  A    between atoms: C_2  and  O_3
REMARK    2  A    between atoms: C_2  and  C_16
REMARK    3  A    between atoms: O_3  and  C_4
REMARK    4  A    between atoms: C_4  and  C_5
REMARK    5  A    between atoms: C_20  and  S_21
REMARK    6  A    between atoms: S_21  and  N_24
REMARK                            x       y       z     vdW  Elec       q    Type
REMARK                         _______ _______ _______ _____ _____    ______ ____
ROOT
ATOM      1  C   UNL     1       0.645   8.825  21.134  0.00  0.00    +0.000 A 
ATOM      2  C   UNL     1       0.453   8.993  22.511  0.00  0.00    +0.000 A 
ATOM      3  C   UNL     1      -0.342  10.039  22.991  0.00  0.00    +0.000 A 
ATOM      4  C   UNL     1      -0.992  10.926  22.110  0.00  0.00    +0.000 A 
ATOM      5  C   UNL     1      -0.797  10.822  20.735  0.00  0.00    +0.000 A 
ATOM      6  C   UNL     1       0.051   9.765  20.251  0.00  0.00    +0.000 A 
ENDROOT
BRANCH   5   7
ATOM      7  S   UNL     1      -1.637  11.940  19.501  0.00  0.00    +0.000 S 
ATOM      8  O   UNL     1      -2.300  12.908  20.369  0.00  0.00    +0.000 OA
ATOM      9  O   UNL     1      -0.577  12.372  18.620  0.00  0.00    +0.000 OA
BRANCH   7  10
ATOM     10  N   UNL     1      -2.896  11.204  18.576  0.00  0.00    +0.000 N 
ATOM     11  C   UNL     1      -2.485  10.193  17.577  0.00  0.00    +0.000 C 
ATOM     12  C   UNL     1      -2.691  10.812  16.205  0.00  0.00    +0.000 C 
ATOM     13  C   UNL     1      -4.168  11.029  15.989  0.00  0.00    +0.000 C 
ATOM     14  C   UNL     1      -4.757  11.882  17.094  0.00  0.00    +0.000 A 
ATOM     15  C   UNL     1      -6.019  12.438  16.816  0.00  0.00    +0.000 A 
ATOM     16  C   UNL     1      -6.969  12.488  17.817  0.00  0.00    +0.000 A 
ATOM     17  C   UNL     1      -6.630  11.978  19.070  0.00  0.00    +0.000 A 
ATOM     18  C   UNL     1      -5.286  11.622  19.382  0.00  0.00    +0.000 A 
ATOM     19  C   UNL     1      -4.279  11.688  18.409  0.00  0.00    +0.000 A 
ENDBRANCH   7  10
ENDBRANCH   5   7
BRANCH   1  21
ATOM     20  O   UNL     1       1.316   6.501  21.199  0.00  0.00    +0.000 OA
ATOM     21  C   UNL     1       1.495   7.637  20.766  0.00  0.00    +0.000 C 
BRANCH  21  22
ATOM     22  O   UNL     1       2.425   7.956  19.817  0.00  0.00    +0.000 OA
BRANCH  22  23
ATOM     23  C   UNL     1       2.147   7.482  18.470  0.00  0.00    +0.000 C 
BRANCH  23  24
ATOM     24  C   UNL     1       3.397   6.921  17.781  0.00  0.00    +0.000 C 
ATOM     25  O   UNL     1       4.251   7.704  17.335  0.00  0.00    +0.000 OA
ATOM     26  N   UNL     1       3.580   5.560  17.648  0.00  0.00    +0.000 N 
ATOM     27  C   UNL     1       4.869   5.100  17.079  0.00  0.00    +0.000 C 
ATOM     28  C   UNL     1       4.834   3.578  16.972  0.00  0.00    +0.000 C 
ATOM     29  C   UNL     1       3.555   3.263  17.684  0.00  0.00    +0.000 A 
ATOM     30  C   UNL     1       3.071   1.992  17.955  0.00  0.00    +0.000 A 
ATOM     31  C   UNL     1       1.828   1.876  18.573  0.00  0.00    +0.000 A 
ATOM     32  C   UNL     1       1.093   3.027  18.885  0.00  0.00    +0.000 A 
ATOM     33  C   UNL     1       1.590   4.308  18.607  0.00  0.00    +0.000 A 
ATOM     34  C   UNL     1       2.836   4.420  18.016  0.00  0.00    +0.000 A 
ENDBRANCH  23  24
ENDBRANCH  22  23
ENDBRANCH  21  22
ENDBRANCH   1  21
TORSDOF 6
ENDMDL
MODEL 8
REMARK VINA RESULT:      -8.8      2.792      4.507
REMARK  Name = 
REMARK  6 active torsions:
REMARK  status: ('A' for Active; 'I' for Inactive)
REMARK    1  A    between atoms: C_2  and  O_3
REMARK    2  A    between atoms: C_2  and  C_16
REMARK    3  A    between atoms: O_3  and  C_4
REMARK    4  A    between atoms: C_4  and  C_5
REMARK    5  A    between atoms: C_20  and  S_21
REMARK    6  A    between atoms: S_21  and  N_24
REMARK                            x       y       z     vdW  Elec       q    Type
REMARK                         _______ _______ _______ _____ _____    ______ ____
ROOT
ATOM      1  C   UNL     1       0.459  10.000  18.655  0.00  0.00    +0.000 A 
ATOM      2  C   UNL     1      -0.726  10.069  17.911  0.00  0.00    +0.000 A 
ATOM      3  C   UNL     1      -1.813  10.814  18.381  0.00  0.00    +0.000 A 
ATOM      4  C   UNL     1      -1.736  11.536  19.588  0.00  0.00    +0.000 A 
ATOM      5  C   UNL     1      -0.593  11.464  20.381  0.00  0.00    +0.000 A 
ATOM      6  C   UNL     1       0.508  10.667  19.908  0.00  0.00    +0.000 A 
ENDROOT
BRANCH   5   7
ATOM      7  S   UNL     1      -0.403  12.407  21.979  0.00  0.00    +0.000 S 
ATOM      8  O   UNL     1      -0.497  11.343  22.972  0.00  0.00    +0.000 OA
ATOM      9  O   UNL     1       0.832  13.140  21.824  0.00  0.00    +0.000 OA
BRANCH   7  10
ATOM     10  N   UNL     1      -1.686  13.503  22.346  0.00  0.00    +0.000 N 
ATOM     11  C   UNL     1      -1.298  14.821  22.898  0.00  0.00    +0.000 C 
ATOM     12  C   UNL     1      -1.709  14.828  24.361  0.00  0.00    +0.000 C 
ATOM     13  C   UNL     1      -3.215  14.773  24.442  0.00  0.00    +0.000 C 
ATOM     14  C   UNL     1      -3.751  13.563  23.705  0.00  0.00    +0.000 A 
ATOM     15  C   UNL     1      -5.081  13.216  24.008  0.00  0.00    +0.000 A 
ATOM     16  C   UNL     1      -5.915  12.794  22.993  0.00  0.00    +0.000 A 
ATOM     17  C   UNL     1      -5.397  12.730  21.700  0.00  0.00    +0.000 A 
ATOM     18  C   UNL     1      -4.000  12.877  21.458  0.00  0.00    +0.000 A 
ATOM     19  C   UNL     1      -3.116  13.181  22.503  0.00  0.00    +0.000 A 
ENDBRANCH   7  10
ENDBRANCH   5   7
BRANCH   1  21
ATOM     20  O   UNL     1       2.457   9.673  17.329  0.00  0.00    +0.000 OA
ATOM     21  C   UNL     1       1.552   9.191  18.009  0.00  0.00    +0.000 C 
BRANCH  21  22
ATOM     22  O   UNL     1       1.472   7.871  18.350  0.00  0.00    +0.000 OA
BRANCH  22  23
ATOM     23  C   UNL     1       2.341   7.441  19.435  0.00  0.00    +0.000 C 
BRANCH  23  24
ATOM     24  C   UNL     1       2.358   5.916  19.598  0.00  0.00    +0.000 C 
ATOM     25  O   UNL     1       1.705   5.393  20.516  0.00  0.00    +0.000 OA
ATOM     26  N   UNL     1       3.092   5.122  18.742  0.00  0.00    +0.000 N 
ATOM     27  C   UNL     1       2.958   3.654  18.894  0.00  0.00    +0.000 C 
ATOM     28  C   UNL     1       3.890   2.978  17.892  0.00  0.00    +0.000 C 
ATOM     29  C   UNL     1       4.363   4.151  17.092  0.00  0.00    +0.000 A 
ATOM     30  C   UNL     1       5.183   4.093  15.975  0.00  0.00    +0.000 A 
ATOM     31  C   UNL     1       5.582   5.289  15.385  0.00  0.00    +0.000 A 
ATOM     32  C   UNL     1       5.171   6.511  15.934  0.00  0.00    +0.000 A 
ATOM     33  C   UNL     1       4.343   6.561  17.064  0.00  0.00    +0.000 A 
ATOM     34  C   UNL     1       3.929   5.370  17.634  0.00  0.00    +0.000 A 
ENDBRANCH  23  24
ENDBRANCH  22  23
ENDBRANCH  21  22
ENDBRANCH   1  21
TORSDOF 6
ENDMDL
MODEL 9
REMARK VINA RESULT:      -8.8      3.231      5.436
REMARK  Name = 
REMARK  6 active torsions:
REMARK  status: ('A' for Active; 'I' for Inactive)
REMARK    1  A    between atoms: C_2  and  O_3
REMARK    2  A    between atoms: C_2  and  C_16
REMARK    3  A    between atoms: O_3  and  C_4
REMARK    4  A    between atoms: C_4  and  C_5
REMARK    5  A    between atoms: C_20  and  S_21
REMARK    6  A    between atoms: S_21  and  N_24
REMARK                            x       y       z     vdW  Elec       q    Type
REMARK                         _______ _______ _______ _____ _____    ______ ____
ROOT
ATOM      1  C   UNL     1      -0.128  10.750  20.894  0.00  0.00    +0.000 A 
ATOM      2  C   UNL     1       0.110  11.393  19.672  0.00  0.00    +0.000 A 
ATOM      3  C   UNL     1      -0.673  12.486  19.284  0.00  0.00    +0.000 A 
ATOM      4  C   UNL     1      -1.691  12.987  20.118  0.00  0.00    +0.000 A 
ATOM      5  C   UNL     1      -1.990  12.356  21.323  0.00  0.00    +0.000 A 
ATOM      6  C   UNL     1      -1.204  11.210  21.698  0.00  0.00    +0.000 A 
ENDROOT
BRANCH   5   7
ATOM      7  S   UNL     1      -3.306  12.969  22.494  0.00  0.00    +0.000 S 
ATOM      8  O   UNL     1      -3.383  11.881  23.462  0.00  0.00    +0.000 OA
ATOM      9  O   UNL     1      -2.844  14.273  22.911  0.00  0.00    +0.000 OA
BRANCH   7  10
ATOM     10  N   UNL     1      -4.890  13.104  21.818  0.00  0.00    +0.000 N 
ATOM     11  C   UNL     1      -5.911  13.785  22.646  0.00  0.00    +0.000 C 
ATOM     12  C   UNL     1      -6.882  12.717  23.121  0.00  0.00    +0.000 C 
ATOM     13  C   UNL     1      -7.620  12.166  21.926  0.00  0.00    +0.000 C 
ATOM     14  C   UNL     1      -6.650  11.634  20.891  0.00  0.00    +0.000 A 
ATOM     15  C   UNL     1      -7.214  10.789  19.918  0.00  0.00    +0.000 A 
ATOM     16  C   UNL     1      -6.793  10.896  18.607  0.00  0.00    +0.000 A 
ATOM     17  C   UNL     1      -5.819  11.847  18.305  0.00  0.00    +0.000 A 
ATOM     18  C   UNL     1      -5.115  12.534  19.336  0.00  0.00    +0.000 A 
ATOM     19  C   UNL     1      -5.444  12.340  20.685  0.00  0.00    +0.000 A 
ENDBRANCH   7  10
ENDBRANCH   5   7
BRANCH   1  21
ATOM     20  O   UNL     1       1.005   9.153  22.315  0.00  0.00    +0.000 OA
ATOM     21  C   UNL     1       0.813   9.614  21.192  0.00  0.00    +0.000 C 
BRANCH  21  22
ATOM     22  O   UNL     1       1.354   9.094  20.050  0.00  0.00    +0.000 OA
BRANCH  22  23
ATOM     23  C   UNL     1       1.704   7.682  20.098  0.00  0.00    +0.000 C 
BRANCH  23  24
ATOM     24  C   UNL     1       2.536   7.247  18.886  0.00  0.00    +0.000 C 
ATOM     25  O   UNL     1       3.062   8.109  18.166  0.00  0.00    +0.000 OA
ATOM     26  N   UNL     1       2.701   5.910  18.585  0.00  0.00    +0.000 N 
ATOM     27  C   UNL     1       3.616   5.573  17.470  0.00  0.00    +0.000 C 
ATOM     28  C   UNL     1       3.606   4.058  17.278  0.00  0.00    +0.000 C 
ATOM     29  C   UNL     1       2.799   3.618  18.460  0.00  0.00    +0.000 A 
ATOM     30  C   UNL     1       2.545   2.304  18.824  0.00  0.00    +0.000 A 
ATOM     31  C   UNL     1       1.719   2.069  19.919  0.00  0.00    +0.000 A 
ATOM     32  C   UNL     1       1.151   3.147  20.610  0.00  0.00    +0.000 A 
ATOM     33  C   UNL     1       1.411   4.473  20.235  0.00  0.00    +0.000 A 
ATOM     34  C   UNL     1       2.253   4.703  19.161  0.00  0.00    +0.000 A 
ENDBRANCH  23  24
ENDBRANCH  22  23
ENDBRANCH  21  22
ENDBRANCH   1  21
TORSDOF 6
ENDMDL
