MODEL 1
REMARK VINA RESULT:      -7.4      0.000      0.000
REMARK  Name = 
REMARK  5 active torsions:
REMARK  status: ('A' for Active; 'I' for Inactive)
REMARK    1  A    between atoms: C_1  and  N_2
REMARK    2  A    between atoms: N_2  and  C_3
REMARK    3  A    between atoms: C_7  and  N_8
REMARK    4  A    between atoms: N_11  and  C_12
REMARK    5  A    between atoms: C_12  and  C_13
REMARK                            x       y       z     vdW  Elec       q    Type
REMARK                         _______ _______ _______ _____ _____    ______ ____
ROOT
ATOM      1  N   UNL     1       3.650   5.927  17.699  0.00  0.00    +0.000 N 
ATOM      2  C   UNL     1       4.947   6.075  17.253  0.00  0.00    +0.000 C 
ATOM      3  O   UNL     1       5.603   7.109  17.289  0.00  0.00    +0.000 OA
ATOM      4  N   UNL     1       5.499   4.915  16.770  0.00  0.00    +0.000 N 
ATOM      5  H   UNL     1       3.172   5.070  17.469  0.00  0.00    +0.000 HD
ATOM      6  H   UNL     1       4.896   4.202  16.392  0.00  0.00    +0.000 HD
ENDROOT
BRANCH   1  13
ATOM      7  C   UNL     1       0.053   9.599  21.552  0.00  0.00    +0.000 C 
ATOM      8  N   UNL     1       0.492   9.838  20.192  0.00  0.00    +0.000 N 
ATOM      9  C   UNL     1      -0.023  10.984  19.466  0.00  0.00    +0.000 C 
ATOM     10  C   UNL     1       1.309   8.899  19.583  0.00  0.00    +0.000 A 
ATOM     11  C   UNL     1       1.724   9.063  18.265  0.00  0.00    +0.000 A 
ATOM     12  C   UNL     1       2.517   8.109  17.639  0.00  0.00    +0.000 A 
ATOM     13  C   UNL     1       2.899   6.959  18.312  0.00  0.00    +0.000 A 
ATOM     14  C   UNL     1       2.496   6.879  19.640  0.00  0.00    +0.000 A 
ATOM     15  N   UNL     1       1.720   7.813  20.276  0.00  0.00    +0.000 NA
ENDBRANCH   1  13
BRANCH   4  16
ATOM     16  C   UNL     1       6.858   4.953  16.250  0.00  0.00    +0.000 C 
BRANCH  16  17
ATOM     17  C   UNL     1       6.927   4.714  14.757  0.00  0.00    +0.000 A 
ATOM     18  C   UNL     1       6.101   3.770  14.145  0.00  0.00    +0.000 A 
ATOM     19  C   UNL     1       6.185   3.587  12.767  0.00  0.00    +0.000 A 
ATOM     20  C   UNL     1       7.086   4.348  12.035  0.00  0.00    +0.000 A 
ATOM     21  C   UNL     1       7.878   5.255  12.718  0.00  0.00    +0.000 A 
ATOM     22  N   UNL     1       7.832   5.448  14.056  0.00  0.00    +0.000 NA
ENDBRANCH  16  17
ENDBRANCH   4  16
TORSDOF 3
ENDMDL
MODEL 2
REMARK VINA RESULT:      -7.1      0.640      1.365
REMARK  Name = 
REMARK  5 active torsions:
REMARK  status: ('A' for Active; 'I' for Inactive)
REMARK    1  A    between atoms: C_1  and  N_2
REMARK    2  A    between atoms: N_2  and  C_3
REMARK    3  A    between atoms: C_7  and  N_8
REMARK    4  A    between atoms: N_11  and  C_12
REMARK    5  A    between atoms: C_12  and  C_13
REMARK                            x       y       z     vdW  Elec       q    Type
REMARK                         _______ _______ _______ _____ _____    ______ ____
ROOT
ATOM      1  N   UNL     1       3.580   5.704  17.759  0.00  0.00    +0.000 N 
ATOM      2  C   UNL     1       4.889   5.879  17.362  0.00  0.00    +0.000 C 
ATOM      3  O   UNL     1       5.565   6.885  17.548  0.00  0.00    +0.000 OA
ATOM      4  N   UNL     1       5.427   4.782  16.738  0.00  0.00    +0.000 N 
ATOM      5  H   UNL     1       3.090   4.896  17.407  0.00  0.00    +0.000 HD
ATOM      6  H   UNL     1       4.818   4.140  16.257  0.00  0.00    +0.000 HD
ENDROOT
BRANCH   1  13
ATOM      7  C   UNL     1       0.531  10.928  19.922  0.00  0.00    +0.000 C 
ATOM      8  N   UNL     1       0.819   9.679  20.598  0.00  0.00    +0.000 N 
ATOM      9  C   UNL     1       0.539   9.553  22.017  0.00  0.00    +0.000 C 
ATOM     10  C   UNL     1       1.462   8.675  19.891  0.00  0.00    +0.000 A 
ATOM     11  C   UNL     1       1.796   7.473  20.508  0.00  0.00    +0.000 A 
ATOM     12  C   UNL     1       2.469   6.474  19.813  0.00  0.00    +0.000 A 
ATOM     13  C   UNL     1       2.836   6.662  18.490  0.00  0.00    +0.000 A 
ATOM     14  C   UNL     1       2.428   7.862  17.918  0.00  0.00    +0.000 A 
ATOM     15  N   UNL     1       1.759   8.854  18.584  0.00  0.00    +0.000 NA
ENDBRANCH   1  13
BRANCH   4  16
ATOM     16  C   UNL     1       6.798   4.857  16.254  0.00  0.00    +0.000 C 
BRANCH  16  17
ATOM     17  C   UNL     1       6.908   4.667  14.757  0.00  0.00    +0.000 A 
ATOM     18  C   UNL     1       6.102   3.741  14.093  0.00  0.00    +0.000 A 
ATOM     19  C   UNL     1       6.223   3.604  12.712  0.00  0.00    +0.000 A 
ATOM     20  C   UNL     1       7.140   4.391  12.030  0.00  0.00    +0.000 A 
ATOM     21  C   UNL     1       7.911   5.278  12.762  0.00  0.00    +0.000 A 
ATOM     22  N   UNL     1       7.828   5.426  14.104  0.00  0.00    +0.000 NA
ENDBRANCH  16  17
ENDBRANCH   4  16
TORSDOF 3
ENDMDL
MODEL 3
REMARK VINA RESULT:      -6.8      2.417      3.649
REMARK  Name = 
REMARK  5 active torsions:
REMARK  status: ('A' for Active; 'I' for Inactive)
REMARK    1  A    between atoms: C_1  and  N_2
REMARK    2  A    between atoms: N_2  and  C_3
REMARK    3  A    between atoms: C_7  and  N_8
REMARK    4  A    between atoms: N_11  and  C_12
REMARK    5  A    between atoms: C_12  and  C_13
REMARK                            x       y       z     vdW  Elec       q    Type
REMARK                         _______ _______ _______ _____ _____    ______ ____
ROOT
ATOM      1  N   UNL     1       2.447   7.336  20.411  0.00  0.00    +0.000 N 
ATOM      2  C   UNL     1       2.584   6.222  19.609  0.00  0.00    +0.000 C 
ATOM      3  O   UNL     1       1.896   5.955  18.631  0.00  0.00    +0.000 OA
ATOM      4  N   UNL     1       3.618   5.400  19.980  0.00  0.00    +0.000 N 
ATOM      5  H   UNL     1       2.970   7.357  21.273  0.00  0.00    +0.000 HD
ATOM      6  H   UNL     1       3.921   5.391  20.940  0.00  0.00    +0.000 HD
ENDROOT
BRANCH   1  13
ATOM      7  C   UNL     1      -0.960  12.314  18.203  0.00  0.00    +0.000 C 
ATOM      8  N   UNL     1      -1.086  11.588  19.451  0.00  0.00    +0.000 N 
ATOM      9  C   UNL     1      -1.995  12.075  20.472  0.00  0.00    +0.000 C 
ATOM     10  C   UNL     1      -0.247  10.508  19.678  0.00  0.00    +0.000 A 
ATOM     11  C   UNL     1      -0.301   9.804  20.877  0.00  0.00    +0.000 A 
ATOM     12  C   UNL     1       0.560   8.741  21.124  0.00  0.00    +0.000 A 
ATOM     13  C   UNL     1       1.505   8.368  20.182  0.00  0.00    +0.000 A 
ATOM     14  C   UNL     1       1.474   9.076  18.986  0.00  0.00    +0.000 A 
ATOM     15  N   UNL     1       0.629  10.122  18.722  0.00  0.00    +0.000 NA
ENDBRANCH   1  13
BRANCH   4  16
ATOM     16  C   UNL     1       3.846   4.179  19.220  0.00  0.00    +0.000 C 
BRANCH  16  17
ATOM     17  C   UNL     1       4.970   4.309  18.215  0.00  0.00    +0.000 A 
ATOM     18  C   UNL     1       4.722   4.197  16.846  0.00  0.00    +0.000 A 
ATOM     19  C   UNL     1       5.781   4.335  15.951  0.00  0.00    +0.000 A 
ATOM     20  C   UNL     1       7.055   4.582  16.441  0.00  0.00    +0.000 A 
ATOM     21  C   UNL     1       7.221   4.667  17.813  0.00  0.00    +0.000 A 
ATOM     22  N   UNL     1       6.218   4.525  18.709  0.00  0.00    +0.000 NA
ENDBRANCH  16  17
ENDBRANCH   4  16
TORSDOF 3
ENDMDL
MODEL 4
REMARK VINA RESULT:      -6.7      3.282      4.356
REMARK  Name = 
REMARK  5 active torsions:
REMARK  status: ('A' for Active; 'I' for Inactive)
REMARK    1  A    between atoms: C_1  and  N_2
REMARK    2  A    between atoms: N_2  and  C_3
REMARK    3  A    between atoms: C_7  and  N_8
REMARK    4  A    between atoms: N_11  and  C_12
REMARK    5  A    between atoms: C_12  and  C_13
REMARK                            x       y       z     vdW  Elec       q    Type
REMARK                         _______ _______ _______ _____ _____    ______ ____
ROOT
ATOM      1  N   UNL     1       1.850   7.373  21.072  0.00  0.00    +0.000 N 
ATOM      2  C   UNL     1       2.408   6.927  19.893  0.00  0.00    +0.000 C 
ATOM      3  O   UNL     1       2.317   7.479  18.803  0.00  0.00    +0.000 OA
ATOM      4  N   UNL     1       3.141   5.775  20.032  0.00  0.00    +0.000 N 
ATOM      5  H   UNL     1       1.865   6.747  21.862  0.00  0.00    +0.000 HD
ATOM      6  H   UNL     1       2.918   5.136  20.778  0.00  0.00    +0.000 HD
ENDROOT
BRANCH   1  13
ATOM      7  C   UNL     1      -1.280  12.607  23.093  0.00  0.00    +0.000 C 
ATOM      8  N   UNL     1      -1.184  12.043  21.762  0.00  0.00    +0.000 N 
ATOM      9  C   UNL     1      -1.996  12.594  20.692  0.00  0.00    +0.000 C 
ATOM     10  C   UNL     1      -0.401  10.914  21.573  0.00  0.00    +0.000 A 
ATOM     11  C   UNL     1      -0.311  10.312  20.322  0.00  0.00    +0.000 A 
ATOM     12  C   UNL     1       0.448   9.162  20.134  0.00  0.00    +0.000 A 
ATOM     13  C   UNL     1       1.119   8.580  21.197  0.00  0.00    +0.000 A 
ATOM     14  C   UNL     1       1.030   9.258  22.408  0.00  0.00    +0.000 A 
ATOM     15  N   UNL     1       0.294  10.396  22.611  0.00  0.00    +0.000 NA
ENDBRANCH   1  13
BRANCH   4  16
ATOM     16  C   UNL     1       3.760   5.195  18.849  0.00  0.00    +0.000 C 
BRANCH  16  17
ATOM     17  C   UNL     1       5.192   5.644  18.651  0.00  0.00    +0.000 A 
ATOM     18  C   UNL     1       5.545   6.447  17.565  0.00  0.00    +0.000 A 
ATOM     19  C   UNL     1       6.871   6.851  17.423  0.00  0.00    +0.000 A 
ATOM     20  C   UNL     1       7.807   6.448  18.364  0.00  0.00    +0.000 A 
ATOM     21  C   UNL     1       7.380   5.642  19.406  0.00  0.00    +0.000 A 
ATOM     22  N   UNL     1       6.104   5.221  19.565  0.00  0.00    +0.000 NA
ENDBRANCH  16  17
ENDBRANCH   4  16
TORSDOF 3
ENDMDL
MODEL 5
REMARK VINA RESULT:      -6.7      4.387      6.105
REMARK  Name = 
REMARK  5 active torsions:
REMARK  status: ('A' for Active; 'I' for Inactive)
REMARK    1  A    between atoms: C_1  and  N_2
REMARK    2  A    between atoms: N_2  and  C_3
REMARK    3  A    between atoms: C_7  and  N_8
REMARK    4  A    between atoms: N_11  and  C_12
REMARK    5  A    between atoms: C_12  and  C_13
REMARK                            x       y       z     vdW  Elec       q    Type
REMARK                         _______ _______ _______ _____ _____    ______ ____
ROOT
ATOM      1  N   UNL     1       1.357   8.489  21.731  0.00  0.00    +0.000 N 
ATOM      2  C   UNL     1       1.647   7.987  20.480  0.00  0.00    +0.000 C 
ATOM      3  O   UNL     1       1.290   8.473  19.413  0.00  0.00    +0.000 OA
ATOM      4  N   UNL     1       2.432   6.862  20.506  0.00  0.00    +0.000 N 
ATOM      5  H   UNL     1       1.574   7.911  22.528  0.00  0.00    +0.000 HD
ATOM      6  H   UNL     1       2.408   6.263  21.316  0.00  0.00    +0.000 HD
ENDROOT
BRANCH   1  13
ATOM      7  C   UNL     1      -0.766  14.541  22.101  0.00  0.00    +0.000 C 
ATOM      8  N   UNL     1      -1.295  13.336  22.710  0.00  0.00    +0.000 N 
ATOM      9  C   UNL     1      -2.376  13.438  23.672  0.00  0.00    +0.000 C 
ATOM     10  C   UNL     1      -0.673  12.128  22.439  0.00  0.00    +0.000 A 
ATOM     11  C   UNL     1      -1.118  10.950  23.031  0.00  0.00    +0.000 A 
ATOM     12  C   UNL     1      -0.478   9.740  22.787  0.00  0.00    +0.000 A 
ATOM     13  C   UNL     1       0.631   9.684  21.959  0.00  0.00    +0.000 A 
ATOM     14  C   UNL     1       0.993  10.884  21.358  0.00  0.00    +0.000 A 
ATOM     15  N   UNL     1       0.371  12.085  21.580  0.00  0.00    +0.000 NA
ENDBRANCH   1  13
BRANCH   4  16
ATOM     16  C   UNL     1       2.786   6.229  19.244  0.00  0.00    +0.000 C 
BRANCH  16  17
ATOM     17  C   UNL     1       2.235   4.826  19.112  0.00  0.00    +0.000 A 
ATOM     18  C   UNL     1       1.348   4.314  20.060  0.00  0.00    +0.000 A 
ATOM     19  C   UNL     1       0.852   3.022  19.897  0.00  0.00    +0.000 A 
ATOM     20  C   UNL     1       1.250   2.276  18.796  0.00  0.00    +0.000 A 
ATOM     21  C   UNL     1       2.142   2.851  17.907  0.00  0.00    +0.000 A 
ATOM     22  N   UNL     1       2.652   4.096  18.043  0.00  0.00    +0.000 NA
ENDBRANCH  16  17
ENDBRANCH   4  16
TORSDOF 3
ENDMDL
MODEL 6
REMARK VINA RESULT:      -6.7      6.195      7.317
REMARK  Name = 
REMARK  5 active torsions:
REMARK  status: ('A' for Active; 'I' for Inactive)
REMARK    1  A    between atoms: C_1  and  N_2
REMARK    2  A    between atoms: N_2  and  C_3
REMARK    3  A    between atoms: C_7  and  N_8
REMARK    4  A    between atoms: N_11  and  C_12
REMARK    5  A    between atoms: C_12  and  C_13
REMARK                            x       y       z     vdW  Elec       q    Type
REMARK                         _______ _______ _______ _____ _____    ______ ____
ROOT
ATOM      1  N   UNL     1       8.923   8.791  19.180  0.00  0.00    +0.000 N 
ATOM      2  C   UNL     1       8.166   8.165  18.211  0.00  0.00    +0.000 C 
ATOM      3  O   UNL     1       7.646   8.711  17.245  0.00  0.00    +0.000 OA
ATOM      4  N   UNL     1       8.053   6.810  18.391  0.00  0.00    +0.000 N 
ATOM      5  H   UNL     1       9.159   8.260  20.003  0.00  0.00    +0.000 HD
ATOM      6  H   UNL     1       8.131   6.427  19.320  0.00  0.00    +0.000 HD
ENDROOT
BRANCH   1  13
ATOM      7  C   UNL     1       9.843  15.012  20.494  0.00  0.00    +0.000 C 
ATOM      8  N   UNL     1       9.977  14.302  19.238  0.00  0.00    +0.000 N 
ATOM      9  C   UNL     1      10.214  15.050  18.016  0.00  0.00    +0.000 C 
ATOM     10  C   UNL     1       9.762  12.933  19.222  0.00  0.00    +0.000 A 
ATOM     11  C   UNL     1       9.838  12.214  18.033  0.00  0.00    +0.000 A 
ATOM     12  C   UNL     1       9.592  10.846  18.006  0.00  0.00    +0.000 A 
ATOM     13  C   UNL     1       9.247  10.170  19.166  0.00  0.00    +0.000 A 
ATOM     14  C   UNL     1       9.238  10.934  20.327  0.00  0.00    +0.000 A 
ATOM     15  N   UNL     1       9.485  12.281  20.374  0.00  0.00    +0.000 NA
ENDBRANCH   1  13
BRANCH   4  16
ATOM     16  C   UNL     1       7.258   6.044  17.443  0.00  0.00    +0.000 C 
BRANCH  16  17
ATOM     17  C   UNL     1       5.913   5.628  17.999  0.00  0.00    +0.000 A 
ATOM     18  C   UNL     1       4.749   6.311  17.642  0.00  0.00    +0.000 A 
ATOM     19  C   UNL     1       3.528   5.890  18.164  0.00  0.00    +0.000 A 
ATOM     20  C   UNL     1       3.497   4.802  19.025  0.00  0.00    +0.000 A 
ATOM     21  C   UNL     1       4.696   4.185  19.339  0.00  0.00    +0.000 A 
ATOM     22  N   UNL     1       5.900   4.577  18.861  0.00  0.00    +0.000 NA
ENDBRANCH  16  17
ENDBRANCH   4  16
TORSDOF 3
ENDMDL
MODEL 7
REMARK VINA RESULT:      -6.6      2.293      3.185
REMARK  Name = 
REMARK  5 active torsions:
REMARK  status: ('A' for Active; 'I' for Inactive)
REMARK    1  A    between atoms: C_1  and  N_2
REMARK    2  A    between atoms: N_2  and  C_3
REMARK    3  A    between atoms: C_7  and  N_8
REMARK    4  A    between atoms: N_11  and  C_12
REMARK    5  A    between atoms: C_12  and  C_13
REMARK                            x       y       z     vdW  Elec       q    Type
REMARK                         _______ _______ _______ _____ _____    ______ ____
ROOT
ATOM      1  N   UNL     1       2.505   6.860  20.319  0.00  0.00    +0.000 N 
ATOM      2  C   UNL     1       2.711   5.906  19.345  0.00  0.00    +0.000 C 
ATOM      3  O   UNL     1       2.249   5.928  18.211  0.00  0.00    +0.000 OA
ATOM      4  N   UNL     1       3.541   4.886  19.740  0.00  0.00    +0.000 N 
ATOM      5  H   UNL     1       2.810   6.645  21.256  0.00  0.00    +0.000 HD
ATOM      6  H   UNL     1       3.608   4.656  20.718  0.00  0.00    +0.000 HD
ENDROOT
BRANCH   1  13
ATOM      7  C   UNL     1      -1.505  11.861  20.740  0.00  0.00    +0.000 C 
ATOM      8  N   UNL     1      -0.688  11.422  19.626  0.00  0.00    +0.000 N 
ATOM      9  C   UNL     1      -0.841  12.061  18.332  0.00  0.00    +0.000 C 
ATOM     10  C   UNL     1       0.137  10.322  19.802  0.00  0.00    +0.000 A 
ATOM     11  C   UNL     1       0.909   9.836  18.751  0.00  0.00    +0.000 A 
ATOM     12  C   UNL     1       1.714   8.715  18.912  0.00  0.00    +0.000 A 
ATOM     13  C   UNL     1       1.752   8.044  20.124  0.00  0.00    +0.000 A 
ATOM     14  C   UNL     1       1.000   8.608  21.147  0.00  0.00    +0.000 A 
ATOM     15  N   UNL     1       0.206   9.717  21.009  0.00  0.00    +0.000 NA
ENDBRANCH   1  13
BRANCH   4  16
ATOM     16  C   UNL     1       3.815   3.807  18.802  0.00  0.00    +0.000 C 
BRANCH  16  17
ATOM     17  C   UNL     1       4.998   4.092  17.902  0.00  0.00    +0.000 A 
ATOM     18  C   UNL     1       4.868   4.040  16.513  0.00  0.00    +0.000 A 
ATOM     19  C   UNL     1       5.976   4.321  15.717  0.00  0.00    +0.000 A 
ATOM     20  C   UNL     1       7.181   4.647  16.323  0.00  0.00    +0.000 A 
ATOM     21  C   UNL     1       7.232   4.666  17.706  0.00  0.00    +0.000 A 
ATOM     22  N   UNL     1       6.179   4.385  18.508  0.00  0.00    +0.000 NA
ENDBRANCH  16  17
ENDBRANCH   4  16
TORSDOF 3
ENDMDL
MODEL 8
REMARK VINA RESULT:      -6.6      3.116      4.277
REMARK  Name = 
REMARK  5 active torsions:
REMARK  status: ('A' for Active; 'I' for Inactive)
REMARK    1  A    between atoms: C_1  and  N_2
REMARK    2  A    between atoms: N_2  and  C_3
REMARK    3  A    between atoms: C_7  and  N_8
REMARK    4  A    between atoms: N_11  and  C_12
REMARK    5  A    between atoms: C_12  and  C_13
REMARK                            x       y       z     vdW  Elec       q    Type
REMARK                         _______ _______ _______ _____ _____    ______ ____
ROOT
ATOM      1  N   UNL     1       1.851   7.453  21.048  0.00  0.00    +0.000 N 
ATOM      2  C   UNL     1       2.370   7.002  19.853  0.00  0.00    +0.000 C 
ATOM      3  O   UNL     1       2.250   7.555  18.766  0.00  0.00    +0.000 OA
ATOM      4  N   UNL     1       3.099   5.846  19.970  0.00  0.00    +0.000 N 
ATOM      5  H   UNL     1       1.885   6.827  21.837  0.00  0.00    +0.000 HD
ATOM      6  H   UNL     1       2.895   5.208  20.723  0.00  0.00    +0.000 HD
ENDROOT
BRANCH   1  13
ATOM      7  C   UNL     1      -1.333  12.618  23.159  0.00  0.00    +0.000 C 
ATOM      8  N   UNL     1      -1.151  12.133  21.805  0.00  0.00    +0.000 N 
ATOM      9  C   UNL     1      -1.875  12.764  20.717  0.00  0.00    +0.000 C 
ATOM     10  C   UNL     1      -0.374  11.002  21.604  0.00  0.00    +0.000 A 
ATOM     11  C   UNL     1      -0.203  10.474  20.328  0.00  0.00    +0.000 A 
ATOM     12  C   UNL     1       0.548   9.323  20.124  0.00  0.00    +0.000 A 
ATOM     13  C   UNL     1       1.132   8.664  21.195  0.00  0.00    +0.000 A 
ATOM     14  C   UNL     1       0.967   9.270  22.435  0.00  0.00    +0.000 A 
ATOM     15  N   UNL     1       0.236  10.409  22.654  0.00  0.00    +0.000 NA
ENDBRANCH   1  13
BRANCH   4  16
ATOM     16  C   UNL     1       3.679   5.261  18.769  0.00  0.00    +0.000 C 
BRANCH  16  17
ATOM     17  C   UNL     1       5.091   5.737  18.502  0.00  0.00    +0.000 A 
ATOM     18  C   UNL     1       6.154   5.303  19.296  0.00  0.00    +0.000 A 
ATOM     19  C   UNL     1       7.441   5.753  19.011  0.00  0.00    +0.000 A 
ATOM     20  C   UNL     1       7.636   6.620  17.946  0.00  0.00    +0.000 A 
ATOM     21  C   UNL     1       6.529   7.014  17.214  0.00  0.00    +0.000 A 
ATOM     22  N   UNL     1       5.265   6.607  17.472  0.00  0.00    +0.000 NA
ENDBRANCH  16  17
ENDBRANCH   4  16
TORSDOF 3
ENDMDL
MODEL 9
REMARK VINA RESULT:      -6.6      3.193      4.386
REMARK  Name = 
REMARK  5 active torsions:
REMARK  status: ('A' for Active; 'I' for Inactive)
REMARK    1  A    between atoms: C_1  and  N_2
REMARK    2  A    between atoms: N_2  and  C_3
REMARK    3  A    between atoms: C_7  and  N_8
REMARK    4  A    between atoms: N_11  and  C_12
REMARK    5  A    between atoms: C_12  and  C_13
REMARK                            x       y       z     vdW  Elec       q    Type
REMARK                         _______ _______ _______ _____ _____    ______ ____
ROOT
ATOM      1  N   UNL     1       1.873   7.331  20.931  0.00  0.00    +0.000 N 
ATOM      2  C   UNL     1       2.458   6.797  19.802  0.00  0.00    +0.000 C 
ATOM      3  O   UNL     1       2.320   7.215  18.658  0.00  0.00    +0.000 OA
ATOM      4  N   UNL     1       3.277   5.726  20.059  0.00  0.00    +0.000 N 
ATOM      5  H   UNL     1       1.939   6.801  21.786  0.00  0.00    +0.000 HD
ATOM      6  H   UNL     1       3.107   5.161  20.876  0.00  0.00    +0.000 HD
ENDROOT
BRANCH   1  13
ATOM      7  C   UNL     1      -1.066  12.911  19.710  0.00  0.00    +0.000 C 
ATOM      8  N   UNL     1      -1.163  12.049  20.871  0.00  0.00    +0.000 N 
ATOM      9  C   UNL     1      -1.899  12.502  22.038  0.00  0.00    +0.000 C 
ATOM     10  C   UNL     1      -0.451  10.860  20.877  0.00  0.00    +0.000 A 
ATOM     11  C   UNL     1      -0.479  10.019  21.985  0.00  0.00    +0.000 A 
ATOM     12  C   UNL     1       0.259   8.840  22.008  0.00  0.00    +0.000 A 
ATOM     13  C   UNL     1       1.053   8.486  20.930  0.00  0.00    +0.000 A 
ATOM     14  C   UNL     1       0.998   9.341  19.836  0.00  0.00    +0.000 A 
ATOM     15  N   UNL     1       0.272  10.502  19.791  0.00  0.00    +0.000 NA
ENDBRANCH   1  13
BRANCH   4  16
ATOM     16  C   UNL     1       3.933   5.065  18.941  0.00  0.00    +0.000 C 
BRANCH  16  17
ATOM     17  C   UNL     1       5.329   5.589  18.681  0.00  0.00    +0.000 A 
ATOM     18  C   UNL     1       5.594   6.402  17.578  0.00  0.00    +0.000 A 
ATOM     19  C   UNL     1       6.889   6.875  17.379  0.00  0.00    +0.000 A 
ATOM     20  C   UNL     1       7.884   6.528  18.282  0.00  0.00    +0.000 A 
ATOM     21  C   UNL     1       7.544   5.707  19.343  0.00  0.00    +0.000 A 
ATOM     22  N   UNL     1       6.300   5.220  19.558  0.00  0.00    +0.000 NA
ENDBRANCH  16  17
ENDBRANCH   4  16
TORSDOF 3
ENDMDL
