MODEL 1
REMARK VINA RESULT:      -7.8      0.000      0.000
REMARK  Name = 
REMARK  2 active torsions:
REMARK  status: ('A' for Active; 'I' for Inactive)
REMARK    1  A    between atoms: C_7  and  C_8
REMARK    2  A    between atoms: C_11  and  C_12
REMARK                            x       y       z     vdW  Elec       q    Type
REMARK                         _______ _______ _______ _____ _____    ______ ____
ROOT
ATOM      1  C   UNL     1       3.709   4.846  17.964  0.00  0.00    +0.000 A 
ATOM      2  C   UNL     1       3.730   4.303  19.240  0.00  0.00    +0.000 A 
ATOM      3  C   UNL     1       3.079   5.215  20.104  0.00  0.00    +0.000 A 
ATOM      4  C   UNL     1       2.688   6.283  19.325  0.00  0.00    +0.000 A 
ATOM      5  O   UNL     1       3.054   6.051  18.031  0.00  0.00    +0.000 OA
ENDROOT
BRANCH   1  12
ATOM      6  O   UNL     1       8.133   5.236  13.764  0.00  0.00    +0.000 OA
ATOM      7  C   UNL     1       7.289   5.213  14.643  0.00  0.00    +0.000 C 
ATOM      8  N   UNL     1       7.268   6.000  15.747  0.00  0.00    +0.000 N 
ATOM      9  C   UNL     1       6.264   5.821  16.654  0.00  0.00    +0.000 C 
ATOM     10  O   UNL     1       6.187   6.438  17.702  0.00  0.00    +0.000 OA
ATOM     11  C   UNL     1       5.334   4.758  16.174  0.00  0.00    +0.000 C 
ATOM     12  C   UNL     1       4.210   4.315  16.751  0.00  0.00    +0.000 C 
ATOM     13  S   UNL     1       5.916   4.129  14.665  0.00  0.00    +0.000 S 
ATOM     14  H   UNL     1       7.997   6.673  15.913  0.00  0.00    +0.000 HD
ENDBRANCH   1  12
BRANCH   4  15
ATOM     15  C   UNL     1       2.007   7.548  19.591  0.00  0.00    +0.000 A 
ATOM     16  C   UNL     1       1.895   8.540  18.600  0.00  0.00    +0.000 A 
ATOM     17  C   UNL     1       1.256   9.754  18.866  0.00  0.00    +0.000 A 
ATOM     18  C   UNL     1       0.723   9.988  20.127  0.00  0.00    +0.000 A 
ATOM     19  F   UNL     1       0.119  11.162  20.365  0.00  0.00    +0.000 F 
ATOM     20  C   UNL     1       0.819   9.021  21.122  0.00  0.00    +0.000 A 
ATOM     21 CL   UNL     1       0.162   9.305  22.689  0.00  0.00    +0.000 Cl
ATOM     22  C   UNL     1       1.454   7.805  20.857  0.00  0.00    +0.000 A 
ENDBRANCH   4  15
TORSDOF 2
ENDMDL
MODEL 2
REMARK VINA RESULT:      -7.6      5.516      7.951
REMARK  Name = 
REMARK  2 active torsions:
REMARK  status: ('A' for Active; 'I' for Inactive)
REMARK    1  A    between atoms: C_7  and  C_8
REMARK    2  A    between atoms: C_11  and  C_12
REMARK                            x       y       z     vdW  Elec       q    Type
REMARK                         _______ _______ _______ _____ _____    ______ ____
ROOT
ATOM      1  C   UNL     1       3.783   5.645  17.578  0.00  0.00    +0.000 A 
ATOM      2  C   UNL     1       4.687   6.678  17.772  0.00  0.00    +0.000 A 
ATOM      3  C   UNL     1       5.635   6.620  16.723  0.00  0.00    +0.000 A 
ATOM      4  C   UNL     1       5.278   5.551  15.929  0.00  0.00    +0.000 A 
ATOM      5  O   UNL     1       4.150   4.974  16.437  0.00  0.00    +0.000 OA
ENDROOT
BRANCH   1  12
ATOM      6  O   UNL     1       1.649   2.082  22.063  0.00  0.00    +0.000 OA
ATOM      7  C   UNL     1       2.147   2.764  21.185  0.00  0.00    +0.000 C 
ATOM      8  N   UNL     1       3.450   2.753  20.809  0.00  0.00    +0.000 N 
ATOM      9  C   UNL     1       3.850   3.608  19.823  0.00  0.00    +0.000 C 
ATOM     10  O   UNL     1       5.007   3.714  19.454  0.00  0.00    +0.000 OA
ATOM     11  C   UNL     1       2.678   4.383  19.322  0.00  0.00    +0.000 C 
ATOM     12  C   UNL     1       2.643   5.291  18.339  0.00  0.00    +0.000 C 
ATOM     13  S   UNL     1       1.265   3.927  20.220  0.00  0.00    +0.000 S 
ATOM     14  H   UNL     1       4.114   2.156  21.273  0.00  0.00    +0.000 HD
ENDBRANCH   1  12
BRANCH   4  15
ATOM     15  C   UNL     1       5.835   4.938  14.726  0.00  0.00    +0.000 A 
ATOM     16  C   UNL     1       7.206   5.030  14.427  0.00  0.00    +0.000 A 
ATOM     17  C   UNL     1       7.730   4.456  13.265  0.00  0.00    +0.000 A 
ATOM     18  C   UNL     1       6.885   3.785  12.390  0.00  0.00    +0.000 A 
ATOM     19  F   UNL     1       7.404   3.245  11.277  0.00  0.00    +0.000 F 
ATOM     20  C   UNL     1       5.525   3.678  12.666  0.00  0.00    +0.000 A 
ATOM     21 CL   UNL     1       4.472   2.850  11.584  0.00  0.00    +0.000 Cl
ATOM     22  C   UNL     1       5.002   4.249  13.828  0.00  0.00    +0.000 A 
ENDBRANCH   4  15
TORSDOF 2
ENDMDL
MODEL 3
REMARK VINA RESULT:      -7.6      1.206      1.599
REMARK  Name = 
REMARK  2 active torsions:
REMARK  status: ('A' for Active; 'I' for Inactive)
REMARK    1  A    between atoms: C_7  and  C_8
REMARK    2  A    between atoms: C_11  and  C_12
REMARK                            x       y       z     vdW  Elec       q    Type
REMARK                         _______ _______ _______ _____ _____    ______ ____
ROOT
ATOM      1  C   UNL     1       3.913   4.436  17.774  0.00  0.00    +0.000 A 
ATOM      2  C   UNL     1       3.960   3.768  18.989  0.00  0.00    +0.000 A 
ATOM      3  C   UNL     1       3.310   4.579  19.949  0.00  0.00    +0.000 A 
ATOM      4  C   UNL     1       2.895   5.715  19.287  0.00  0.00    +0.000 A 
ATOM      5  O   UNL     1       3.244   5.619  17.971  0.00  0.00    +0.000 OA
ENDROOT
BRANCH   1  12
ATOM      6  O   UNL     1       8.230   5.357  13.545  0.00  0.00    +0.000 OA
ATOM      7  C   UNL     1       7.407   5.225  14.434  0.00  0.00    +0.000 C 
ATOM      8  N   UNL     1       7.386   5.904  15.607  0.00  0.00    +0.000 N 
ATOM      9  C   UNL     1       6.408   5.610  16.512  0.00  0.00    +0.000 C 
ATOM     10  O   UNL     1       6.337   6.124  17.616  0.00  0.00    +0.000 OA
ATOM     11  C   UNL     1       5.500   4.568  15.953  0.00  0.00    +0.000 C 
ATOM     12  C   UNL     1       4.403   4.037  16.508  0.00  0.00    +0.000 C 
ATOM     13  S   UNL     1       6.068   4.101  14.380  0.00  0.00    +0.000 S 
ATOM     14  H   UNL     1       8.098   6.582  15.822  0.00  0.00    +0.000 HD
ENDBRANCH   1  12
BRANCH   4  15
ATOM     15  C   UNL     1       2.201   6.937  19.687  0.00  0.00    +0.000 A 
ATOM     16  C   UNL     1       1.558   7.037  20.934  0.00  0.00    +0.000 A 
ATOM     17  C   UNL     1       0.882   8.204  21.303  0.00  0.00    +0.000 A 
ATOM     18  C   UNL     1       0.842   9.282  20.427  0.00  0.00    +0.000 A 
ATOM     19  F   UNL     1       0.184  10.390  20.797  0.00  0.00    +0.000 F 
ATOM     20  C   UNL     1       1.474   9.207  19.190  0.00  0.00    +0.000 A 
ATOM     21 CL   UNL     1       1.427  10.538  18.098  0.00  0.00    +0.000 Cl
ATOM     22  C   UNL     1       2.152   8.042  18.821  0.00  0.00    +0.000 A 
ENDBRANCH   4  15
TORSDOF 2
ENDMDL
MODEL 4
REMARK VINA RESULT:      -7.6      5.475      7.980
REMARK  Name = 
REMARK  2 active torsions:
REMARK  status: ('A' for Active; 'I' for Inactive)
REMARK    1  A    between atoms: C_7  and  C_8
REMARK    2  A    between atoms: C_11  and  C_12
REMARK                            x       y       z     vdW  Elec       q    Type
REMARK                         _______ _______ _______ _____ _____    ______ ____
ROOT
ATOM      1  C   UNL     1       5.258   5.395  18.299  0.00  0.00    +0.000 A 
ATOM      2  C   UNL     1       6.574   5.397  18.734  0.00  0.00    +0.000 A 
ATOM      3  C   UNL     1       7.401   5.214  17.601  0.00  0.00    +0.000 A 
ATOM      4  C   UNL     1       6.559   5.102  16.515  0.00  0.00    +0.000 A 
ATOM      5  O   UNL     1       5.266   5.229  16.935  0.00  0.00    +0.000 OA
ENDROOT
BRANCH   1  12
ATOM      6  O   UNL     1       1.233   2.676  22.010  0.00  0.00    +0.000 OA
ATOM      7  C   UNL     1       2.079   3.152  21.274  0.00  0.00    +0.000 C 
ATOM      8  N   UNL     1       3.184   2.515  20.813  0.00  0.00    +0.000 N 
ATOM      9  C   UNL     1       4.050   3.208  20.019  0.00  0.00    +0.000 C 
ATOM     10  O   UNL     1       5.097   2.744  19.601  0.00  0.00    +0.000 OA
ATOM     11  C   UNL     1       3.531   4.588  19.789  0.00  0.00    +0.000 C 
ATOM     12  C   UNL     1       4.064   5.562  19.040  0.00  0.00    +0.000 C 
ATOM     13  S   UNL     1       2.044   4.791  20.660  0.00  0.00    +0.000 S 
ATOM     14  H   UNL     1       3.379   1.566  21.082  0.00  0.00    +0.000 HD
ENDBRANCH   1  12
BRANCH   4  15
ATOM     15  C   UNL     1       6.757   4.879  15.084  0.00  0.00    +0.000 A 
ATOM     16  C   UNL     1       7.837   5.462  14.397  0.00  0.00    +0.000 A 
ATOM     17  C   UNL     1       8.011   5.259  13.025  0.00  0.00    +0.000 A 
ATOM     18  C   UNL     1       7.104   4.470  12.327  0.00  0.00    +0.000 A 
ATOM     19  F   UNL     1       7.284   4.291  11.010  0.00  0.00    +0.000 F 
ATOM     20  C   UNL     1       6.030   3.880  12.987  0.00  0.00    +0.000 A 
ATOM     21 CL   UNL     1       4.902   2.903  12.127  0.00  0.00    +0.000 Cl
ATOM     22  C   UNL     1       5.857   4.081  14.358  0.00  0.00    +0.000 A 
ENDBRANCH   4  15
TORSDOF 2
ENDMDL
MODEL 5
REMARK VINA RESULT:      -7.4      5.551      8.006
REMARK  Name = 
REMARK  2 active torsions:
REMARK  status: ('A' for Active; 'I' for Inactive)
REMARK    1  A    between atoms: C_7  and  C_8
REMARK    2  A    between atoms: C_11  and  C_12
REMARK                            x       y       z     vdW  Elec       q    Type
REMARK                         _______ _______ _______ _____ _____    ______ ____
ROOT
ATOM      1  C   UNL     1       5.044   5.371  18.698  0.00  0.00    +0.000 A 
ATOM      2  C   UNL     1       6.366   5.498  19.096  0.00  0.00    +0.000 A 
ATOM      3  C   UNL     1       7.177   5.312  17.951  0.00  0.00    +0.000 A 
ATOM      4  C   UNL     1       6.320   5.074  16.897  0.00  0.00    +0.000 A 
ATOM      5  O   UNL     1       5.033   5.127  17.347  0.00  0.00    +0.000 OA
ENDROOT
BRANCH   1  12
ATOM      6  O   UNL     1       1.044   2.415  22.252  0.00  0.00    +0.000 OA
ATOM      7  C   UNL     1       1.884   2.938  21.542  0.00  0.00    +0.000 C 
ATOM      8  N   UNL     1       2.981   2.331  21.025  0.00  0.00    +0.000 N 
ATOM      9  C   UNL     1       3.843   3.074  20.272  0.00  0.00    +0.000 C 
ATOM     10  O   UNL     1       4.883   2.636  19.812  0.00  0.00    +0.000 OA
ATOM     11  C   UNL     1       3.329   4.469  20.147  0.00  0.00    +0.000 C 
ATOM     12  C   UNL     1       3.858   5.491  19.463  0.00  0.00    +0.000 C 
ATOM     13  S   UNL     1       1.852   4.616  21.046  0.00  0.00    +0.000 S 
ATOM     14  H   UNL     1       3.175   1.363  21.224  0.00  0.00    +0.000 HD
ENDBRANCH   1  12
BRANCH   4  15
ATOM     15  C   UNL     1       6.501   4.784  15.477  0.00  0.00    +0.000 A 
ATOM     16  C   UNL     1       5.721   3.812  14.825  0.00  0.00    +0.000 A 
ATOM     17  C   UNL     1       5.910   3.528  13.469  0.00  0.00    +0.000 A 
ATOM     18  C   UNL     1       6.884   4.214  12.753  0.00  0.00    +0.000 A 
ATOM     19  F   UNL     1       7.055   3.923  11.455  0.00  0.00    +0.000 F 
ATOM     20  C   UNL     1       7.665   5.182  13.376  0.00  0.00    +0.000 A 
ATOM     21 CL   UNL     1       8.875   6.034  12.495  0.00  0.00    +0.000 Cl
ATOM     22  C   UNL     1       7.475   5.469  14.730  0.00  0.00    +0.000 A 
ENDBRANCH   4  15
TORSDOF 2
ENDMDL
MODEL 6
REMARK VINA RESULT:      -7.3      1.338      1.468
REMARK  Name = 
REMARK  2 active torsions:
REMARK  status: ('A' for Active; 'I' for Inactive)
REMARK    1  A    between atoms: C_7  and  C_8
REMARK    2  A    between atoms: C_11  and  C_12
REMARK                            x       y       z     vdW  Elec       q    Type
REMARK                         _______ _______ _______ _____ _____    ______ ____
ROOT
ATOM      1  C   UNL     1       3.959   5.189  19.575  0.00  0.00    +0.000 A 
ATOM      2  C   UNL     1       2.929   4.376  20.022  0.00  0.00    +0.000 A 
ATOM      3  C   UNL     1       1.836   5.211  20.353  0.00  0.00    +0.000 A 
ATOM      4  C   UNL     1       2.240   6.505  20.100  0.00  0.00    +0.000 A 
ATOM      5  O   UNL     1       3.516   6.489  19.614  0.00  0.00    +0.000 OA
ENDROOT
BRANCH   1  12
ATOM      6  O   UNL     1       7.804   5.360  14.825  0.00  0.00    +0.000 OA
ATOM      7  C   UNL     1       6.987   5.369  15.730  0.00  0.00    +0.000 C 
ATOM      8  N   UNL     1       5.753   5.929  15.683  0.00  0.00    +0.000 N 
ATOM      9  C   UNL     1       4.973   5.879  16.801  0.00  0.00    +0.000 C 
ATOM     10  O   UNL     1       3.873   6.400  16.878  0.00  0.00    +0.000 OA
ATOM     11  C   UNL     1       5.685   5.135  17.880  0.00  0.00    +0.000 C 
ATOM     12  C   UNL     1       5.249   4.836  19.110  0.00  0.00    +0.000 C 
ATOM     13  S   UNL     1       7.253   4.659  17.307  0.00  0.00    +0.000 S 
ATOM     14  H   UNL     1       5.435   6.405  14.855  0.00  0.00    +0.000 HD
ENDBRANCH   1  12
BRANCH   4  15
ATOM     15  C   UNL     1       1.618   7.819  20.246  0.00  0.00    +0.000 A 
ATOM     16  C   UNL     1       1.601   8.741  19.184  0.00  0.00    +0.000 A 
ATOM     17  C   UNL     1       1.019  10.003  19.336  0.00  0.00    +0.000 A 
ATOM     18  C   UNL     1       0.448  10.354  20.553  0.00  0.00    +0.000 A 
ATOM     19  F   UNL     1      -0.100  11.572  20.682  0.00  0.00    +0.000 F 
ATOM     20  C   UNL     1       0.451   9.457  21.617  0.00  0.00    +0.000 A 
ATOM     21 CL   UNL     1      -0.252   9.887  23.129  0.00  0.00    +0.000 Cl
ATOM     22  C   UNL     1       1.030   8.195  21.465  0.00  0.00    +0.000 A 
ENDBRANCH   4  15
TORSDOF 2
ENDMDL
MODEL 7
REMARK VINA RESULT:      -7.2      5.617      8.020
REMARK  Name = 
REMARK  2 active torsions:
REMARK  status: ('A' for Active; 'I' for Inactive)
REMARK    1  A    between atoms: C_7  and  C_8
REMARK    2  A    between atoms: C_11  and  C_12
REMARK                            x       y       z     vdW  Elec       q    Type
REMARK                         _______ _______ _______ _____ _____    ______ ____
ROOT
ATOM      1  C   UNL     1       5.356   4.953  18.088  0.00  0.00    +0.000 A 
ATOM      2  C   UNL     1       6.661   4.806  18.530  0.00  0.00    +0.000 A 
ATOM      3  C   UNL     1       7.489   4.682  17.390  0.00  0.00    +0.000 A 
ATOM      4  C   UNL     1       6.658   4.754  16.292  0.00  0.00    +0.000 A 
ATOM      5  O   UNL     1       5.373   4.934  16.714  0.00  0.00    +0.000 OA
ENDROOT
BRANCH   1  12
ATOM      6  O   UNL     1      -0.023   2.487  19.625  0.00  0.00    +0.000 OA
ATOM      7  C   UNL     1       1.066   2.911  19.280  0.00  0.00    +0.000 C 
ATOM      8  N   UNL     1       1.956   2.269  18.483  0.00  0.00    +0.000 N 
ATOM      9  C   UNL     1       3.150   2.876  18.220  0.00  0.00    +0.000 C 
ATOM     10  O   UNL     1       4.036   2.358  17.563  0.00  0.00    +0.000 OA
ATOM     11  C   UNL     1       3.192   4.213  18.879  0.00  0.00    +0.000 C 
ATOM     12  C   UNL     1       4.166   5.131  18.834  0.00  0.00    +0.000 C 
ATOM     13  S   UNL     1       1.719   4.461  19.764  0.00  0.00    +0.000 S 
ATOM     14  H   UNL     1       1.756   1.350  18.126  0.00  0.00    +0.000 HD
ENDBRANCH   1  12
BRANCH   4  15
ATOM     15  C   UNL     1       6.861   4.672  14.847  0.00  0.00    +0.000 A 
ATOM     16  C   UNL     1       7.817   5.473  14.197  0.00  0.00    +0.000 A 
ATOM     17  C   UNL     1       7.994   5.402  12.812  0.00  0.00    +0.000 A 
ATOM     18  C   UNL     1       7.215   4.528  12.064  0.00  0.00    +0.000 A 
ATOM     19  F   UNL     1       7.396   4.478  10.736  0.00  0.00    +0.000 F 
ATOM     20  C   UNL     1       6.266   3.723  12.686  0.00  0.00    +0.000 A 
ATOM     21 CL   UNL     1       5.296   2.638  11.764  0.00  0.00    +0.000 Cl
ATOM     22  C   UNL     1       6.090   3.791  14.070  0.00  0.00    +0.000 A 
ENDBRANCH   4  15
TORSDOF 2
ENDMDL
MODEL 8
REMARK VINA RESULT:      -7.2      3.434      4.207
REMARK  Name = 
REMARK  2 active torsions:
REMARK  status: ('A' for Active; 'I' for Inactive)
REMARK    1  A    between atoms: C_7  and  C_8
REMARK    2  A    between atoms: C_11  and  C_12
REMARK                            x       y       z     vdW  Elec       q    Type
REMARK                         _______ _______ _______ _____ _____    ______ ____
ROOT
ATOM      1  C   UNL     1       2.953   7.020  19.043  0.00  0.00    +0.000 A 
ATOM      2  C   UNL     1       2.627   7.738  17.903  0.00  0.00    +0.000 A 
ATOM      3  C   UNL     1       1.717   8.753  18.281  0.00  0.00    +0.000 A 
ATOM      4  C   UNL     1       1.516   8.615  19.638  0.00  0.00    +0.000 A 
ATOM      5  O   UNL     1       2.277   7.580  20.100  0.00  0.00    +0.000 OA
ENDROOT
BRANCH   1  12
ATOM      6  O   UNL     1       3.643   0.992  18.299  0.00  0.00    +0.000 OA
ATOM      7  C   UNL     1       3.435   2.187  18.412  0.00  0.00    +0.000 C 
ATOM      8  N   UNL     1       2.302   2.837  18.049  0.00  0.00    +0.000 N 
ATOM      9  C   UNL     1       2.245   4.190  18.215  0.00  0.00    +0.000 C 
ATOM     10  O   UNL     1       1.295   4.871  17.869  0.00  0.00    +0.000 OA
ATOM     11  C   UNL     1       3.511   4.675  18.837  0.00  0.00    +0.000 C 
ATOM     12  C   UNL     1       3.835   5.924  19.196  0.00  0.00    +0.000 C 
ATOM     13  S   UNL     1       4.585   3.331  19.068  0.00  0.00    +0.000 S 
ATOM     14  H   UNL     1       1.535   2.337  17.631  0.00  0.00    +0.000 HD
ENDBRANCH   1  12
BRANCH   4  15
ATOM     15  C   UNL     1       0.695   9.309  20.628  0.00  0.00    +0.000 A 
ATOM     16  C   UNL     1       0.609   8.853  21.955  0.00  0.00    +0.000 A 
ATOM     17  C   UNL     1      -0.192   9.511  22.892  0.00  0.00    +0.000 A 
ATOM     18  C   UNL     1      -0.916  10.634  22.509  0.00  0.00    +0.000 A 
ATOM     19  F   UNL     1      -1.684  11.249  23.421  0.00  0.00    +0.000 F 
ATOM     20  C   UNL     1      -0.844  11.105  21.202  0.00  0.00    +0.000 A 
ATOM     21 CL   UNL     1      -1.741  12.495  20.720  0.00  0.00    +0.000 Cl
ATOM     22  C   UNL     1      -0.042  10.450  20.265  0.00  0.00    +0.000 A 
ENDBRANCH   4  15
TORSDOF 2
ENDMDL
MODEL 9
REMARK VINA RESULT:      -7.2      1.783      2.245
REMARK  Name = 
REMARK  2 active torsions:
REMARK  status: ('A' for Active; 'I' for Inactive)
REMARK    1  A    between atoms: C_7  and  C_8
REMARK    2  A    between atoms: C_11  and  C_12
REMARK                            x       y       z     vdW  Elec       q    Type
REMARK                         _______ _______ _______ _____ _____    ______ ____
ROOT
ATOM      1  C   UNL     1       2.606   5.439  18.808  0.00  0.00    +0.000 A 
ATOM      2  C   UNL     1       2.176   4.725  19.916  0.00  0.00    +0.000 A 
ATOM      3  C   UNL     1       1.582   5.644  20.814  0.00  0.00    +0.000 A 
ATOM      4  C   UNL     1       1.675   6.886  20.223  0.00  0.00    +0.000 A 
ATOM      5  O   UNL     1       2.278   6.758  19.005  0.00  0.00    +0.000 OA
ENDROOT
BRANCH   1  12
ATOM      6  O   UNL     1       7.975   4.348  16.097  0.00  0.00    +0.000 OA
ATOM      7  C   UNL     1       6.945   4.583  16.703  0.00  0.00    +0.000 C 
ATOM      8  N   UNL     1       6.856   5.039  17.978  0.00  0.00    +0.000 N 
ATOM      9  C   UNL     1       5.616   5.220  18.519  0.00  0.00    +0.000 C 
ATOM     10  O   UNL     1       5.431   5.571  19.672  0.00  0.00    +0.000 OA
ATOM     11  C   UNL     1       4.571   4.893  17.507  0.00  0.00    +0.000 C 
ATOM     12  C   UNL     1       3.241   4.977  17.630  0.00  0.00    +0.000 C 
ATOM     13  S   UNL     1       5.339   4.365  16.043  0.00  0.00    +0.000 S 
ATOM     14  H   UNL     1       7.685   5.202  18.524  0.00  0.00    +0.000 HD
ENDBRANCH   1  12
BRANCH   4  15
ATOM     15  C   UNL     1       1.289   8.239  20.617  0.00  0.00    +0.000 A 
ATOM     16  C   UNL     1       0.985   8.552  21.954  0.00  0.00    +0.000 A 
ATOM     17  C   UNL     1       0.599   9.844  22.321  0.00  0.00    +0.000 A 
ATOM     18  C   UNL     1       0.514  10.837  21.353  0.00  0.00    +0.000 A 
ATOM     19  F   UNL     1       0.136  12.069  21.723  0.00  0.00    +0.000 F 
ATOM     20  C   UNL     1       0.813  10.552  20.024  0.00  0.00    +0.000 A 
ATOM     21 CL   UNL     1       0.707  11.777  18.818  0.00  0.00    +0.000 Cl
ATOM     22  C   UNL     1       1.201   9.261  19.656  0.00  0.00    +0.000 A 
ENDBRANCH   4  15
TORSDOF 2
ENDMDL
