MODEL 1
REMARK VINA RESULT:      -6.8      0.000      0.000
REMARK  Name = 
REMARK  3 active torsions:
REMARK  status: ('A' for Active; 'I' for Inactive)
REMARK    1  A    between atoms: C_1  and  C_2
REMARK    2  A    between atoms: C_7  and  C_8
REMARK    3  A    between atoms: N_14  and  C_15
REMARK                            x       y       z     vdW  Elec       q    Type
REMARK                         _______ _______ _______ _____ _____    ______ ____
ROOT
ATOM      1  C   UNL     1       6.906   4.607  13.588  0.00  0.00    +0.000 C 
ATOM      2  C   UNL     1       6.614   4.527  15.060  0.00  0.00    +0.000 A 
ATOM      3  C   UNL     1       7.613   4.840  15.989  0.00  0.00    +0.000 A 
ATOM      4  C   UNL     1       7.339   4.769  17.361  0.00  0.00    +0.000 A 
ATOM      5  C   UNL     1       6.051   4.376  17.733  0.00  0.00    +0.000 A 
ATOM      6  N   UNL     1       5.466   4.204  18.961  0.00  0.00    +0.000 NA
ATOM      7  C   UNL     1       4.223   3.797  18.731  0.00  0.00    +0.000 A 
ATOM      8  N   UNL     1       3.986   3.761  17.365  0.00  0.00    +0.000 N 
ATOM      9  C   UNL     1       2.770   3.482  16.644  0.00  0.00    +0.000 C 
ATOM     10  C   UNL     1       5.150   4.096  16.723  0.00  0.00    +0.000 A 
ATOM     11  N   UNL     1       5.354   4.150  15.391  0.00  0.00    +0.000 NA
ENDROOT
BRANCH   7  12
ATOM     12  C   UNL     1       3.250   3.493  19.796  0.00  0.00    +0.000 A 
ATOM     13  C   UNL     1       2.054   4.224  19.864  0.00  0.00    +0.000 A 
ATOM     14  C   UNL     1       1.083   3.921  20.825  0.00  0.00    +0.000 A 
ATOM     15  C   UNL     1       1.293   2.881  21.725  0.00  0.00    +0.000 A 
ATOM     16  C   UNL     1       2.492   2.173  21.696  0.00  0.00    +0.000 A 
ATOM     17  C   UNL     1       3.475   2.506  20.762  0.00  0.00    +0.000 A 
ENDBRANCH   7  12
TORSDOF 1
ENDMDL
MODEL 2
REMARK VINA RESULT:      -6.6      2.432      2.871
REMARK  Name = 
REMARK  3 active torsions:
REMARK  status: ('A' for Active; 'I' for Inactive)
REMARK    1  A    between atoms: C_1  and  C_2
REMARK    2  A    between atoms: C_7  and  C_8
REMARK    3  A    between atoms: N_14  and  C_15
REMARK                            x       y       z     vdW  Elec       q    Type
REMARK                         _______ _______ _______ _____ _____    ______ ____
ROOT
ATOM      1  C   UNL     1       8.135   8.809  17.385  0.00  0.00    +0.000 C 
ATOM      2  C   UNL     1       7.497   7.579  17.965  0.00  0.00    +0.000 A 
ATOM      3  C   UNL     1       8.274   6.658  18.679  0.00  0.00    +0.000 A 
ATOM      4  C   UNL     1       7.677   5.514  19.223  0.00  0.00    +0.000 A 
ATOM      5  C   UNL     1       6.306   5.350  19.012  0.00  0.00    +0.000 A 
ATOM      6  N   UNL     1       5.434   4.364  19.395  0.00  0.00    +0.000 NA
ATOM      7  C   UNL     1       4.247   4.702  18.905  0.00  0.00    +0.000 A 
ATOM      8  N   UNL     1       4.338   5.925  18.258  0.00  0.00    +0.000 N 
ATOM      9  C   UNL     1       3.305   6.735  17.663  0.00  0.00    +0.000 C 
ATOM     10  C   UNL     1       5.647   6.329  18.293  0.00  0.00    +0.000 A 
ATOM     11  N   UNL     1       6.164   7.449  17.751  0.00  0.00    +0.000 NA
ENDROOT
BRANCH   7  12
ATOM     12  C   UNL     1       3.025   3.898  19.089  0.00  0.00    +0.000 A 
ATOM     13  C   UNL     1       2.202   4.141  20.199  0.00  0.00    +0.000 A 
ATOM     14  C   UNL     1       1.005   3.438  20.372  0.00  0.00    +0.000 A 
ATOM     15  C   UNL     1       0.614   2.487  19.435  0.00  0.00    +0.000 A 
ATOM     16  C   UNL     1       1.439   2.205  18.350  0.00  0.00    +0.000 A 
ATOM     17  C   UNL     1       2.652   2.880  18.204  0.00  0.00    +0.000 A 
ENDBRANCH   7  12
TORSDOF 1
ENDMDL
MODEL 3
REMARK VINA RESULT:      -6.6      2.458      2.937
REMARK  Name = 
REMARK  3 active torsions:
REMARK  status: ('A' for Active; 'I' for Inactive)
REMARK    1  A    between atoms: C_1  and  C_2
REMARK    2  A    between atoms: C_7  and  C_8
REMARK    3  A    between atoms: N_14  and  C_15
REMARK                            x       y       z     vdW  Elec       q    Type
REMARK                         _______ _______ _______ _____ _____    ______ ____
ROOT
ATOM      1  C   UNL     1       8.204   8.751  17.393  0.00  0.00    +0.000 C 
ATOM      2  C   UNL     1       7.524   7.546  17.978  0.00  0.00    +0.000 A 
ATOM      3  C   UNL     1       8.262   6.617  18.721  0.00  0.00    +0.000 A 
ATOM      4  C   UNL     1       7.625   5.497  19.268  0.00  0.00    +0.000 A 
ATOM      5  C   UNL     1       6.255   5.364  19.031  0.00  0.00    +0.000 A 
ATOM      6  N   UNL     1       5.351   4.405  19.409  0.00  0.00    +0.000 NA
ATOM      7  C   UNL     1       4.183   4.765  18.889  0.00  0.00    +0.000 A 
ATOM      8  N   UNL     1       4.318   5.976  18.227  0.00  0.00    +0.000 N 
ATOM      9  C   UNL     1       3.319   6.803  17.598  0.00  0.00    +0.000 C 
ATOM     10  C   UNL     1       5.636   6.347  18.284  0.00  0.00    +0.000 A 
ATOM     11  N   UNL     1       6.192   7.447  17.737  0.00  0.00    +0.000 NA
ENDROOT
BRANCH   7  12
ATOM     12  C   UNL     1       2.938   3.995  19.059  0.00  0.00    +0.000 A 
ATOM     13  C   UNL     1       2.620   2.988  18.134  0.00  0.00    +0.000 A 
ATOM     14  C   UNL     1       1.477   2.198  18.299  0.00  0.00    +0.000 A 
ATOM     15  C   UNL     1       0.641   2.401  19.392  0.00  0.00    +0.000 A 
ATOM     16  C   UNL     1       0.920   3.423  20.296  0.00  0.00    +0.000 A 
ATOM     17  C   UNL     1       2.039   4.235  20.104  0.00  0.00    +0.000 A 
ENDBRANCH   7  12
TORSDOF 1
ENDMDL
MODEL 4
REMARK VINA RESULT:      -6.5      1.784      6.488
REMARK  Name = 
REMARK  3 active torsions:
REMARK  status: ('A' for Active; 'I' for Inactive)
REMARK    1  A    between atoms: C_1  and  C_2
REMARK    2  A    between atoms: C_7  and  C_8
REMARK    3  A    between atoms: N_14  and  C_15
REMARK                            x       y       z     vdW  Elec       q    Type
REMARK                         _______ _______ _______ _____ _____    ______ ____
ROOT
ATOM      1  C   UNL     1       2.179   5.687  20.643  0.00  0.00    +0.000 C 
ATOM      2  C   UNL     1       2.853   4.918  19.541  0.00  0.00    +0.000 A 
ATOM      3  C   UNL     1       2.825   3.519  19.546  0.00  0.00    +0.000 A 
ATOM      4  C   UNL     1       3.450   2.804  18.517  0.00  0.00    +0.000 A 
ATOM      5  C   UNL     1       4.085   3.548  17.520  0.00  0.00    +0.000 A 
ATOM      6  N   UNL     1       4.780   3.170  16.400  0.00  0.00    +0.000 NA
ATOM      7  C   UNL     1       5.190   4.291  15.817  0.00  0.00    +0.000 A 
ATOM      8  N   UNL     1       4.717   5.387  16.523  0.00  0.00    +0.000 N 
ATOM      9  C   UNL     1       4.818   6.793  16.225  0.00  0.00    +0.000 C 
ATOM     10  C   UNL     1       4.043   4.925  17.623  0.00  0.00    +0.000 A 
ATOM     11  N   UNL     1       3.456   5.667  18.584  0.00  0.00    +0.000 NA
ENDROOT
BRANCH   7  12
ATOM     12  C   UNL     1       5.982   4.326  14.574  0.00  0.00    +0.000 A 
ATOM     13  C   UNL     1       5.566   3.564  13.472  0.00  0.00    +0.000 A 
ATOM     14  C   UNL     1       6.260   3.621  12.258  0.00  0.00    +0.000 A 
ATOM     15  C   UNL     1       7.374   4.444  12.130  0.00  0.00    +0.000 A 
ATOM     16  C   UNL     1       7.824   5.175  13.227  0.00  0.00    +0.000 A 
ATOM     17  C   UNL     1       7.152   5.083  14.447  0.00  0.00    +0.000 A 
ENDBRANCH   7  12
TORSDOF 1
ENDMDL
MODEL 5
REMARK VINA RESULT:      -6.5      0.319      1.209
REMARK  Name = 
REMARK  3 active torsions:
REMARK  status: ('A' for Active; 'I' for Inactive)
REMARK    1  A    between atoms: C_1  and  C_2
REMARK    2  A    between atoms: C_7  and  C_8
REMARK    3  A    between atoms: N_14  and  C_15
REMARK                            x       y       z     vdW  Elec       q    Type
REMARK                         _______ _______ _______ _____ _____    ______ ____
ROOT
ATOM      1  C   UNL     1       6.944   4.452  13.406  0.00  0.00    +0.000 C 
ATOM      2  C   UNL     1       6.589   4.542  14.863  0.00  0.00    +0.000 A 
ATOM      3  C   UNL     1       7.467   5.162  15.761  0.00  0.00    +0.000 A 
ATOM      4  C   UNL     1       7.132   5.248  17.118  0.00  0.00    +0.000 A 
ATOM      5  C   UNL     1       5.913   4.692  17.510  0.00  0.00    +0.000 A 
ATOM      6  N   UNL     1       5.299   4.602  18.732  0.00  0.00    +0.000 NA
ATOM      7  C   UNL     1       4.159   3.951  18.534  0.00  0.00    +0.000 A 
ATOM      8  N   UNL     1       4.008   3.671  17.184  0.00  0.00    +0.000 N 
ATOM      9  C   UNL     1       2.900   3.075  16.481  0.00  0.00    +0.000 C 
ATOM     10  C   UNL     1       5.131   4.108  16.531  0.00  0.00    +0.000 A 
ATOM     11  N   UNL     1       5.396   3.999  15.214  0.00  0.00    +0.000 NA
ENDROOT
BRANCH   7  12
ATOM     12  C   UNL     1       3.196   3.639  19.605  0.00  0.00    +0.000 A 
ATOM     13  C   UNL     1       3.494   2.622  20.524  0.00  0.00    +0.000 A 
ATOM     14  C   UNL     1       2.630   2.341  21.588  0.00  0.00    +0.000 A 
ATOM     15  C   UNL     1       1.460   3.077  21.749  0.00  0.00    +0.000 A 
ATOM     16  C   UNL     1       1.129   4.062  20.822  0.00  0.00    +0.000 A 
ATOM     17  C   UNL     1       1.975   4.310  19.739  0.00  0.00    +0.000 A 
ENDBRANCH   7  12
TORSDOF 1
ENDMDL
MODEL 6
REMARK VINA RESULT:      -6.5      1.524      2.661
REMARK  Name = 
REMARK  3 active torsions:
REMARK  status: ('A' for Active; 'I' for Inactive)
REMARK    1  A    between atoms: C_1  and  C_2
REMARK    2  A    between atoms: C_7  and  C_8
REMARK    3  A    between atoms: N_14  and  C_15
REMARK                            x       y       z     vdW  Elec       q    Type
REMARK                         _______ _______ _______ _____ _____    ______ ____
ROOT
ATOM      1  C   UNL     1       8.662   5.664  13.029  0.00  0.00    +0.000 C 
ATOM      2  C   UNL     1       7.480   5.144  13.797  0.00  0.00    +0.000 A 
ATOM      3  C   UNL     1       6.624   4.204  13.210  0.00  0.00    +0.000 A 
ATOM      4  C   UNL     1       5.525   3.717  13.929  0.00  0.00    +0.000 A 
ATOM      5  C   UNL     1       5.338   4.214  15.221  0.00  0.00    +0.000 A 
ATOM      6  N   UNL     1       4.382   3.958  16.169  0.00  0.00    +0.000 NA
ATOM      7  C   UNL     1       4.674   4.726  17.213  0.00  0.00    +0.000 A 
ATOM      8  N   UNL     1       5.841   5.431  16.964  0.00  0.00    +0.000 N 
ATOM      9  C   UNL     1       6.596   6.304  17.827  0.00  0.00    +0.000 C 
ATOM     10  C   UNL     1       6.252   5.137  15.690  0.00  0.00    +0.000 A 
ATOM     11  N   UNL     1       7.328   5.639  15.050  0.00  0.00    +0.000 NA
ENDROOT
BRANCH   7  12
ATOM     12  C   UNL     1       3.882   4.755  18.456  0.00  0.00    +0.000 A 
ATOM     13  C   UNL     1       3.118   5.893  18.758  0.00  0.00    +0.000 A 
ATOM     14  C   UNL     1       2.309   5.930  19.899  0.00  0.00    +0.000 A 
ATOM     15  C   UNL     1       2.249   4.830  20.748  0.00  0.00    +0.000 A 
ATOM     16  C   UNL     1       3.032   3.709  20.484  0.00  0.00    +0.000 A 
ATOM     17  C   UNL     1       3.869   3.693  19.367  0.00  0.00    +0.000 A 
ENDBRANCH   7  12
TORSDOF 1
ENDMDL
MODEL 7
REMARK VINA RESULT:      -6.5      3.638      6.638
REMARK  Name = 
REMARK  3 active torsions:
REMARK  status: ('A' for Active; 'I' for Inactive)
REMARK    1  A    between atoms: C_1  and  C_2
REMARK    2  A    between atoms: C_7  and  C_8
REMARK    3  A    between atoms: N_14  and  C_15
REMARK                            x       y       z     vdW  Elec       q    Type
REMARK                         _______ _______ _______ _____ _____    ______ ____
ROOT
ATOM      1  C   UNL     1       0.021   8.965  22.036  0.00  0.00    +0.000 C 
ATOM      2  C   UNL     1       0.802   8.747  20.772  0.00  0.00    +0.000 A 
ATOM      3  C   UNL     1       0.776   9.712  19.757  0.00  0.00    +0.000 A 
ATOM      4  C   UNL     1       1.508   9.509  18.581  0.00  0.00    +0.000 A 
ATOM      5  C   UNL     1       2.239   8.322  18.483  0.00  0.00    +0.000 A 
ATOM      6  N   UNL     1       3.039   7.821  17.489  0.00  0.00    +0.000 NA
ATOM      7  C   UNL     1       3.468   6.638  17.913  0.00  0.00    +0.000 A 
ATOM      8  N   UNL     1       2.995   6.400  19.195  0.00  0.00    +0.000 N 
ATOM      9  C   UNL     1       3.272   5.309  20.095  0.00  0.00    +0.000 C 
ATOM     10  C   UNL     1       2.188   7.448  19.552  0.00  0.00    +0.000 A 
ATOM     11  N   UNL     1       1.507   7.589  20.707  0.00  0.00    +0.000 NA
ENDROOT
BRANCH   7  12
ATOM     12  C   UNL     1       4.360   5.761  17.133  0.00  0.00    +0.000 A 
ATOM     13  C   UNL     1       5.494   6.309  16.514  0.00  0.00    +0.000 A 
ATOM     14  C   UNL     1       6.393   5.495  15.816  0.00  0.00    +0.000 A 
ATOM     15  C   UNL     1       6.172   4.124  15.733  0.00  0.00    +0.000 A 
ATOM     16  C   UNL     1       5.030   3.572  16.306  0.00  0.00    +0.000 A 
ATOM     17  C   UNL     1       4.115   4.394  16.966  0.00  0.00    +0.000 A 
ENDBRANCH   7  12
TORSDOF 1
ENDMDL
MODEL 8
REMARK VINA RESULT:      -6.4      4.759      7.027
REMARK  Name = 
REMARK  3 active torsions:
REMARK  status: ('A' for Active; 'I' for Inactive)
REMARK    1  A    between atoms: C_1  and  C_2
REMARK    2  A    between atoms: C_7  and  C_8
REMARK    3  A    between atoms: N_14  and  C_15
REMARK                            x       y       z     vdW  Elec       q    Type
REMARK                         _______ _______ _______ _____ _____    ______ ____
ROOT
ATOM      1  C   UNL     1      -0.024  12.312  20.744  0.00  0.00    +0.000 C 
ATOM      2  C   UNL     1       0.385  10.871  20.861  0.00  0.00    +0.000 A 
ATOM      3  C   UNL     1       0.118  10.161  22.038  0.00  0.00    +0.000 A 
ATOM      4  C   UNL     1       0.496   8.817  22.144  0.00  0.00    +0.000 A 
ATOM      5  C   UNL     1       1.138   8.247  21.042  0.00  0.00    +0.000 A 
ATOM      6  N   UNL     1       1.632   6.987  20.822  0.00  0.00    +0.000 NA
ATOM      7  C   UNL     1       2.162   6.999  19.604  0.00  0.00    +0.000 A 
ATOM      8  N   UNL     1       1.964   8.241  19.019  0.00  0.00    +0.000 N 
ATOM      9  C   UNL     1       2.271   8.694  17.686  0.00  0.00    +0.000 C 
ATOM     10  C   UNL     1       1.343   9.049  19.935  0.00  0.00    +0.000 A 
ATOM     11  N   UNL     1       1.000  10.343  19.773  0.00  0.00    +0.000 NA
ENDROOT
BRANCH   7  12
ATOM     12  C   UNL     1       2.808   5.831  18.980  0.00  0.00    +0.000 A 
ATOM     13  C   UNL     1       4.146   5.538  19.288  0.00  0.00    +0.000 A 
ATOM     14  C   UNL     1       4.771   4.403  18.761  0.00  0.00    +0.000 A 
ATOM     15  C   UNL     1       4.067   3.545  17.923  0.00  0.00    +0.000 A 
ATOM     16  C   UNL     1       2.752   3.844  17.575  0.00  0.00    +0.000 A 
ATOM     17  C   UNL     1       2.146   4.999  18.071  0.00  0.00    +0.000 A 
ENDBRANCH   7  12
TORSDOF 1
ENDMDL
MODEL 9
REMARK VINA RESULT:      -6.4      1.518      2.888
REMARK  Name = 
REMARK  3 active torsions:
REMARK  status: ('A' for Active; 'I' for Inactive)
REMARK    1  A    between atoms: C_1  and  C_2
REMARK    2  A    between atoms: C_7  and  C_8
REMARK    3  A    between atoms: N_14  and  C_15
REMARK                            x       y       z     vdW  Elec       q    Type
REMARK                         _______ _______ _______ _____ _____    ______ ____
ROOT
ATOM      1  C   UNL     1       8.686   5.676  13.044  0.00  0.00    +0.000 C 
ATOM      2  C   UNL     1       7.485   5.152  13.779  0.00  0.00    +0.000 A 
ATOM      3  C   UNL     1       6.635   4.228  13.161  0.00  0.00    +0.000 A 
ATOM      4  C   UNL     1       5.518   3.737  13.850  0.00  0.00    +0.000 A 
ATOM      5  C   UNL     1       5.309   4.214  15.146  0.00  0.00    +0.000 A 
ATOM      6  N   UNL     1       4.333   3.950  16.071  0.00  0.00    +0.000 NA
ATOM      7  C   UNL     1       4.609   4.699  17.132  0.00  0.00    +0.000 A 
ATOM      8  N   UNL     1       5.786   5.400  16.918  0.00  0.00    +0.000 N 
ATOM      9  C   UNL     1       6.529   6.254  17.810  0.00  0.00    +0.000 C 
ATOM     10  C   UNL     1       6.220   5.124  15.648  0.00  0.00    +0.000 A 
ATOM     11  N   UNL     1       7.311   5.628  15.037  0.00  0.00    +0.000 NA
ENDROOT
BRANCH   7  12
ATOM     12  C   UNL     1       3.793   4.714  18.360  0.00  0.00    +0.000 A 
ATOM     13  C   UNL     1       3.773   3.580  19.186  0.00  0.00    +0.000 A 
ATOM     14  C   UNL     1       3.057   3.582  20.389  0.00  0.00    +0.000 A 
ATOM     15  C   UNL     1       2.357   4.718  20.781  0.00  0.00    +0.000 A 
ATOM     16  C   UNL     1       2.333   5.837  19.952  0.00  0.00    +0.000 A 
ATOM     17  C   UNL     1       3.015   5.815  18.735  0.00  0.00    +0.000 A 
ENDBRANCH   7  12
TORSDOF 1
ENDMDL
