MODEL 1
REMARK VINA RESULT:      -9.0      0.000      0.000
REMARK  Name = 
REMARK  4 active torsions:
REMARK  status: ('A' for Active; 'I' for Inactive)
REMARK    1  A    between atoms: C_1  and  C_2
REMARK    2  A    between atoms: C_2  and  N_3
REMARK    3  A    between atoms: C_2  and  C_26
REMARK    4  A    between atoms: C_12  and  C_13
REMARK                            x       y       z     vdW  Elec       q    Type
REMARK                         _______ _______ _______ _____ _____    ______ ____
ROOT
ATOM      1  N   UNL     1      -0.942  14.217  19.148  0.00  0.00    +0.000 N 
ATOM      2  C   UNL     1      -0.126  13.141  19.378  0.00  0.00    +0.000 C 
ATOM      3  O   UNL     1       0.851  13.223  20.142  0.00  0.00    +0.000 OA
ATOM      4  N   UNL     1      -0.478  11.991  18.720  0.00  0.00    +0.000 N 
ATOM      5  C   UNL     1       0.342  10.847  18.854  0.00  0.00    +0.000 A 
ATOM      6  C   UNL     1       0.491  10.260  20.116  0.00  0.00    +0.000 A 
ATOM      7  C   UNL     1       1.175   9.040  20.135  0.00  0.00    +0.000 A 
ATOM      8  N   UNL     1       1.430   8.135  21.125  0.00  0.00    +0.000 N 
ATOM      9  N   UNL     1       2.092   7.037  20.718  0.00  0.00    +0.000 NA
ATOM     10  C   UNL     1       2.317   7.249  19.410  0.00  0.00    +0.000 A 
ATOM     11  C   UNL     1       1.735   8.487  18.989  0.00  0.00    +0.000 A 
ATOM     12  C   UNL     1       1.594   9.183  17.785  0.00  0.00    +0.000 A 
ATOM     13  N   UNL     1       0.864  10.327  17.723  0.00  0.00    +0.000 NA
ATOM     14  H   UNL     1      -1.710  14.136  18.496  0.00  0.00    +0.000 HD
ATOM     15  H   UNL     1      -0.888  12.124  17.811  0.00  0.00    +0.000 HD
ATOM     16  H   UNL     1       1.152   8.186  22.099  0.00  0.00    +0.000 HD
ENDROOT
BRANCH  10  17
ATOM     17  C   UNL     1       3.035   6.281  18.576  0.00  0.00    +0.000 A 
ATOM     18  C   UNL     1       2.704   4.919  18.601  0.00  0.00    +0.000 A 
ATOM     19  C   UNL     1       3.361   4.013  17.761  0.00  0.00    +0.000 A 
ATOM     20  C   UNL     1       4.365   4.459  16.903  0.00  0.00    +0.000 A 
ATOM     21  C   UNL     1       4.700   5.812  16.870  0.00  0.00    +0.000 A 
ATOM     22  C   UNL     1       4.052   6.714  17.712  0.00  0.00    +0.000 A 
ATOM     23  O   UNL     1       5.665   6.331  16.043  0.00  0.00    +0.000 OA
ATOM     24  C   UNL     1       6.011   5.413  15.000  0.00  0.00    +0.000 C 
ATOM     25  C   UNL     1       6.191   4.006  15.547  0.00  0.00    +0.000 C 
ATOM     26  O   UNL     1       4.970   3.516  16.114  0.00  0.00    +0.000 OA
ENDBRANCH  10  17
BRANCH   1  28
ATOM     27  C   UNL     1      -1.919  16.116  20.419  0.00  0.00    +0.000 C 
ATOM     28  C   UNL     1      -0.665  15.506  19.773  0.00  0.00    +0.000 C 
BRANCH  28  29
ATOM     29  C   UNL     1      -0.034  16.474  18.783  0.00  0.00    +0.000 A 
ATOM     30  C   UNL     1       1.356  16.495  18.581  0.00  0.00    +0.000 A 
ATOM     31  C   UNL     1       1.934  17.355  17.644  0.00  0.00    +0.000 A 
ATOM     32  C   UNL     1       1.132  18.217  16.901  0.00  0.00    +0.000 A 
ATOM     33  C   UNL     1      -0.247  18.220  17.097  0.00  0.00    +0.000 A 
ATOM     34  C   UNL     1      -0.827  17.358  18.033  0.00  0.00    +0.000 A 
ENDBRANCH  28  29
ENDBRANCH   1  28
TORSDOF 3
ENDMDL
MODEL 2
REMARK VINA RESULT:      -8.9      3.437      5.099
REMARK  Name = 
REMARK  4 active torsions:
REMARK  status: ('A' for Active; 'I' for Inactive)
REMARK    1  A    between atoms: C_1  and  C_2
REMARK    2  A    between atoms: C_2  and  N_3
REMARK    3  A    between atoms: C_2  and  C_26
REMARK    4  A    between atoms: C_12  and  C_13
REMARK                            x       y       z     vdW  Elec       q    Type
REMARK                         _______ _______ _______ _____ _____    ______ ____
ROOT
ATOM      1  N   UNL     1      -1.897  13.281  22.071  0.00  0.00    +0.000 N 
ATOM      2  C   UNL     1      -1.427  12.315  21.219  0.00  0.00    +0.000 C 
ATOM      3  O   UNL     1      -2.054  11.999  20.194  0.00  0.00    +0.000 OA
ATOM      4  N   UNL     1      -0.231  11.752  21.580  0.00  0.00    +0.000 N 
ATOM      5  C   UNL     1       0.299  10.707  20.789  0.00  0.00    +0.000 A 
ATOM      6  C   UNL     1       0.650  10.970  19.460  0.00  0.00    +0.000 A 
ATOM      7  C   UNL     1       1.323   9.936  18.800  0.00  0.00    +0.000 A 
ATOM      8  N   UNL     1       1.902   9.845  17.566  0.00  0.00    +0.000 N 
ATOM      9  N   UNL     1       2.506   8.668  17.321  0.00  0.00    +0.000 NA
ATOM     10  C   UNL     1       2.279   7.939  18.428  0.00  0.00    +0.000 A 
ATOM     11  C   UNL     1       1.559   8.704  19.400  0.00  0.00    +0.000 A 
ATOM     12  C   UNL     1       1.109   8.512  20.710  0.00  0.00    +0.000 A 
ATOM     13  N   UNL     1       0.527   9.526  21.402  0.00  0.00    +0.000 NA
ATOM     14  H   UNL     1      -1.388  13.497  22.917  0.00  0.00    +0.000 HD
ATOM     15  H   UNL     1      -0.078  11.664  22.570  0.00  0.00    +0.000 HD
ATOM     16  H   UNL     1       1.952  10.561  16.850  0.00  0.00    +0.000 HD
ENDROOT
BRANCH  10  17
ATOM     17  C   UNL     1       2.767   6.564  18.568  0.00  0.00    +0.000 A 
ATOM     18  C   UNL     1       3.966   6.287  19.240  0.00  0.00    +0.000 A 
ATOM     19  C   UNL     1       4.394   4.966  19.414  0.00  0.00    +0.000 A 
ATOM     20  C   UNL     1       3.635   3.915  18.904  0.00  0.00    +0.000 A 
ATOM     21  C   UNL     1       2.439   4.180  18.236  0.00  0.00    +0.000 A 
ATOM     22  C   UNL     1       2.017   5.496  18.055  0.00  0.00    +0.000 A 
ATOM     23  O   UNL     1       1.629   3.200  17.719  0.00  0.00    +0.000 OA
ATOM     24  C   UNL     1       1.960   1.912  18.250  0.00  0.00    +0.000 C 
ATOM     25  C   UNL     1       3.464   1.694  18.259  0.00  0.00    +0.000 C 
ATOM     26  O   UNL     1       4.117   2.648  19.106  0.00  0.00    +0.000 OA
ENDBRANCH  10  17
BRANCH   1  28
ATOM     27  C   UNL     1      -3.050  15.475  21.886  0.00  0.00    +0.000 C 
ATOM     28  C   UNL     1      -3.170  13.944  21.811  0.00  0.00    +0.000 C 
BRANCH  28  29
ATOM     29  C   UNL     1      -4.258  13.436  22.746  0.00  0.00    +0.000 A 
ATOM     30  C   UNL     1      -5.616  13.620  22.438  0.00  0.00    +0.000 A 
ATOM     31  C   UNL     1      -6.617  13.119  23.275  0.00  0.00    +0.000 A 
ATOM     32  C   UNL     1      -6.276  12.436  24.438  0.00  0.00    +0.000 A 
ATOM     33  C   UNL     1      -4.935  12.255  24.767  0.00  0.00    +0.000 A 
ATOM     34  C   UNL     1      -3.932  12.753  23.929  0.00  0.00    +0.000 A 
ENDBRANCH  28  29
ENDBRANCH   1  28
TORSDOF 3
ENDMDL
MODEL 3
REMARK VINA RESULT:      -8.7      3.571      5.484
REMARK  Name = 
REMARK  4 active torsions:
REMARK  status: ('A' for Active; 'I' for Inactive)
REMARK    1  A    between atoms: C_1  and  C_2
REMARK    2  A    between atoms: C_2  and  N_3
REMARK    3  A    between atoms: C_2  and  C_26
REMARK    4  A    between atoms: C_12  and  C_13
REMARK                            x       y       z     vdW  Elec       q    Type
REMARK                         _______ _______ _______ _____ _____    ______ ____
ROOT
ATOM      1  N   UNL     1      -3.104  13.478  21.907  0.00  0.00    +0.000 N 
ATOM      2  C   UNL     1      -2.452  12.597  21.083  0.00  0.00    +0.000 C 
ATOM      3  O   UNL     1      -2.899  12.314  19.959  0.00  0.00    +0.000 OA
ATOM      4  N   UNL     1      -1.287  12.081  21.588  0.00  0.00    +0.000 N 
ATOM      5  C   UNL     1      -0.579  11.120  20.828  0.00  0.00    +0.000 A 
ATOM      6  C   UNL     1      -0.056  11.488  19.584  0.00  0.00    +0.000 A 
ATOM      7  C   UNL     1       0.774  10.539  18.976  0.00  0.00    +0.000 A 
ATOM      8  N   UNL     1       1.532  10.561  17.840  0.00  0.00    +0.000 N 
ATOM      9  N   UNL     1       2.241   9.438  17.624  0.00  0.00    +0.000 NA
ATOM     10  C   UNL     1       1.902   8.628  18.642  0.00  0.00    +0.000 A 
ATOM     11  C   UNL     1       0.999   9.286  19.535  0.00  0.00    +0.000 A 
ATOM     12  C   UNL     1       0.375   8.985  20.749  0.00  0.00    +0.000 A 
ATOM     13  N   UNL     1      -0.368   9.917  21.402  0.00  0.00    +0.000 NA
ATOM     14  H   UNL     1      -2.740  13.667  22.830  0.00  0.00    +0.000 HD
ATOM     15  H   UNL     1      -1.276  11.937  22.583  0.00  0.00    +0.000 HD
ATOM     16  H   UNL     1       1.640  11.324  17.181  0.00  0.00    +0.000 HD
ENDROOT
BRANCH  10  17
ATOM     17  C   UNL     1       2.453   7.277  18.777  0.00  0.00    +0.000 A 
ATOM     18  C   UNL     1       3.501   6.837  17.956  0.00  0.00    +0.000 A 
ATOM     19  C   UNL     1       4.054   5.563  18.131  0.00  0.00    +0.000 A 
ATOM     20  C   UNL     1       3.553   4.715  19.116  0.00  0.00    +0.000 A 
ATOM     21  C   UNL     1       2.512   5.144  19.940  0.00  0.00    +0.000 A 
ATOM     22  C   UNL     1       1.955   6.409  19.760  0.00  0.00    +0.000 A 
ATOM     23  O   UNL     1       1.974   4.374  20.941  0.00  0.00    +0.000 OA
ATOM     24  C   UNL     1       2.824   3.268  21.265  0.00  0.00    +0.000 C 
ATOM     25  C   UNL     1       3.336   2.585  20.007  0.00  0.00    +0.000 C 
ATOM     26  O   UNL     1       4.138   3.480  19.227  0.00  0.00    +0.000 OA
ENDBRANCH  10  17
BRANCH   1  28
ATOM     27  C   UNL     1      -4.435  15.576  21.858  0.00  0.00    +0.000 C 
ATOM     28  C   UNL     1      -4.366  14.084  21.495  0.00  0.00    +0.000 C 
BRANCH  28  29
ATOM     29  C   UNL     1      -5.554  13.327  22.070  0.00  0.00    +0.000 A 
ATOM     30  C   UNL     1      -5.875  13.420  23.435  0.00  0.00    +0.000 A 
ATOM     31  C   UNL     1      -6.989  12.758  23.958  0.00  0.00    +0.000 A 
ATOM     32  C   UNL     1      -7.793  11.983  23.127  0.00  0.00    +0.000 A 
ATOM     33  C   UNL     1      -7.484  11.869  21.774  0.00  0.00    +0.000 A 
ATOM     34  C   UNL     1      -6.371  12.533  21.249  0.00  0.00    +0.000 A 
ENDBRANCH  28  29
ENDBRANCH   1  28
TORSDOF 3
ENDMDL
MODEL 4
REMARK VINA RESULT:      -8.6      3.477      5.056
REMARK  Name = 
REMARK  4 active torsions:
REMARK  status: ('A' for Active; 'I' for Inactive)
REMARK    1  A    between atoms: C_1  and  C_2
REMARK    2  A    between atoms: C_2  and  N_3
REMARK    3  A    between atoms: C_2  and  C_26
REMARK    4  A    between atoms: C_12  and  C_13
REMARK                            x       y       z     vdW  Elec       q    Type
REMARK                         _______ _______ _______ _____ _____    ______ ____
ROOT
ATOM      1  N   UNL     1      -2.499  13.320  21.622  0.00  0.00    +0.000 N 
ATOM      2  C   UNL     1      -1.911  12.382  20.814  0.00  0.00    +0.000 C 
ATOM      3  O   UNL     1      -2.392  12.093  19.705  0.00  0.00    +0.000 OA
ATOM      4  N   UNL     1      -0.768  11.816  21.315  0.00  0.00    +0.000 N 
ATOM      5  C   UNL     1      -0.127  10.797  20.572  0.00  0.00    +0.000 A 
ATOM      6  C   UNL     1       0.395  11.101  19.310  0.00  0.00    +0.000 A 
ATOM      7  C   UNL     1       1.160  10.092  18.716  0.00  0.00    +0.000 A 
ATOM      8  N   UNL     1       1.899  10.040  17.568  0.00  0.00    +0.000 N 
ATOM      9  N   UNL     1       2.542   8.874  17.373  0.00  0.00    +0.000 NA
ATOM     10  C   UNL     1       2.176   8.112  18.418  0.00  0.00    +0.000 A 
ATOM     11  C   UNL     1       1.326   8.844  19.307  0.00  0.00    +0.000 A 
ATOM     12  C   UNL     1       0.707   8.611  20.539  0.00  0.00    +0.000 A 
ATOM     13  N   UNL     1       0.029   9.600  21.176  0.00  0.00    +0.000 NA
ATOM     14  H   UNL     1      -2.110  13.513  22.534  0.00  0.00    +0.000 HD
ATOM     15  H   UNL     1      -0.747  11.699  22.314  0.00  0.00    +0.000 HD
ATOM     16  H   UNL     1       2.038  10.777  16.886  0.00  0.00    +0.000 HD
ENDROOT
BRANCH  10  17
ATOM     17  C   UNL     1       2.654   6.737  18.583  0.00  0.00    +0.000 A 
ATOM     18  C   UNL     1       3.813   6.457  19.322  0.00  0.00    +0.000 A 
ATOM     19  C   UNL     1       4.229   5.135  19.518  0.00  0.00    +0.000 A 
ATOM     20  C   UNL     1       3.500   4.085  18.962  0.00  0.00    +0.000 A 
ATOM     21  C   UNL     1       2.345   4.353  18.227  0.00  0.00    +0.000 A 
ATOM     22  C   UNL     1       1.935   5.670  18.025  0.00  0.00    +0.000 A 
ATOM     23  O   UNL     1       1.565   3.375  17.662  0.00  0.00    +0.000 OA
ATOM     24  C   UNL     1       1.864   2.086  18.208  0.00  0.00    +0.000 C 
ATOM     25  C   UNL     1       3.365   1.866  18.303  0.00  0.00    +0.000 C 
ATOM     26  O   UNL     1       3.969   2.818  19.188  0.00  0.00    +0.000 OA
ENDBRANCH  10  17
BRANCH   1  28
ATOM     27  C   UNL     1      -3.675  15.502  21.441  0.00  0.00    +0.000 C 
ATOM     28  C   UNL     1      -3.733  13.983  21.213  0.00  0.00    +0.000 C 
BRANCH  28  29
ATOM     29  C   UNL     1      -4.942  13.373  21.907  0.00  0.00    +0.000 A 
ATOM     30  C   UNL     1      -5.142  13.542  23.288  0.00  0.00    +0.000 A 
ATOM     31  C   UNL     1      -6.272  13.018  23.920  0.00  0.00    +0.000 A 
ATOM     32  C   UNL     1      -7.215  12.306  23.184  0.00  0.00    +0.000 A 
ATOM     33  C   UNL     1      -7.028  12.117  21.817  0.00  0.00    +0.000 A 
ATOM     34  C   UNL     1      -5.899  12.644  21.182  0.00  0.00    +0.000 A 
ENDBRANCH  28  29
ENDBRANCH   1  28
TORSDOF 3
ENDMDL
MODEL 5
REMARK VINA RESULT:      -8.5      2.482      3.477
REMARK  Name = 
REMARK  4 active torsions:
REMARK  status: ('A' for Active; 'I' for Inactive)
REMARK    1  A    between atoms: C_1  and  C_2
REMARK    2  A    between atoms: C_2  and  N_3
REMARK    3  A    between atoms: C_2  and  C_26
REMARK    4  A    between atoms: C_12  and  C_13
REMARK                            x       y       z     vdW  Elec       q    Type
REMARK                         _______ _______ _______ _____ _____    ______ ____
ROOT
ATOM      1  N   UNL     1      -1.088  11.422  21.269  0.00  0.00    +0.000 N 
ATOM      2  C   UNL     1      -0.027  10.571  21.096  0.00  0.00    +0.000 C 
ATOM      3  O   UNL     1       0.846  10.443  21.971  0.00  0.00    +0.000 OA
ATOM      4  N   UNL     1      -0.020   9.882  19.911  0.00  0.00    +0.000 N 
ATOM      5  C   UNL     1       1.068   9.026  19.625  0.00  0.00    +0.000 A 
ATOM      6  C   UNL     1       1.295   7.917  20.447  0.00  0.00    +0.000 A 
ATOM      7  C   UNL     1       2.279   7.028  20.000  0.00  0.00    +0.000 A 
ATOM      8  N   UNL     1       2.711   5.815  20.456  0.00  0.00    +0.000 N 
ATOM      9  N   UNL     1       3.666   5.244  19.699  0.00  0.00    +0.000 NA
ATOM     10  C   UNL     1       3.900   6.141  18.725  0.00  0.00    +0.000 A 
ATOM     11  C   UNL     1       3.033   7.271  18.857  0.00  0.00    +0.000 A 
ATOM     12  C   UNL     1       2.779   8.443  18.138  0.00  0.00    +0.000 A 
ATOM     13  N   UNL     1       1.774   9.281  18.503  0.00  0.00    +0.000 NA
ATOM     14  H   UNL     1      -1.767  11.536  20.529  0.00  0.00    +0.000 HD
ATOM     15  H   UNL     1      -0.397  10.379  19.122  0.00  0.00    +0.000 HD
ATOM     16  H   UNL     1       2.374   5.299  21.261  0.00  0.00    +0.000 HD
ENDROOT
BRANCH  10  17
ATOM     17  C   UNL     1       4.898   5.909  17.678  0.00  0.00    +0.000 A 
ATOM     18  C   UNL     1       6.235   6.297  17.853  0.00  0.00    +0.000 A 
ATOM     19  C   UNL     1       7.189   6.021  16.867  0.00  0.00    +0.000 A 
ATOM     20  C   UNL     1       6.812   5.371  15.694  0.00  0.00    +0.000 A 
ATOM     21  C   UNL     1       5.486   4.979  15.511  0.00  0.00    +0.000 A 
ATOM     22  C   UNL     1       4.533   5.261  16.488  0.00  0.00    +0.000 A 
ATOM     23  O   UNL     1       5.040   4.322  14.392  0.00  0.00    +0.000 OA
ATOM     24  C   UNL     1       6.127   3.783  13.631  0.00  0.00    +0.000 C 
ATOM     25  C   UNL     1       7.251   4.797  13.490  0.00  0.00    +0.000 C 
ATOM     26  O   UNL     1       7.798   5.140  14.769  0.00  0.00    +0.000 OA
ENDBRANCH  10  17
BRANCH   1  28
ATOM     27  C   UNL     1      -2.535  11.991  23.207  0.00  0.00    +0.000 C 
ATOM     28  C   UNL     1      -1.203  12.229  22.479  0.00  0.00    +0.000 C 
BRANCH  28  29
ATOM     29  C   UNL     1      -1.002  13.707  22.177  0.00  0.00    +0.000 A 
ATOM     30  C   UNL     1      -2.010  14.643  22.461  0.00  0.00    +0.000 A 
ATOM     31  C   UNL     1      -1.813  16.006  22.222  0.00  0.00    +0.000 A 
ATOM     32  C   UNL     1      -0.609  16.453  21.686  0.00  0.00    +0.000 A 
ATOM     33  C   UNL     1       0.397  15.538  21.386  0.00  0.00    +0.000 A 
ATOM     34  C   UNL     1       0.203  14.175  21.627  0.00  0.00    +0.000 A 
ENDBRANCH  28  29
ENDBRANCH   1  28
TORSDOF 3
ENDMDL
MODEL 6
REMARK VINA RESULT:      -8.5      1.057      1.460
REMARK  Name = 
REMARK  4 active torsions:
REMARK  status: ('A' for Active; 'I' for Inactive)
REMARK    1  A    between atoms: C_1  and  C_2
REMARK    2  A    between atoms: C_2  and  N_3
REMARK    3  A    between atoms: C_2  and  C_26
REMARK    4  A    between atoms: C_12  and  C_13
REMARK                            x       y       z     vdW  Elec       q    Type
REMARK                         _______ _______ _______ _____ _____    ______ ____
ROOT
ATOM      1  N   UNL     1      -0.929  13.277  20.000  0.00  0.00    +0.000 N 
ATOM      2  C   UNL     1      -0.049  12.228  20.069  0.00  0.00    +0.000 C 
ATOM      3  O   UNL     1       0.931  12.258  20.832  0.00  0.00    +0.000 OA
ATOM      4  N   UNL     1      -0.343  11.166  19.254  0.00  0.00    +0.000 N 
ATOM      5  C   UNL     1       0.544  10.065  19.218  0.00  0.00    +0.000 A 
ATOM      6  C   UNL     1       0.742   9.314  20.381  0.00  0.00    +0.000 A 
ATOM      7  C   UNL     1       1.496   8.145  20.222  0.00  0.00    +0.000 A 
ATOM      8  N   UNL     1       1.816   7.124  21.070  0.00  0.00    +0.000 N 
ATOM      9  N   UNL     1       2.535   6.137  20.506  0.00  0.00    +0.000 NA
ATOM     10  C   UNL     1       2.729   6.548  19.241  0.00  0.00    +0.000 A 
ATOM     11  C   UNL     1       2.072   7.797  19.006  0.00  0.00    +0.000 A 
ATOM     12  C   UNL     1       1.874   8.649  17.915  0.00  0.00    +0.000 A 
ATOM     13  N   UNL     1       1.079   9.745  18.022  0.00  0.00    +0.000 NA
ATOM     14  H   UNL     1      -1.699  13.245  19.347  0.00  0.00    +0.000 HD
ATOM     15  H   UNL     1      -0.772  11.404  18.376  0.00  0.00    +0.000 HD
ATOM     16  H   UNL     1       1.548   7.018  22.043  0.00  0.00    +0.000 HD
ENDROOT
BRANCH  10  17
ATOM     17  C   UNL     1       3.491   5.753  18.273  0.00  0.00    +0.000 A 
ATOM     18  C   UNL     1       3.150   4.420  18.002  0.00  0.00    +0.000 A 
ATOM     19  C   UNL     1       3.851   3.689  17.037  0.00  0.00    +0.000 A 
ATOM     20  C   UNL     1       4.909   4.279  16.348  0.00  0.00    +0.000 A 
ATOM     21  C   UNL     1       5.256   5.605  16.609  0.00  0.00    +0.000 A 
ATOM     22  C   UNL     1       4.563   6.331  17.576  0.00  0.00    +0.000 A 
ATOM     23  O   UNL     1       6.274   6.261  15.963  0.00  0.00    +0.000 OA
ATOM     24  C   UNL     1       6.678   5.565  14.779  0.00  0.00    +0.000 C 
ATOM     25  C   UNL     1       6.813   4.073  15.040  0.00  0.00    +0.000 C 
ATOM     26  O   UNL     1       5.556   3.502  15.422  0.00  0.00    +0.000 OA
ENDBRANCH  10  17
BRANCH   1  28
ATOM     27  C   UNL     1      -1.561  14.466  22.089  0.00  0.00    +0.000 C 
ATOM     28  C   UNL     1      -0.718  14.477  20.804  0.00  0.00    +0.000 C 
BRANCH  28  29
ATOM     29  C   UNL     1      -0.979  15.736  19.991  0.00  0.00    +0.000 A 
ATOM     30  C   UNL     1      -0.329  15.949  18.763  0.00  0.00    +0.000 A 
ATOM     31  C   UNL     1      -0.596  17.085  17.996  0.00  0.00    +0.000 A 
ATOM     32  C   UNL     1      -1.509  18.034  18.449  0.00  0.00    +0.000 A 
ATOM     33  C   UNL     1      -2.153  17.847  19.669  0.00  0.00    +0.000 A 
ATOM     34  C   UNL     1      -1.889  16.709  20.437  0.00  0.00    +0.000 A 
ENDBRANCH  28  29
ENDBRANCH   1  28
TORSDOF 3
ENDMDL
MODEL 7
REMARK VINA RESULT:      -8.4      3.680     11.152
REMARK  Name = 
REMARK  4 active torsions:
REMARK  status: ('A' for Active; 'I' for Inactive)
REMARK    1  A    between atoms: C_1  and  C_2
REMARK    2  A    between atoms: C_2  and  N_3
REMARK    3  A    between atoms: C_2  and  C_26
REMARK    4  A    between atoms: C_12  and  C_13
REMARK                            x       y       z     vdW  Elec       q    Type
REMARK                         _______ _______ _______ _____ _____    ______ ____
ROOT
ATOM      1  N   UNL     1       2.285   7.849  17.997  0.00  0.00    +0.000 N 
ATOM      2  C   UNL     1       1.699   8.661  18.933  0.00  0.00    +0.000 C 
ATOM      3  O   UNL     1       1.939   8.525  20.145  0.00  0.00    +0.000 OA
ATOM      4  N   UNL     1       0.857   9.618  18.430  0.00  0.00    +0.000 N 
ATOM      5  C   UNL     1       0.165  10.462  19.329  0.00  0.00    +0.000 A 
ATOM      6  C   UNL     1       0.896  11.322  20.155  0.00  0.00    +0.000 A 
ATOM      7  C   UNL     1       0.138  12.241  20.888  0.00  0.00    +0.000 A 
ATOM      8  N   UNL     1       0.477  13.282  21.705  0.00  0.00    +0.000 N 
ATOM      9  N   UNL     1      -0.571  13.971  22.192  0.00  0.00    +0.000 NA
ATOM     10  C   UNL     1      -1.648  13.329  21.704  0.00  0.00    +0.000 A 
ATOM     11  C   UNL     1      -1.252  12.247  20.855  0.00  0.00    +0.000 A 
ATOM     12  C   UNL     1      -1.896  11.302  20.052  0.00  0.00    +0.000 A 
ATOM     13  N   UNL     1      -1.183  10.453  19.267  0.00  0.00    +0.000 NA
ATOM     14  H   UNL     1       2.048   7.955  17.020  0.00  0.00    +0.000 HD
ATOM     15  H   UNL     1       0.344   9.350  17.607  0.00  0.00    +0.000 HD
ATOM     16  H   UNL     1       1.408  13.601  21.950  0.00  0.00    +0.000 HD
ENDROOT
BRANCH  10  17
ATOM     17  C   UNL     1      -3.015  13.760  22.010  0.00  0.00    +0.000 A 
ATOM     18  C   UNL     1      -3.520  14.971  21.516  0.00  0.00    +0.000 A 
ATOM     19  C   UNL     1      -4.845  15.344  21.770  0.00  0.00    +0.000 A 
ATOM     20  C   UNL     1      -5.668  14.519  22.535  0.00  0.00    +0.000 A 
ATOM     21  C   UNL     1      -5.174  13.312  23.030  0.00  0.00    +0.000 A 
ATOM     22  C   UNL     1      -3.853  12.943  22.784  0.00  0.00    +0.000 A 
ATOM     23  O   UNL     1      -5.925  12.439  23.777  0.00  0.00    +0.000 OA
ATOM     24  C   UNL     1      -7.323  12.731  23.677  0.00  0.00    +0.000 C 
ATOM     25  C   UNL     1      -7.581  14.223  23.811  0.00  0.00    +0.000 C 
ATOM     26  O   UNL     1      -6.950  14.951  22.750  0.00  0.00    +0.000 OA
ENDBRANCH  10  17
BRANCH   1  28
ATOM     27  C   UNL     1       4.231   6.458  17.322  0.00  0.00    +0.000 C 
ATOM     28  C   UNL     1       3.188   6.778  18.404  0.00  0.00    +0.000 C 
BRANCH  28  29
ATOM     29  C   UNL     1       2.415   5.529  18.802  0.00  0.00    +0.000 A 
ATOM     30  C   UNL     1       1.960   4.623  17.829  0.00  0.00    +0.000 A 
ATOM     31  C   UNL     1       1.285   3.455  18.194  0.00  0.00    +0.000 A 
ATOM     32  C   UNL     1       1.044   3.179  19.537  0.00  0.00    +0.000 A 
ATOM     33  C   UNL     1       1.476   4.071  20.515  0.00  0.00    +0.000 A 
ATOM     34  C   UNL     1       2.154   5.239  20.151  0.00  0.00    +0.000 A 
ENDBRANCH  28  29
ENDBRANCH   1  28
TORSDOF 3
ENDMDL
MODEL 8
REMARK VINA RESULT:      -8.4      3.566     11.050
REMARK  Name = 
REMARK  4 active torsions:
REMARK  status: ('A' for Active; 'I' for Inactive)
REMARK    1  A    between atoms: C_1  and  C_2
REMARK    2  A    between atoms: C_2  and  N_3
REMARK    3  A    between atoms: C_2  and  C_26
REMARK    4  A    between atoms: C_12  and  C_13
REMARK                            x       y       z     vdW  Elec       q    Type
REMARK                         _______ _______ _______ _____ _____    ______ ____
ROOT
ATOM      1  N   UNL     1       2.526   7.503  18.058  0.00  0.00    +0.000 N 
ATOM      2  C   UNL     1       1.842   8.338  18.902  0.00  0.00    +0.000 C 
ATOM      3  O   UNL     1       1.908   8.204  20.136  0.00  0.00    +0.000 OA
ATOM      4  N   UNL     1       1.108   9.317  18.284  0.00  0.00    +0.000 N 
ATOM      5  C   UNL     1       0.325  10.188  19.077  0.00  0.00    +0.000 A 
ATOM      6  C   UNL     1       0.961  11.032  19.993  0.00  0.00    +0.000 A 
ATOM      7  C   UNL     1       0.138  11.979  20.612  0.00  0.00    +0.000 A 
ATOM      8  N   UNL     1       0.393  13.014  21.465  0.00  0.00    +0.000 N 
ATOM      9  N   UNL     1      -0.691  13.738  21.800  0.00  0.00    +0.000 NA
ATOM     10  C   UNL     1      -1.708  13.126  21.170  0.00  0.00    +0.000 A 
ATOM     11  C   UNL     1      -1.233  12.027  20.388  0.00  0.00    +0.000 A 
ATOM     12  C   UNL     1      -1.789  11.096  19.505  0.00  0.00    +0.000 A 
ATOM     13  N   UNL     1      -1.002  10.220  18.829  0.00  0.00    +0.000 NA
ATOM     14  H   UNL     1       2.430   7.608  17.058  0.00  0.00    +0.000 HD
ATOM     15  H   UNL     1       0.705   9.059  17.400  0.00  0.00    +0.000 HD
ATOM     16  H   UNL     1       1.290  13.307  21.835  0.00  0.00    +0.000 HD
ENDROOT
BRANCH  10  17
ATOM     17  C   UNL     1      -3.091  13.600  21.283  0.00  0.00    +0.000 A 
ATOM     18  C   UNL     1      -3.428  14.928  20.981  0.00  0.00    +0.000 A 
ATOM     19  C   UNL     1      -4.760  15.353  21.041  0.00  0.00    +0.000 A 
ATOM     20  C   UNL     1      -5.761  14.461  21.419  0.00  0.00    +0.000 A 
ATOM     21  C   UNL     1      -5.436  13.138  21.720  0.00  0.00    +0.000 A 
ATOM     22  C   UNL     1      -4.108  12.715  21.669  0.00  0.00    +0.000 A 
ATOM     23  O   UNL     1      -6.365  12.196  22.085  0.00  0.00    +0.000 OA
ATOM     24  C   UNL     1      -7.696  12.624  21.774  0.00  0.00    +0.000 C 
ATOM     25  C   UNL     1      -7.915  14.071  22.185  0.00  0.00    +0.000 C 
ATOM     26  O   UNL     1      -7.041  14.948  21.463  0.00  0.00    +0.000 OA
ENDBRANCH  10  17
BRANCH   1  28
ATOM     27  C   UNL     1       4.478   6.021  17.644  0.00  0.00    +0.000 C 
ATOM     28  C   UNL     1       3.330   6.407  18.590  0.00  0.00    +0.000 C 
BRANCH  28  29
ATOM     29  C   UNL     1       2.465   5.199  18.919  0.00  0.00    +0.000 A 
ATOM     30  C   UNL     1       2.126   4.897  20.249  0.00  0.00    +0.000 A 
ATOM     31  C   UNL     1       1.299   3.812  20.551  0.00  0.00    +0.000 A 
ATOM     32  C   UNL     1       0.807   3.004  19.529  0.00  0.00    +0.000 A 
ATOM     33  C   UNL     1       1.143   3.280  18.206  0.00  0.00    +0.000 A 
ATOM     34  C   UNL     1       1.969   4.367  17.902  0.00  0.00    +0.000 A 
ENDBRANCH  28  29
ENDBRANCH   1  28
TORSDOF 3
ENDMDL
MODEL 9
REMARK VINA RESULT:      -8.3      1.657      2.537
REMARK  Name = 
REMARK  4 active torsions:
REMARK  status: ('A' for Active; 'I' for Inactive)
REMARK    1  A    between atoms: C_1  and  C_2
REMARK    2  A    between atoms: C_2  and  N_3
REMARK    3  A    between atoms: C_2  and  C_26
REMARK    4  A    between atoms: C_12  and  C_13
REMARK                            x       y       z     vdW  Elec       q    Type
REMARK                         _______ _______ _______ _____ _____    ______ ____
ROOT
ATOM      1  N   UNL     1      -1.744  15.126  19.941  0.00  0.00    +0.000 N 
ATOM      2  C   UNL     1      -0.889  14.076  20.154  0.00  0.00    +0.000 C 
ATOM      3  O   UNL     1       0.231  14.249  20.663  0.00  0.00    +0.000 OA
ATOM      4  N   UNL     1      -1.370  12.848  19.779  0.00  0.00    +0.000 N 
ATOM      5  C   UNL     1      -0.531  11.717  19.910  0.00  0.00    +0.000 A 
ATOM      6  C   UNL     1      -0.105  11.330  21.185  0.00  0.00    +0.000 A 
ATOM      7  C   UNL     1       0.576  10.109  21.248  0.00  0.00    +0.000 A 
ATOM      8  N   UNL     1       1.049   9.362  22.289  0.00  0.00    +0.000 N 
ATOM      9  N   UNL     1       1.613   8.196  21.925  0.00  0.00    +0.000 NA
ATOM     10  C   UNL     1       1.543   8.195  20.583  0.00  0.00    +0.000 A 
ATOM     11  C   UNL     1       0.874   9.369  20.109  0.00  0.00    +0.000 A 
ATOM     12  C   UNL     1       0.465   9.872  18.871  0.00  0.00    +0.000 A 
ATOM     13  N   UNL     1      -0.268  11.012  18.789  0.00  0.00    +0.000 NA
ATOM     14  H   UNL     1      -2.636  14.966  19.494  0.00  0.00    +0.000 HD
ATOM     15  H   UNL     1      -1.970  12.849  18.973  0.00  0.00    +0.000 HD
ATOM     16  H   UNL     1       0.992   9.572  23.279  0.00  0.00    +0.000 HD
ENDROOT
BRANCH  10  17
ATOM     17  C   UNL     1       2.067   7.089  19.776  0.00  0.00    +0.000 A 
ATOM     18  C   UNL     1       2.785   7.331  18.596  0.00  0.00    +0.000 A 
ATOM     19  C   UNL     1       3.327   6.269  17.864  0.00  0.00    +0.000 A 
ATOM     20  C   UNL     1       3.139   4.957  18.296  0.00  0.00    +0.000 A 
ATOM     21  C   UNL     1       2.427   4.706  19.470  0.00  0.00    +0.000 A 
ATOM     22  C   UNL     1       1.881   5.764  20.195  0.00  0.00    +0.000 A 
ATOM     23  O   UNL     1       2.213   3.446  19.969  0.00  0.00    +0.000 OA
ATOM     24  C   UNL     1       3.088   2.487  19.363  0.00  0.00    +0.000 C 
ATOM     25  C   UNL     1       3.153   2.680  17.857  0.00  0.00    +0.000 C 
ATOM     26  O   UNL     1       3.691   3.966  17.527  0.00  0.00    +0.000 OA
ENDBRANCH  10  17
BRANCH   1  28
ATOM     27  C   UNL     1      -2.521  17.318  20.818  0.00  0.00    +0.000 C 
ATOM     28  C   UNL     1      -1.345  16.488  20.279  0.00  0.00    +0.000 C 
BRANCH  28  29
ATOM     29  C   UNL     1      -0.688  17.179  19.093  0.00  0.00    +0.000 A 
ATOM     30  C   UNL     1      -1.445  17.962  18.205  0.00  0.00    +0.000 A 
ATOM     31  C   UNL     1      -0.838  18.631  17.139  0.00  0.00    +0.000 A 
ATOM     32  C   UNL     1       0.535  18.518  16.937  0.00  0.00    +0.000 A 
ATOM     33  C   UNL     1       1.300  17.736  17.798  0.00  0.00    +0.000 A 
ATOM     34  C   UNL     1       0.694  17.069  18.867  0.00  0.00    +0.000 A 
ENDBRANCH  28  29
ENDBRANCH   1  28
TORSDOF 3
ENDMDL
