MODEL 1
REMARK VINA RESULT:      -7.5      0.000      0.000
REMARK  Name = 
REMARK  3 active torsions:
REMARK  status: ('A' for Active; 'I' for Inactive)
REMARK    1  A    between atoms: C_2  and  C_11
REMARK    2  A    between atoms: N_3  and  N_4
REMARK    3  A    between atoms: C_5  and  C_6
REMARK                            x       y       z     vdW  Elec       q    Type
REMARK                         _______ _______ _______ _____ _____    ______ ____
ROOT
ATOM      1  O   UNL     1       8.100   5.841  19.357  0.00  0.00    +0.000 OA
ATOM      2  C   UNL     1       7.508   6.207  18.341  0.00  0.00    +0.000 C 
ATOM      3  N   UNL     1       7.641   7.493  17.821  0.00  0.00    +0.000 N 
ATOM      4  H   UNL     1       7.091   7.797  17.029  0.00  0.00    +0.000 HD
ENDROOT
BRANCH   2   5
ATOM      5  C   UNL     1       6.635   5.293  17.600  0.00  0.00    +0.000 A 
ATOM      6  C   UNL     1       6.977   4.383  16.611  0.00  0.00    +0.000 A 
ATOM      7  N   UNL     1       5.853   3.671  16.267  0.00  0.00    +0.000 N 
ATOM      8  C   UNL     1       4.763   4.121  16.973  0.00  0.00    +0.000 A 
ATOM      9  C   UNL     1       3.430   3.690  16.956  0.00  0.00    +0.000 A 
ATOM     10  C   UNL     1       2.522   4.345  17.795  0.00  0.00    +0.000 A 
ATOM     11  C   UNL     1       2.933   5.387  18.621  0.00  0.00    +0.000 A 
ATOM     12  C   UNL     1       4.272   5.791  18.635  0.00  0.00    +0.000 A 
ATOM     13  C   UNL     1       5.213   5.150  17.798  0.00  0.00    +0.000 A 
ATOM     14  H   UNL     1       5.824   2.908  15.604  0.00  0.00    +0.000 HD
ENDBRANCH   2   5
BRANCH   3  15
ATOM     15  N   UNL     1       8.464   8.367  18.476  0.00  0.00    +0.000 NA
ATOM     16  C   UNL     1       8.480   9.602  18.094  0.00  0.00    +0.000 C 
BRANCH  16  17
ATOM     17  C   UNL     1       9.291  10.552  18.822  0.00  0.00    +0.000 A 
ATOM     18  C   UNL     1       9.459  10.670  20.188  0.00  0.00    +0.000 A 
ATOM     19  C   UNL     1      10.275  11.784  20.541  0.00  0.00    +0.000 A 
ATOM     20  C   UNL     1      10.709  12.473  19.428  0.00  0.00    +0.000 A 
ATOM     21  S   UNL     1      10.167  11.749  17.974  0.00  0.00    +0.000 S 
ENDBRANCH  16  17
ENDBRANCH   3  15
TORSDOF 3
ENDMDL
MODEL 2
REMARK VINA RESULT:      -7.1      5.191      6.871
REMARK  Name = 
REMARK  3 active torsions:
REMARK  status: ('A' for Active; 'I' for Inactive)
REMARK    1  A    between atoms: C_2  and  C_11
REMARK    2  A    between atoms: N_3  and  N_4
REMARK    3  A    between atoms: C_5  and  C_6
REMARK                            x       y       z     vdW  Elec       q    Type
REMARK                         _______ _______ _______ _____ _____    ______ ____
ROOT
ATOM      1  O   UNL     1       2.143   8.388  17.576  0.00  0.00    +0.000 OA
ATOM      2  C   UNL     1       2.495   7.517  18.373  0.00  0.00    +0.000 C 
ATOM      3  N   UNL     1       2.156   7.557  19.723  0.00  0.00    +0.000 N 
ATOM      4  H   UNL     1       2.516   6.872  20.374  0.00  0.00    +0.000 HD
ENDROOT
BRANCH   2   5
ATOM      5  C   UNL     1       3.286   6.363  17.935  0.00  0.00    +0.000 A 
ATOM      6  C   UNL     1       4.586   6.338  17.454  0.00  0.00    +0.000 A 
ATOM      7  N   UNL     1       4.953   5.029  17.257  0.00  0.00    +0.000 N 
ATOM      8  C   UNL     1       3.908   4.187  17.552  0.00  0.00    +0.000 A 
ATOM      9  C   UNL     1       3.829   2.788  17.507  0.00  0.00    +0.000 A 
ATOM     10  C   UNL     1       2.616   2.192  17.869  0.00  0.00    +0.000 A 
ATOM     11  C   UNL     1       1.528   2.964  18.263  0.00  0.00    +0.000 A 
ATOM     12  C   UNL     1       1.632   4.357  18.316  0.00  0.00    +0.000 A 
ATOM     13  C   UNL     1       2.843   4.990  17.957  0.00  0.00    +0.000 A 
ATOM     14  H   UNL     1       5.867   4.716  16.957  0.00  0.00    +0.000 HD
ENDBRANCH   2   5
BRANCH   3  15
ATOM     15  N   UNL     1       1.402   8.610  20.164  0.00  0.00    +0.000 NA
ATOM     16  C   UNL     1       0.776   8.492  21.288  0.00  0.00    +0.000 C 
BRANCH  16  17
ATOM     17  C   UNL     1       0.034   9.622  21.800  0.00  0.00    +0.000 A 
ATOM     18  C   UNL     1      -0.523   9.790  23.053  0.00  0.00    +0.000 A 
ATOM     19  C   UNL     1      -1.255  11.007  23.164  0.00  0.00    +0.000 A 
ATOM     20  C   UNL     1      -1.224  11.732  21.992  0.00  0.00    +0.000 A 
ATOM     21  S   UNL     1      -0.281  10.962  20.787  0.00  0.00    +0.000 S 
ENDBRANCH  16  17
ENDBRANCH   3  15
TORSDOF 3
ENDMDL
MODEL 3
REMARK VINA RESULT:      -6.9      1.609      1.805
REMARK  Name = 
REMARK  3 active torsions:
REMARK  status: ('A' for Active; 'I' for Inactive)
REMARK    1  A    between atoms: C_2  and  C_11
REMARK    2  A    between atoms: N_3  and  N_4
REMARK    3  A    between atoms: C_5  and  C_6
REMARK                            x       y       z     vdW  Elec       q    Type
REMARK                         _______ _______ _______ _____ _____    ______ ____
ROOT
ATOM      1  O   UNL     1       7.006   8.232  16.788  0.00  0.00    +0.000 OA
ATOM      2  C   UNL     1       7.400   7.546  17.732  0.00  0.00    +0.000 C 
ATOM      3  N   UNL     1       8.357   8.000  18.636  0.00  0.00    +0.000 N 
ATOM      4  H   UNL     1       8.722   7.396  19.361  0.00  0.00    +0.000 HD
ENDROOT
BRANCH   2   5
ATOM      5  C   UNL     1       6.863   6.204  17.972  0.00  0.00    +0.000 A 
ATOM      6  C   UNL     1       7.554   5.033  18.247  0.00  0.00    +0.000 A 
ATOM      7  N   UNL     1       6.641   4.037  18.497  0.00  0.00    +0.000 N 
ATOM      8  C   UNL     1       5.360   4.511  18.348  0.00  0.00    +0.000 A 
ATOM      9  C   UNL     1       4.128   3.862  18.510  0.00  0.00    +0.000 A 
ATOM     10  C   UNL     1       2.965   4.607  18.288  0.00  0.00    +0.000 A 
ATOM     11  C   UNL     1       3.031   5.947  17.922  0.00  0.00    +0.000 A 
ATOM     12  C   UNL     1       4.270   6.581  17.781  0.00  0.00    +0.000 A 
ATOM     13  C   UNL     1       5.464   5.856  17.998  0.00  0.00    +0.000 A 
ATOM     14  H   UNL     1       6.868   3.091  18.772  0.00  0.00    +0.000 HD
ENDBRANCH   2   5
BRANCH   3  15
ATOM     15  N   UNL     1       8.867   9.256  18.454  0.00  0.00    +0.000 NA
ATOM     16  C   UNL     1       9.211   9.940  19.496  0.00  0.00    +0.000 C 
BRANCH  16  17
ATOM     17  C   UNL     1       9.817  11.239  19.315  0.00  0.00    +0.000 A 
ATOM     18  C   UNL     1      10.046  11.925  18.138  0.00  0.00    +0.000 A 
ATOM     19  C   UNL     1      10.743  13.150  18.350  0.00  0.00    +0.000 A 
ATOM     20  C   UNL     1      11.014  13.361  19.685  0.00  0.00    +0.000 A 
ATOM     21  S   UNL     1      10.391  12.106  20.671  0.00  0.00    +0.000 S 
ENDBRANCH  16  17
ENDBRANCH   3  15
TORSDOF 3
ENDMDL
MODEL 4
REMARK VINA RESULT:      -6.9      1.674      1.832
REMARK  Name = 
REMARK  3 active torsions:
REMARK  status: ('A' for Active; 'I' for Inactive)
REMARK    1  A    between atoms: C_2  and  C_11
REMARK    2  A    between atoms: N_3  and  N_4
REMARK    3  A    between atoms: C_5  and  C_6
REMARK                            x       y       z     vdW  Elec       q    Type
REMARK                         _______ _______ _______ _____ _____    ______ ____
ROOT
ATOM      1  O   UNL     1       7.870   6.930  16.154  0.00  0.00    +0.000 OA
ATOM      2  C   UNL     1       7.436   6.933  17.306  0.00  0.00    +0.000 C 
ATOM      3  N   UNL     1       7.673   7.982  18.191  0.00  0.00    +0.000 N 
ATOM      4  H   UNL     1       7.372   7.933  19.155  0.00  0.00    +0.000 HD
ENDROOT
BRANCH   2   5
ATOM      5  C   UNL     1       6.619   5.827  17.813  0.00  0.00    +0.000 A 
ATOM      6  C   UNL     1       7.032   4.579  18.255  0.00  0.00    +0.000 A 
ATOM      7  N   UNL     1       5.935   3.900  18.730  0.00  0.00    +0.000 N 
ATOM      8  C   UNL     1       4.797   4.653  18.568  0.00  0.00    +0.000 A 
ATOM      9  C   UNL     1       3.467   4.372  18.910  0.00  0.00    +0.000 A 
ATOM     10  C   UNL     1       2.501   5.342  18.622  0.00  0.00    +0.000 A 
ATOM     11  C   UNL     1       2.851   6.545  18.018  0.00  0.00    +0.000 A 
ATOM     12  C   UNL     1       4.186   6.813  17.698  0.00  0.00    +0.000 A 
ATOM     13  C   UNL     1       5.186   5.854  17.977  0.00  0.00    +0.000 A 
ATOM     14  H   UNL     1       5.954   2.984  19.158  0.00  0.00    +0.000 HD
ENDBRANCH   2   5
BRANCH   3  15
ATOM     15  N   UNL     1       8.416   9.041  17.746  0.00  0.00    +0.000 NA
ATOM     16  C   UNL     1       8.569  10.059  18.528  0.00  0.00    +0.000 C 
BRANCH  16  17
ATOM     17  C   UNL     1       9.410  11.154  18.099  0.00  0.00    +0.000 A 
ATOM     18  C   UNL     1      10.756  11.135  17.792  0.00  0.00    +0.000 A 
ATOM     19  C   UNL     1      11.263  12.431  17.486  0.00  0.00    +0.000 A 
ATOM     20  C   UNL     1      10.280  13.395  17.562  0.00  0.00    +0.000 A 
ATOM     21  S   UNL     1       8.754  12.725  17.958  0.00  0.00    +0.000 S 
ENDBRANCH  16  17
ENDBRANCH   3  15
TORSDOF 3
ENDMDL
MODEL 5
REMARK VINA RESULT:      -6.9      5.311      6.745
REMARK  Name = 
REMARK  3 active torsions:
REMARK  status: ('A' for Active; 'I' for Inactive)
REMARK    1  A    between atoms: C_2  and  C_11
REMARK    2  A    between atoms: N_3  and  N_4
REMARK    3  A    between atoms: C_5  and  C_6
REMARK                            x       y       z     vdW  Elec       q    Type
REMARK                         _______ _______ _______ _____ _____    ______ ____
ROOT
ATOM      1  O   UNL     1       1.192   4.833  20.457  0.00  0.00    +0.000 OA
ATOM      2  C   UNL     1       2.168   5.347  19.910  0.00  0.00    +0.000 C 
ATOM      3  N   UNL     1       2.506   6.686  20.090  0.00  0.00    +0.000 N 
ATOM      4  H   UNL     1       3.268   7.108  19.575  0.00  0.00    +0.000 HD
ENDROOT
BRANCH   2   5
ATOM      5  C   UNL     1       3.053   4.563  19.044  0.00  0.00    +0.000 A 
ATOM      6  C   UNL     1       3.282   3.195  19.053  0.00  0.00    +0.000 A 
ATOM      7  N   UNL     1       4.113   2.886  18.003  0.00  0.00    +0.000 N 
ATOM      8  C   UNL     1       4.478   4.025  17.327  0.00  0.00    +0.000 A 
ATOM      9  C   UNL     1       5.295   4.188  16.200  0.00  0.00    +0.000 A 
ATOM     10  C   UNL     1       5.494   5.488  15.722  0.00  0.00    +0.000 A 
ATOM     11  C   UNL     1       4.897   6.579  16.344  0.00  0.00    +0.000 A 
ATOM     12  C   UNL     1       4.072   6.394  17.459  0.00  0.00    +0.000 A 
ATOM     13  C   UNL     1       3.851   5.093  17.966  0.00  0.00    +0.000 A 
ATOM     14  H   UNL     1       4.405   1.953  17.744  0.00  0.00    +0.000 HD
ENDBRANCH   2   5
BRANCH   3  15
ATOM     15  N   UNL     1       1.713   7.444  20.908  0.00  0.00    +0.000 NA
ATOM     16  C   UNL     1       1.521   8.685  20.604  0.00  0.00    +0.000 C 
BRANCH  16  17
ATOM     17  C   UNL     1       0.629   9.478  21.419  0.00  0.00    +0.000 A 
ATOM     18  C   UNL     1       0.059   9.155  22.635  0.00  0.00    +0.000 A 
ATOM     19  C   UNL     1      -0.837  10.160  23.100  0.00  0.00    +0.000 A 
ATOM     20  C   UNL     1      -0.913  11.222  22.224  0.00  0.00    +0.000 A 
ATOM     21  S   UNL     1       0.124  11.018  20.876  0.00  0.00    +0.000 S 
ENDBRANCH  16  17
ENDBRANCH   3  15
TORSDOF 3
ENDMDL
MODEL 6
REMARK VINA RESULT:      -6.8      4.919      6.794
REMARK  Name = 
REMARK  3 active torsions:
REMARK  status: ('A' for Active; 'I' for Inactive)
REMARK    1  A    between atoms: C_2  and  C_11
REMARK    2  A    between atoms: N_3  and  N_4
REMARK    3  A    between atoms: C_5  and  C_6
REMARK                            x       y       z     vdW  Elec       q    Type
REMARK                         _______ _______ _______ _____ _____    ______ ____
ROOT
ATOM      1  O   UNL     1       2.608   8.169  17.664  0.00  0.00    +0.000 OA
ATOM      2  C   UNL     1       2.716   7.176  18.384  0.00  0.00    +0.000 C 
ATOM      3  N   UNL     1       2.264   7.155  19.701  0.00  0.00    +0.000 N 
ATOM      4  H   UNL     1       2.428   6.356  20.299  0.00  0.00    +0.000 HD
ENDROOT
BRANCH   2   5
ATOM      5  C   UNL     1       3.316   5.936  17.883  0.00  0.00    +0.000 A 
ATOM      6  C   UNL     1       2.724   4.692  17.724  0.00  0.00    +0.000 A 
ATOM      7  N   UNL     1       3.633   3.849  17.132  0.00  0.00    +0.000 N 
ATOM      8  C   UNL     1       4.832   4.493  16.939  0.00  0.00    +0.000 A 
ATOM      9  C   UNL     1       6.027   4.035  16.368  0.00  0.00    +0.000 A 
ATOM     10  C   UNL     1       7.102   4.927  16.302  0.00  0.00    +0.000 A 
ATOM     11  C   UNL     1       6.985   6.227  16.784  0.00  0.00    +0.000 A 
ATOM     12  C   UNL     1       5.779   6.670  17.336  0.00  0.00    +0.000 A 
ATOM     13  C   UNL     1       4.674   5.793  17.418  0.00  0.00    +0.000 A 
ATOM     14  H   UNL     1       3.452   2.893  16.856  0.00  0.00    +0.000 HD
ENDBRANCH   2   5
BRANCH   3  15
ATOM     15  N   UNL     1       1.681   8.289  20.197  0.00  0.00    +0.000 NA
ATOM     16  C   UNL     1       0.841   8.174  21.173  0.00  0.00    +0.000 C 
BRANCH  16  17
ATOM     17  C   UNL     1       0.272   9.369  21.753  0.00  0.00    +0.000 A 
ATOM     18  C   UNL     1      -0.508   9.488  22.887  0.00  0.00    +0.000 A 
ATOM     19  C   UNL     1      -0.956  10.824  23.101  0.00  0.00    +0.000 A 
ATOM     20  C   UNL     1      -0.494  11.681  22.126  0.00  0.00    +0.000 A 
ATOM     21  S   UNL     1       0.506  10.880  20.989  0.00  0.00    +0.000 S 
ENDBRANCH  16  17
ENDBRANCH   3  15
TORSDOF 3
ENDMDL
MODEL 7
REMARK VINA RESULT:      -6.8      2.537      8.402
REMARK  Name = 
REMARK  3 active torsions:
REMARK  status: ('A' for Active; 'I' for Inactive)
REMARK    1  A    between atoms: C_2  and  C_11
REMARK    2  A    between atoms: N_3  and  N_4
REMARK    3  A    between atoms: C_5  and  C_6
REMARK                            x       y       z     vdW  Elec       q    Type
REMARK                         _______ _______ _______ _____ _____    ______ ____
ROOT
ATOM      1  O   UNL     1       7.797   9.974  17.546  0.00  0.00    +0.000 OA
ATOM      2  C   UNL     1       8.498   9.550  18.465  0.00  0.00    +0.000 C 
ATOM      3  N   UNL     1       8.615   8.192  18.751  0.00  0.00    +0.000 N 
ATOM      4  H   UNL     1       9.136   7.868  19.555  0.00  0.00    +0.000 HD
ENDROOT
BRANCH   2   5
ATOM      5  C   UNL     1       9.276  10.462  19.310  0.00  0.00    +0.000 A 
ATOM      6  C   UNL     1       9.251  10.593  20.690  0.00  0.00    +0.000 A 
ATOM      7  N   UNL     1      10.214  11.502  21.058  0.00  0.00    +0.000 N 
ATOM      8  C   UNL     1      10.844  12.011  19.948  0.00  0.00    +0.000 A 
ATOM      9  C   UNL     1      11.883  12.946  19.843  0.00  0.00    +0.000 A 
ATOM     10  C   UNL     1      12.332  13.280  18.561  0.00  0.00    +0.000 A 
ATOM     11  C   UNL     1      11.767  12.700  17.430  0.00  0.00    +0.000 A 
ATOM     12  C   UNL     1      10.742  11.757  17.556  0.00  0.00    +0.000 A 
ATOM     13  C   UNL     1      10.266  11.398  18.837  0.00  0.00    +0.000 A 
ATOM     14  H   UNL     1      10.448  11.754  22.009  0.00  0.00    +0.000 HD
ENDBRANCH   2   5
BRANCH   3  15
ATOM     15  N   UNL     1       7.919   7.310  17.971  0.00  0.00    +0.000 NA
ATOM     16  C   UNL     1       7.345   6.301  18.542  0.00  0.00    +0.000 C 
BRANCH  16  17
ATOM     17  C   UNL     1       6.547   5.402  17.740  0.00  0.00    +0.000 A 
ATOM     18  C   UNL     1       5.288   4.899  18.005  0.00  0.00    +0.000 A 
ATOM     19  C   UNL     1       4.854   3.970  17.016  0.00  0.00    +0.000 A 
ATOM     20  C   UNL     1       5.796   3.802  16.024  0.00  0.00    +0.000 A 
ATOM     21  S   UNL     1       7.170   4.794  16.269  0.00  0.00    +0.000 S 
ENDBRANCH  16  17
ENDBRANCH   3  15
TORSDOF 3
ENDMDL
MODEL 8
REMARK VINA RESULT:      -6.8      5.317      6.730
REMARK  Name = 
REMARK  3 active torsions:
REMARK  status: ('A' for Active; 'I' for Inactive)
REMARK    1  A    between atoms: C_2  and  C_11
REMARK    2  A    between atoms: N_3  and  N_4
REMARK    3  A    between atoms: C_5  and  C_6
REMARK                            x       y       z     vdW  Elec       q    Type
REMARK                         _______ _______ _______ _____ _____    ______ ____
ROOT
ATOM      1  O   UNL     1       2.405   7.972  17.731  0.00  0.00    +0.000 OA
ATOM      2  C   UNL     1       2.647   7.174  18.637  0.00  0.00    +0.000 C 
ATOM      3  N   UNL     1       2.212   7.372  19.945  0.00  0.00    +0.000 N 
ATOM      4  H   UNL     1       2.484   6.743  20.689  0.00  0.00    +0.000 HD
ENDROOT
BRANCH   2   5
ATOM      5  C   UNL     1       3.401   5.943  18.382  0.00  0.00    +0.000 A 
ATOM      6  C   UNL     1       4.762   5.793  18.160  0.00  0.00    +0.000 A 
ATOM      7  N   UNL     1       5.042   4.451  18.064  0.00  0.00    +0.000 N 
ATOM      8  C   UNL     1       3.889   3.710  18.169  0.00  0.00    +0.000 A 
ATOM      9  C   UNL     1       3.696   2.322  18.137  0.00  0.00    +0.000 A 
ATOM     10  C   UNL     1       2.389   1.842  18.272  0.00  0.00    +0.000 A 
ATOM     11  C   UNL     1       1.319   2.716  18.434  0.00  0.00    +0.000 A 
ATOM     12  C   UNL     1       1.534   4.097  18.479  0.00  0.00    +0.000 A 
ATOM     13  C   UNL     1       2.842   4.613  18.346  0.00  0.00    +0.000 A 
ATOM     14  H   UNL     1       5.964   4.052  17.951  0.00  0.00    +0.000 HD
ENDBRANCH   2   5
BRANCH   3  15
ATOM     15  N   UNL     1       1.489   8.501  20.216  0.00  0.00    +0.000 NA
ATOM     16  C   UNL     1       1.087   8.700  21.429  0.00  0.00    +0.000 C 
BRANCH  16  17
ATOM     17  C   UNL     1       0.384   9.923  21.743  0.00  0.00    +0.000 A 
ATOM     18  C   UNL     1       0.458  11.146  21.107  0.00  0.00    +0.000 A 
ATOM     19  C   UNL     1      -0.323  12.146  21.756  0.00  0.00    +0.000 A 
ATOM     20  C   UNL     1      -0.975  11.646  22.863  0.00  0.00    +0.000 A 
ATOM     21  S   UNL     1      -0.675   9.974  23.084  0.00  0.00    +0.000 S 
ENDBRANCH  16  17
ENDBRANCH   3  15
TORSDOF 3
ENDMDL
MODEL 9
REMARK VINA RESULT:      -6.7      5.183      6.773
REMARK  Name = 
REMARK  3 active torsions:
REMARK  status: ('A' for Active; 'I' for Inactive)
REMARK    1  A    between atoms: C_2  and  C_11
REMARK    2  A    between atoms: N_3  and  N_4
REMARK    3  A    between atoms: C_5  and  C_6
REMARK                            x       y       z     vdW  Elec       q    Type
REMARK                         _______ _______ _______ _____ _____    ______ ____
ROOT
ATOM      1  O   UNL     1       2.306   7.478  18.407  0.00  0.00    +0.000 OA
ATOM      2  C   UNL     1       2.686   6.623  19.208  0.00  0.00    +0.000 C 
ATOM      3  N   UNL     1       2.200   6.551  20.511  0.00  0.00    +0.000 N 
ATOM      4  H   UNL     1       2.578   5.888  21.176  0.00  0.00    +0.000 HD
ENDROOT
BRANCH   2   5
ATOM      5  C   UNL     1       3.668   5.605  18.823  0.00  0.00    +0.000 A 
ATOM      6  C   UNL     1       4.015   4.442  19.493  0.00  0.00    +0.000 A 
ATOM      7  N   UNL     1       4.909   3.743  18.718  0.00  0.00    +0.000 N 
ATOM      8  C   UNL     1       5.199   4.441  17.570  0.00  0.00    +0.000 A 
ATOM      9  C   UNL     1       6.041   4.115  16.498  0.00  0.00    +0.000 A 
ATOM     10  C   UNL     1       6.143   5.032  15.447  0.00  0.00    +0.000 A 
ATOM     11  C   UNL     1       5.429   6.226  15.466  0.00  0.00    +0.000 A 
ATOM     12  C   UNL     1       4.582   6.526  16.538  0.00  0.00    +0.000 A 
ATOM     13  C   UNL     1       4.457   5.620  17.616  0.00  0.00    +0.000 A 
ATOM     14  H   UNL     1       5.292   2.834  18.941  0.00  0.00    +0.000 HD
ENDBRANCH   2   5
BRANCH   3  15
ATOM     15  N   UNL     1       1.267   7.472  20.900  0.00  0.00    +0.000 NA
ATOM     16  C   UNL     1       1.638   8.437  21.676  0.00  0.00    +0.000 C 
BRANCH  16  17
ATOM     17  C   UNL     1       0.680   9.457  22.036  0.00  0.00    +0.000 A 
ATOM     18  C   UNL     1      -0.158   9.500  23.133  0.00  0.00    +0.000 A 
ATOM     19  C   UNL     1      -1.028  10.629  23.109  0.00  0.00    +0.000 A 
ATOM     20  C   UNL     1      -0.816  11.414  21.995  0.00  0.00    +0.000 A 
ATOM     21  S   UNL     1       0.452  10.808  21.016  0.00  0.00    +0.000 S 
ENDBRANCH  16  17
ENDBRANCH   3  15
TORSDOF 3
ENDMDL
