MODEL 1
REMARK VINA RESULT:      -7.7      0.000      0.000
REMARK  Name = 
REMARK  6 active torsions:
REMARK  status: ('A' for Active; 'I' for Inactive)
REMARK    1  A    between atoms: C_1  and  O_2
REMARK    2  A    between atoms: O_2  and  C_3
REMARK    3  A    between atoms: C_7  and  C_8
REMARK    4  A    between atoms: N_10  and  C_11
REMARK    5  A    between atoms: C_21  and  O_22
REMARK    6  A    between atoms: O_22  and  C_23
REMARK                            x       y       z     vdW  Elec       q    Type
REMARK                         _______ _______ _______ _____ _____    ______ ____
ROOT
ATOM      1  C   UNL     1       5.039   4.772  17.168  0.00  0.00    +0.000 C 
ATOM      2  O   UNL     1       5.549   4.203  18.130  0.00  0.00    +0.000 OA
ATOM      3  N   UNL     1       3.861   5.499  17.193  0.00  0.00    +0.000 N 
ATOM      4  H   UNL     1       3.494   5.744  16.283  0.00  0.00    +0.000 HD
ENDROOT
BRANCH   3   5
ATOM      5  C   UNL     1       2.996   5.641  18.313  0.00  0.00    +0.000 A 
ATOM      6  C   UNL     1       2.936   6.852  19.016  0.00  0.00    +0.000 A 
ATOM      7  C   UNL     1       2.193   6.973  20.184  0.00  0.00    +0.000 A 
ATOM      8  C   UNL     1       1.515   5.872  20.684  0.00  0.00    +0.000 A 
ATOM      9  C   UNL     1       1.538   4.648  20.005  0.00  0.00    +0.000 A 
ATOM     10  C   UNL     1       0.895   3.537  20.574  0.00  0.00    +0.000 A 
ATOM     11  C   UNL     1       0.890   2.303  19.929  0.00  0.00    +0.000 A 
ATOM     12  C   UNL     1       1.483   2.179  18.682  0.00  0.00    +0.000 A 
ATOM     13  C   UNL     1       2.137   3.274  18.108  0.00  0.00    +0.000 A 
ATOM     14  C   UNL     1       2.229   4.525  18.770  0.00  0.00    +0.000 A 
ENDBRANCH   3   5
BRANCH   1  19
ATOM     15  C   UNL     1       7.411   5.144  14.173  0.00  0.00    +0.000 A 
ATOM     16  C   UNL     1       6.737   4.312  13.260  0.00  0.00    +0.000 A 
ATOM     17  C   UNL     1       5.551   3.689  13.614  0.00  0.00    +0.000 A 
ATOM     18  C   UNL     1       5.042   3.869  14.890  0.00  0.00    +0.000 A 
ATOM     19  C   UNL     1       5.738   4.634  15.849  0.00  0.00    +0.000 A 
ATOM     20  C   UNL     1       6.957   5.262  15.505  0.00  0.00    +0.000 A 
BRANCH  15  22
ATOM     21  C   UNL     1       8.590   6.092  12.359  0.00  0.00    +0.000 C 
ATOM     22  O   UNL     1       8.531   5.821  13.762  0.00  0.00    +0.000 OA
ENDBRANCH  15  22
BRANCH  20  23
ATOM     23  O   UNL     1       7.566   5.959  16.519  0.00  0.00    +0.000 OA
ATOM     24  C   UNL     1       7.094   7.248  16.885  0.00  0.00    +0.000 C 
ENDBRANCH  20  23
ENDBRANCH   1  19
TORSDOF 4
ENDMDL
MODEL 2
REMARK VINA RESULT:      -7.6      4.424      8.014
REMARK  Name = 
REMARK  6 active torsions:
REMARK  status: ('A' for Active; 'I' for Inactive)
REMARK    1  A    between atoms: C_1  and  O_2
REMARK    2  A    between atoms: O_2  and  C_3
REMARK    3  A    between atoms: C_7  and  C_8
REMARK    4  A    between atoms: N_10  and  C_11
REMARK    5  A    between atoms: C_21  and  O_22
REMARK    6  A    between atoms: O_22  and  C_23
REMARK                            x       y       z     vdW  Elec       q    Type
REMARK                         _______ _______ _______ _____ _____    ______ ____
ROOT
ATOM      1  C   UNL     1       1.444   8.555  19.605  0.00  0.00    +0.000 C 
ATOM      2  O   UNL     1       1.352   8.945  18.443  0.00  0.00    +0.000 OA
ATOM      3  N   UNL     1       2.114   7.418  20.022  0.00  0.00    +0.000 N 
ATOM      4  H   UNL     1       1.938   7.149  20.981  0.00  0.00    +0.000 HD
ENDROOT
BRANCH   3   5
ATOM      5  C   UNL     1       2.738   6.462  19.173  0.00  0.00    +0.000 A 
ATOM      6  C   UNL     1       3.736   6.856  18.271  0.00  0.00    +0.000 A 
ATOM      7  C   UNL     1       4.268   5.963  17.349  0.00  0.00    +0.000 A 
ATOM      8  C   UNL     1       3.791   4.663  17.296  0.00  0.00    +0.000 A 
ATOM      9  C   UNL     1       2.804   4.226  18.189  0.00  0.00    +0.000 A 
ATOM     10  C   UNL     1       2.298   2.923  18.064  0.00  0.00    +0.000 A 
ATOM     11  C   UNL     1       1.320   2.447  18.934  0.00  0.00    +0.000 A 
ATOM     12  C   UNL     1       0.875   3.252  19.972  0.00  0.00    +0.000 A 
ATOM     13  C   UNL     1       1.363   4.556  20.102  0.00  0.00    +0.000 A 
ATOM     14  C   UNL     1       2.302   5.101  19.189  0.00  0.00    +0.000 A 
ENDBRANCH   3   5
BRANCH   1  19
ATOM     15  C   UNL     1       0.129  11.384  21.840  0.00  0.00    +0.000 A 
ATOM     16  C   UNL     1      -0.542  10.605  22.802  0.00  0.00    +0.000 A 
ATOM     17  C   UNL     1      -0.531   9.222  22.722  0.00  0.00    +0.000 A 
ATOM     18  C   UNL     1       0.125   8.605  21.669  0.00  0.00    +0.000 A 
ATOM     19  C   UNL     1       0.737   9.364  20.650  0.00  0.00    +0.000 A 
ATOM     20  C   UNL     1       0.721  10.776  20.712  0.00  0.00    +0.000 A 
BRANCH  15  22
ATOM     21  C   UNL     1      -0.901  13.306  22.749  0.00  0.00    +0.000 C 
ATOM     22  O   UNL     1       0.180  12.746  21.999  0.00  0.00    +0.000 OA
ENDBRANCH  15  22
BRANCH  20  23
ATOM     23  O   UNL     1       1.322  11.418  19.657  0.00  0.00    +0.000 OA
ATOM     24  C   UNL     1       0.559  12.256  18.800  0.00  0.00    +0.000 C 
ENDBRANCH  20  23
ENDBRANCH   1  19
TORSDOF 4
ENDMDL
MODEL 3
REMARK VINA RESULT:      -7.3      4.098      7.628
REMARK  Name = 
REMARK  6 active torsions:
REMARK  status: ('A' for Active; 'I' for Inactive)
REMARK    1  A    between atoms: C_1  and  O_2
REMARK    2  A    between atoms: O_2  and  C_3
REMARK    3  A    between atoms: C_7  and  C_8
REMARK    4  A    between atoms: N_10  and  C_11
REMARK    5  A    between atoms: C_21  and  O_22
REMARK    6  A    between atoms: O_22  and  C_23
REMARK                            x       y       z     vdW  Elec       q    Type
REMARK                         _______ _______ _______ _____ _____    ______ ____
ROOT
ATOM      1  C   UNL     1       1.789   8.694  18.509  0.00  0.00    +0.000 C 
ATOM      2  O   UNL     1       1.219   8.533  17.433  0.00  0.00    +0.000 OA
ATOM      3  N   UNL     1       2.707   7.825  19.072  0.00  0.00    +0.000 N 
ATOM      4  H   UNL     1       2.939   8.019  20.037  0.00  0.00    +0.000 HD
ENDROOT
BRANCH   3   5
ATOM      5  C   UNL     1       3.084   6.559  18.545  0.00  0.00    +0.000 A 
ATOM      6  C   UNL     1       4.006   6.472  17.493  0.00  0.00    +0.000 A 
ATOM      7  C   UNL     1       4.293   5.258  16.883  0.00  0.00    +0.000 A 
ATOM      8  C   UNL     1       3.641   4.107  17.300  0.00  0.00    +0.000 A 
ATOM      9  C   UNL     1       2.724   4.148  18.357  0.00  0.00    +0.000 A 
ATOM     10  C   UNL     1       2.034   2.978  18.710  0.00  0.00    +0.000 A 
ATOM     11  C   UNL     1       1.117   2.973  19.759  0.00  0.00    +0.000 A 
ATOM     12  C   UNL     1       0.919   4.128  20.500  0.00  0.00    +0.000 A 
ATOM     13  C   UNL     1       1.592   5.305  20.153  0.00  0.00    +0.000 A 
ATOM     14  C   UNL     1       2.474   5.366  19.044  0.00  0.00    +0.000 A 
ENDBRANCH   3   5
BRANCH   1  19
ATOM     15  C   UNL     1       0.516  11.153  21.167  0.00  0.00    +0.000 A 
ATOM     16  C   UNL     1       0.693  12.353  20.452  0.00  0.00    +0.000 A 
ATOM     17  C   UNL     1       1.180  12.338  19.155  0.00  0.00    +0.000 A 
ATOM     18  C   UNL     1       1.521  11.129  18.570  0.00  0.00    +0.000 A 
ATOM     19  C   UNL     1       1.428   9.921  19.292  0.00  0.00    +0.000 A 
ATOM     20  C   UNL     1       0.947   9.925  20.621  0.00  0.00    +0.000 A 
BRANCH  15  22
ATOM     21  C   UNL     1      -1.389  11.712  22.447  0.00  0.00    +0.000 C 
ATOM     22  O   UNL     1      -0.056  11.194  22.413  0.00  0.00    +0.000 OA
ENDBRANCH  15  22
BRANCH  20  23
ATOM     23  O   UNL     1       0.921   8.699  21.240  0.00  0.00    +0.000 OA
ATOM     24  C   UNL     1      -0.317   8.110  21.610  0.00  0.00    +0.000 C 
ENDBRANCH  20  23
ENDBRANCH   1  19
TORSDOF 4
ENDMDL
MODEL 4
REMARK VINA RESULT:      -7.2      4.430      7.840
REMARK  Name = 
REMARK  6 active torsions:
REMARK  status: ('A' for Active; 'I' for Inactive)
REMARK    1  A    between atoms: C_1  and  O_2
REMARK    2  A    between atoms: O_2  and  C_3
REMARK    3  A    between atoms: C_7  and  C_8
REMARK    4  A    between atoms: N_10  and  C_11
REMARK    5  A    between atoms: C_21  and  O_22
REMARK    6  A    between atoms: O_22  and  C_23
REMARK                            x       y       z     vdW  Elec       q    Type
REMARK                         _______ _______ _______ _____ _____    ______ ____
ROOT
ATOM      1  C   UNL     1       1.489   9.041  18.537  0.00  0.00    +0.000 C 
ATOM      2  O   UNL     1       1.980   9.344  17.452  0.00  0.00    +0.000 OA
ATOM      3  N   UNL     1       1.778   7.897  19.261  0.00  0.00    +0.000 N 
ATOM      4  H   UNL     1       1.155   7.717  20.037  0.00  0.00    +0.000 HD
ENDROOT
BRANCH   3   5
ATOM      5  C   UNL     1       2.625   6.837  18.836  0.00  0.00    +0.000 A 
ATOM      6  C   UNL     1       3.598   7.054  17.851  0.00  0.00    +0.000 A 
ATOM      7  C   UNL     1       4.349   6.007  17.334  0.00  0.00    +0.000 A 
ATOM      8  C   UNL     1       4.121   4.713  17.777  0.00  0.00    +0.000 A 
ATOM      9  C   UNL     1       3.168   4.454  18.770  0.00  0.00    +0.000 A 
ATOM     10  C   UNL     1       2.917   3.126  19.148  0.00  0.00    +0.000 A 
ATOM     11  C   UNL     1       1.981   2.825  20.135  0.00  0.00    +0.000 A 
ATOM     12  C   UNL     1       1.324   3.854  20.791  0.00  0.00    +0.000 A 
ATOM     13  C   UNL     1       1.556   5.182  20.418  0.00  0.00    +0.000 A 
ATOM     14  C   UNL     1       2.443   5.521  19.365  0.00  0.00    +0.000 A 
ENDBRANCH   3   5
BRANCH   1  19
ATOM     15  C   UNL     1      -0.709  11.167  20.857  0.00  0.00    +0.000 A 
ATOM     16  C   UNL     1      -1.651  11.615  19.911  0.00  0.00    +0.000 A 
ATOM     17  C   UNL     1      -1.571  11.208  18.589  0.00  0.00    +0.000 A 
ATOM     18  C   UNL     1      -0.537  10.376  18.193  0.00  0.00    +0.000 A 
ATOM     19  C   UNL     1       0.464   9.977  19.103  0.00  0.00    +0.000 A 
ATOM     20  C   UNL     1       0.403  10.397  20.452  0.00  0.00    +0.000 A 
BRANCH  15  22
ATOM     21  C   UNL     1      -0.738  12.907  22.455  0.00  0.00    +0.000 C 
ATOM     22  O   UNL     1      -0.869  11.511  22.176  0.00  0.00    +0.000 OA
ENDBRANCH  15  22
BRANCH  20  23
ATOM     23  O   UNL     1       1.440   9.975  21.246  0.00  0.00    +0.000 OA
ATOM     24  C   UNL     1       1.192   9.119  22.353  0.00  0.00    +0.000 C 
ENDBRANCH  20  23
ENDBRANCH   1  19
TORSDOF 4
ENDMDL
MODEL 5
REMARK VINA RESULT:      -7.1      4.468      7.874
REMARK  Name = 
REMARK  6 active torsions:
REMARK  status: ('A' for Active; 'I' for Inactive)
REMARK    1  A    between atoms: C_1  and  O_2
REMARK    2  A    between atoms: O_2  and  C_3
REMARK    3  A    between atoms: C_7  and  C_8
REMARK    4  A    between atoms: N_10  and  C_11
REMARK    5  A    between atoms: C_21  and  O_22
REMARK    6  A    between atoms: O_22  and  C_23
REMARK                            x       y       z     vdW  Elec       q    Type
REMARK                         _______ _______ _______ _____ _____    ______ ____
ROOT
ATOM      1  C   UNL     1       1.707   8.775  18.566  0.00  0.00    +0.000 C 
ATOM      2  O   UNL     1       1.962   9.227  17.452  0.00  0.00    +0.000 OA
ATOM      3  N   UNL     1       2.173   7.575  19.074  0.00  0.00    +0.000 N 
ATOM      4  H   UNL     1       1.723   7.272  19.927  0.00  0.00    +0.000 HD
ENDROOT
BRANCH   3   5
ATOM      5  C   UNL     1       2.956   6.621  18.366  0.00  0.00    +0.000 A 
ATOM      6  C   UNL     1       4.025   7.035  17.560  0.00  0.00    +0.000 A 
ATOM      7  C   UNL     1       4.721   6.134  16.765  0.00  0.00    +0.000 A 
ATOM      8  C   UNL     1       4.343   4.800  16.744  0.00  0.00    +0.000 A 
ATOM      9  C   UNL     1       3.289   4.343  17.545  0.00  0.00    +0.000 A 
ATOM     10  C   UNL     1       2.890   3.000  17.450  0.00  0.00    +0.000 A 
ATOM     11  C   UNL     1       1.850   2.503  18.232  0.00  0.00    +0.000 A 
ATOM     12  C   UNL     1       1.233   3.331  19.157  0.00  0.00    +0.000 A 
ATOM     13  C   UNL     1       1.613   4.674  19.256  0.00  0.00    +0.000 A 
ATOM     14  C   UNL     1       2.614   5.234  18.422  0.00  0.00    +0.000 A 
ENDBRANCH   3   5
BRANCH   1  19
ATOM     15  C   UNL     1      -0.985  11.172  19.886  0.00  0.00    +0.000 A 
ATOM     16  C   UNL     1      -0.687  11.094  21.260  0.00  0.00    +0.000 A 
ATOM     17  C   UNL     1       0.364  10.313  21.711  0.00  0.00    +0.000 A 
ATOM     18  C   UNL     1       1.109   9.580  20.801  0.00  0.00    +0.000 A 
ATOM     19  C   UNL     1       0.782   9.579  19.429  0.00  0.00    +0.000 A 
ATOM     20  C   UNL     1      -0.297  10.360  18.957  0.00  0.00    +0.000 A 
BRANCH  15  22
ATOM     21  C   UNL     1      -2.769  12.591  20.504  0.00  0.00    +0.000 C 
ATOM     22  O   UNL     1      -1.970  12.027  19.461  0.00  0.00    +0.000 OA
ENDBRANCH  15  22
BRANCH  20  23
ATOM     23  O   UNL     1      -0.547  10.266  17.610  0.00  0.00    +0.000 OA
ATOM     24  C   UNL     1      -1.816   9.827  17.146  0.00  0.00    +0.000 C 
ENDBRANCH  20  23
ENDBRANCH   1  19
TORSDOF 4
ENDMDL
MODEL 6
REMARK VINA RESULT:      -7.1      0.625      2.312
REMARK  Name = 
REMARK  6 active torsions:
REMARK  status: ('A' for Active; 'I' for Inactive)
REMARK    1  A    between atoms: C_1  and  O_2
REMARK    2  A    between atoms: O_2  and  C_3
REMARK    3  A    between atoms: C_7  and  C_8
REMARK    4  A    between atoms: N_10  and  C_11
REMARK    5  A    between atoms: C_21  and  O_22
REMARK    6  A    between atoms: O_22  and  C_23
REMARK                            x       y       z     vdW  Elec       q    Type
REMARK                         _______ _______ _______ _____ _____    ______ ____
ROOT
ATOM      1  C   UNL     1       5.088   4.020  16.969  0.00  0.00    +0.000 C 
ATOM      2  O   UNL     1       5.802   3.949  17.967  0.00  0.00    +0.000 OA
ATOM      3  N   UNL     1       3.705   3.959  16.962  0.00  0.00    +0.000 N 
ATOM      4  H   UNL     1       3.290   3.850  16.047  0.00  0.00    +0.000 HD
ENDROOT
BRANCH   3   5
ATOM      5  C   UNL     1       2.878   3.719  18.094  0.00  0.00    +0.000 A 
ATOM      6  C   UNL     1       2.349   2.443  18.331  0.00  0.00    +0.000 A 
ATOM      7  C   UNL     1       1.441   2.218  19.358  0.00  0.00    +0.000 A 
ATOM      8  C   UNL     1       1.025   3.275  20.153  0.00  0.00    +0.000 A 
ATOM      9  C   UNL     1       1.540   4.563  19.958  0.00  0.00    +0.000 A 
ATOM     10  C   UNL     1       1.049   5.622  20.738  0.00  0.00    +0.000 A 
ATOM     11  C   UNL     1       1.537   6.916  20.579  0.00  0.00    +0.000 A 
ATOM     12  C   UNL     1       2.561   7.156  19.675  0.00  0.00    +0.000 A 
ATOM     13  C   UNL     1       3.053   6.113  18.885  0.00  0.00    +0.000 A 
ATOM     14  C   UNL     1       2.526   4.798  18.963  0.00  0.00    +0.000 A 
ENDBRANCH   3   5
BRANCH   1  19
ATOM     15  C   UNL     1       7.416   5.017  14.086  0.00  0.00    +0.000 A 
ATOM     16  C   UNL     1       6.771   4.329  13.040  0.00  0.00    +0.000 A 
ATOM     17  C   UNL     1       5.617   3.602  13.280  0.00  0.00    +0.000 A 
ATOM     18  C   UNL     1       5.111   3.532  14.568  0.00  0.00    +0.000 A 
ATOM     19  C   UNL     1       5.782   4.146  15.646  0.00  0.00    +0.000 A 
ATOM     20  C   UNL     1       6.968   4.879  15.417  0.00  0.00    +0.000 A 
BRANCH  15  22
ATOM     21  C   UNL     1       8.675   6.112  12.413  0.00  0.00    +0.000 C 
ATOM     22  O   UNL     1       8.502   5.805  13.799  0.00  0.00    +0.000 OA
ENDBRANCH  15  22
BRANCH  20  23
ATOM     23  O   UNL     1       7.555   5.413  16.538  0.00  0.00    +0.000 OA
ATOM     24  C   UNL     1       7.255   6.744  16.937  0.00  0.00    +0.000 C 
ENDBRANCH  20  23
ENDBRANCH   1  19
TORSDOF 4
ENDMDL
MODEL 7
REMARK VINA RESULT:      -7.0      3.411      6.087
REMARK  Name = 
REMARK  6 active torsions:
REMARK  status: ('A' for Active; 'I' for Inactive)
REMARK    1  A    between atoms: C_1  and  O_2
REMARK    2  A    between atoms: O_2  and  C_3
REMARK    3  A    between atoms: C_7  and  C_8
REMARK    4  A    between atoms: N_10  and  C_11
REMARK    5  A    between atoms: C_21  and  O_22
REMARK    6  A    between atoms: O_22  and  C_23
REMARK                            x       y       z     vdW  Elec       q    Type
REMARK                         _______ _______ _______ _____ _____    ______ ____
ROOT
ATOM      1  C   UNL     1       2.652   7.686  18.122  0.00  0.00    +0.000 C 
ATOM      2  O   UNL     1       2.584   8.247  17.032  0.00  0.00    +0.000 OA
ATOM      3  N   UNL     1       2.051   8.121  19.291  0.00  0.00    +0.000 N 
ATOM      4  H   UNL     1       2.357   7.644  20.129  0.00  0.00    +0.000 HD
ENDROOT
BRANCH   3   5
ATOM      5  C   UNL     1       1.323   9.332  19.450  0.00  0.00    +0.000 A 
ATOM      6  C   UNL     1       1.407  10.345  18.485  0.00  0.00    +0.000 A 
ATOM      7  C   UNL     1       0.806  11.582  18.681  0.00  0.00    +0.000 A 
ATOM      8  C   UNL     1       0.128  11.837  19.864  0.00  0.00    +0.000 A 
ATOM      9  C   UNL     1       0.009  10.847  20.848  0.00  0.00    +0.000 A 
ATOM     10  C   UNL     1      -0.627  11.161  22.060  0.00  0.00    +0.000 A 
ATOM     11  C   UNL     1      -0.770  10.205  23.063  0.00  0.00    +0.000 A 
ATOM     12  C   UNL     1      -0.326   8.910  22.844  0.00  0.00    +0.000 A 
ATOM     13  C   UNL     1       0.318   8.586  21.646  0.00  0.00    +0.000 A 
ATOM     14  C   UNL     1       0.552   9.552  20.634  0.00  0.00    +0.000 A 
ENDBRANCH   3   5
BRANCH   1  19
ATOM     15  C   UNL     1       4.069   4.215  18.942  0.00  0.00    +0.000 A 
ATOM     16  C   UNL     1       5.317   4.335  18.301  0.00  0.00    +0.000 A 
ATOM     17  C   UNL     1       5.672   5.511  17.662  0.00  0.00    +0.000 A 
ATOM     18  C   UNL     1       4.775   6.567  17.630  0.00  0.00    +0.000 A 
ATOM     19  C   UNL     1       3.489   6.445  18.196  0.00  0.00    +0.000 A 
ATOM     20  C   UNL     1       3.109   5.245  18.839  0.00  0.00    +0.000 A 
BRANCH  15  22
ATOM     21  C   UNL     1       3.306   1.980  18.858  0.00  0.00    +0.000 C 
ATOM     22  O   UNL     1       3.785   3.073  19.647  0.00  0.00    +0.000 OA
ENDBRANCH  15  22
BRANCH  20  23
ATOM     23  O   UNL     1       1.827   5.222  19.330  0.00  0.00    +0.000 OA
ATOM     24  C   UNL     1       1.597   5.054  20.722  0.00  0.00    +0.000 C 
ENDBRANCH  20  23
ENDBRANCH   1  19
TORSDOF 4
ENDMDL
MODEL 8
REMARK VINA RESULT:      -7.0      4.395      6.751
REMARK  Name = 
REMARK  6 active torsions:
REMARK  status: ('A' for Active; 'I' for Inactive)
REMARK    1  A    between atoms: C_1  and  O_2
REMARK    2  A    between atoms: O_2  and  C_3
REMARK    3  A    between atoms: C_7  and  C_8
REMARK    4  A    between atoms: N_10  and  C_11
REMARK    5  A    between atoms: C_21  and  O_22
REMARK    6  A    between atoms: O_22  and  C_23
REMARK                            x       y       z     vdW  Elec       q    Type
REMARK                         _______ _______ _______ _____ _____    ______ ____
ROOT
ATOM      1  C   UNL     1       1.674   8.236  19.669  0.00  0.00    +0.000 C 
ATOM      2  O   UNL     1       1.274   7.976  20.801  0.00  0.00    +0.000 OA
ATOM      3  N   UNL     1       1.349   9.367  18.940  0.00  0.00    +0.000 N 
ATOM      4  H   UNL     1       1.617   9.335  17.965  0.00  0.00    +0.000 HD
ENDROOT
BRANCH   3   5
ATOM      5  C   UNL     1       0.433  10.378  19.340  0.00  0.00    +0.000 A 
ATOM      6  C   UNL     1       0.699  11.179  20.459  0.00  0.00    +0.000 A 
ATOM      7  C   UNL     1      -0.238  12.085  20.938  0.00  0.00    +0.000 A 
ATOM      8  C   UNL     1      -1.474  12.189  20.318  0.00  0.00    +0.000 A 
ATOM      9  C   UNL     1      -1.775  11.417  19.189  0.00  0.00    +0.000 A 
ATOM     10  C   UNL     1      -3.058  11.500  18.627  0.00  0.00    +0.000 A 
ATOM     11  C   UNL     1      -3.398  10.754  17.501  0.00  0.00    +0.000 A 
ATOM     12  C   UNL     1      -2.440   9.956  16.894  0.00  0.00    +0.000 A 
ATOM     13  C   UNL     1      -1.161   9.856  17.449  0.00  0.00    +0.000 A 
ATOM     14  C   UNL     1      -0.803  10.540  18.638  0.00  0.00    +0.000 A 
ENDBRANCH   3   5
BRANCH   1  19
ATOM     15  C   UNL     1       3.771   5.130  18.841  0.00  0.00    +0.000 A 
ATOM     16  C   UNL     1       4.380   5.591  17.658  0.00  0.00    +0.000 A 
ATOM     17  C   UNL     1       4.127   6.868  17.184  0.00  0.00    +0.000 A 
ATOM     18  C   UNL     1       3.243   7.686  17.870  0.00  0.00    +0.000 A 
ATOM     19  C   UNL     1       2.561   7.221  19.012  0.00  0.00    +0.000 A 
ATOM     20  C   UNL     1       2.799   5.915  19.498  0.00  0.00    +0.000 A 
BRANCH  15  22
ATOM     21  C   UNL     1       3.822   2.798  18.468  0.00  0.00    +0.000 C 
ATOM     22  O   UNL     1       4.115   3.897  19.335  0.00  0.00    +0.000 OA
ENDBRANCH  15  22
BRANCH  20  23
ATOM     23  O   UNL     1       2.063   5.553  20.599  0.00  0.00    +0.000 OA
ATOM     24  C   UNL     1       1.150   4.467  20.525  0.00  0.00    +0.000 C 
ENDBRANCH  20  23
ENDBRANCH   1  19
TORSDOF 4
ENDMDL
MODEL 9
REMARK VINA RESULT:      -6.9      4.066      7.935
REMARK  Name = 
REMARK  6 active torsions:
REMARK  status: ('A' for Active; 'I' for Inactive)
REMARK    1  A    between atoms: C_1  and  O_2
REMARK    2  A    between atoms: O_2  and  C_3
REMARK    3  A    between atoms: C_7  and  C_8
REMARK    4  A    between atoms: N_10  and  C_11
REMARK    5  A    between atoms: C_21  and  O_22
REMARK    6  A    between atoms: O_22  and  C_23
REMARK                            x       y       z     vdW  Elec       q    Type
REMARK                         _______ _______ _______ _____ _____    ______ ____
ROOT
ATOM      1  C   UNL     1       1.764   8.664  18.314  0.00  0.00    +0.000 C 
ATOM      2  O   UNL     1       1.334   8.699  17.163  0.00  0.00    +0.000 OA
ATOM      3  N   UNL     1       2.418   7.592  18.896  0.00  0.00    +0.000 N 
ATOM      4  H   UNL     1       2.541   7.663  19.897  0.00  0.00    +0.000 HD
ENDROOT
BRANCH   3   5
ATOM      5  C   UNL     1       2.630   6.321  18.294  0.00  0.00    +0.000 A 
ATOM      6  C   UNL     1       1.672   5.305  18.421  0.00  0.00    +0.000 A 
ATOM      7  C   UNL     1       1.914   4.021  17.948  0.00  0.00    +0.000 A 
ATOM      8  C   UNL     1       3.134   3.724  17.360  0.00  0.00    +0.000 A 
ATOM      9  C   UNL     1       4.113   4.713  17.202  0.00  0.00    +0.000 A 
ATOM     10  C   UNL     1       5.360   4.361  16.663  0.00  0.00    +0.000 A 
ATOM     11  C   UNL     1       6.359   5.315  16.484  0.00  0.00    +0.000 A 
ATOM     12  C   UNL     1       6.103   6.642  16.794  0.00  0.00    +0.000 A 
ATOM     13  C   UNL     1       4.868   7.005  17.341  0.00  0.00    +0.000 A 
ATOM     14  C   UNL     1       3.855   6.049  17.610  0.00  0.00    +0.000 A 
ENDBRANCH   3   5
BRANCH   1  19
ATOM     15  C   UNL     1       0.735  11.082  21.111  0.00  0.00    +0.000 A 
ATOM     16  C   UNL     1       1.031  12.297  20.465  0.00  0.00    +0.000 A 
ATOM     17  C   UNL     1       1.517  12.307  19.167  0.00  0.00    +0.000 A 
ATOM     18  C   UNL     1       1.738  11.105  18.513  0.00  0.00    +0.000 A 
ATOM     19  C   UNL     1       1.524   9.874  19.166  0.00  0.00    +0.000 A 
ATOM     20  C   UNL     1       1.043   9.849  20.495  0.00  0.00    +0.000 A 
BRANCH  15  22
ATOM     21  C   UNL     1      -1.024  11.892  22.463  0.00  0.00    +0.000 C 
ATOM     22  O   UNL     1       0.167  11.108  22.360  0.00  0.00    +0.000 OA
ENDBRANCH  15  22
BRANCH  20  23
ATOM     23  O   UNL     1       0.896   8.599  21.044  0.00  0.00    +0.000 OA
ATOM     24  C   UNL     1      -0.369   8.179  21.536  0.00  0.00    +0.000 C 
ENDBRANCH  20  23
ENDBRANCH   1  19
TORSDOF 4
ENDMDL
