MODEL 1
REMARK VINA RESULT:      -7.9      0.000      0.000
REMARK  Name = 
REMARK  15 active torsions:
REMARK  status: ('A' for Active; 'I' for Inactive)
REMARK    1  A    between atoms: C_1  and  C_2
REMARK    2  A    between atoms: C_4  and  O_5
REMARK    3  A    between atoms: C_8  and  N_9
REMARK    4  A    between atoms: N_9  and  C_10
REMARK    5  A    between atoms: N_9  and  C_13
REMARK    6  A    between atoms: C_10  and  C_11
REMARK    7  A    between atoms: C_13  and  C_14
REMARK    8  A    between atoms: C_17  and  C_18
REMARK    9  A    between atoms: N_20  and  CA_21
REMARK   10  A    between atoms: CA_21  and  CB_22
REMARK   11  A    between atoms: CA_21  and  C_27
REMARK   12  A    between atoms: CB_22  and  CG_23
REMARK   13  A    between atoms: CG_23  and  CD_24
REMARK   14  A    between atoms: CD_24  and  OE2_26
REMARK   15  A    between atoms: C_27  and  OXT_29
REMARK                            x       y       z     vdW  Elec       q    Type
REMARK                         _______ _______ _______ _____ _____    ______ ____
ROOT
ATOM      1  C   UNK A   0       2.087   8.238  18.930  0.00  0.00    +0.000 A 
ATOM      2  C   UNK A   0       1.918   7.251  19.884  0.00  0.00    +0.000 A 
ATOM      3  C   UNK A   0       2.574   6.034  19.537  0.00  0.00    +0.000 A 
ATOM      4  C   UNK A   0       3.257   6.117  18.339  0.00  0.00    +0.000 A 
ATOM      5  S   UNK A   0       3.115   7.693  17.668  0.00  0.00    +0.000 S 
ENDROOT
BRANCH   4   6
ATOM      6  C   UNK A   0       4.007   5.048  17.686  0.00  0.00    +0.000 C 
ATOM      7  O   UNK A   0       3.908   3.864  18.004  0.00  0.00    +0.000 OA
ATOM      8  N   GLU A   1       4.829   5.438  16.656  0.00  0.00    +0.000 N 
ATOM      9  H   GLU A   1       4.853   6.427  16.419  0.00  0.00    +0.000 HD
BRANCH   8  10
ATOM     10  CA  GLU A   1       5.689   4.531  15.898  0.00  0.00    +0.000 C 
BRANCH  10  11
ATOM     11  C   GLU A   1       7.124   5.000  16.163  0.00  0.00    +0.000 C 
ATOM     12  O   GLU A   1       7.577   6.046  15.720  0.00  0.00    +0.000 OA
BRANCH  11  13
ATOM     13  OXT GLU A   1       7.851   4.178  16.951  0.00  0.00    +0.000 OA
ATOM     14  HXT GLU A   1       8.579   4.611  17.449  0.00  0.00    +0.000 HD
ENDBRANCH  11  13
ENDBRANCH  10  11
BRANCH  10  15
ATOM     15  CB  GLU A   1       5.381   4.576  14.389  0.00  0.00    +0.000 C 
BRANCH  15  16
ATOM     16  CG  GLU A   1       6.347   3.778  13.517  0.00  0.00    +0.000 C 
BRANCH  16  17
ATOM     17  CD  GLU A   1       5.615   3.116  12.383  0.00  0.00    +0.000 C 
ATOM     18  OE1 GLU A   1       4.598   3.595  11.894  0.00  0.00    +0.000 OA
BRANCH  17  19
ATOM     19  OE2 GLU A   1       6.224   2.020  11.898  0.00  0.00    +0.000 OA
ATOM     20  HE2 GLU A   1       5.710   1.193  11.983  0.00  0.00    +0.000 HD
ENDBRANCH  17  19
ENDBRANCH  16  17
ENDBRANCH  15  16
ENDBRANCH  10  15
ENDBRANCH   8  10
ENDBRANCH   4   6
BRANCH   1  21
ATOM     21  C   UNK A   0       1.397   9.582  18.840  0.00  0.00    +0.000 C 
BRANCH  21  22
ATOM     22  N   UNK A   0       0.533  10.024  19.963  0.00  0.00    +0.000 N 
BRANCH  22  29
ATOM     23  C   UNK A   0      -6.298  12.555  17.028  0.00  0.00    +0.000 C 
ATOM     24  C   UNK A   0      -4.990  11.947  17.430  0.00  0.00    +0.000 A 
ATOM     25  N   UNK A   0      -4.471  11.034  16.596  0.00  0.00    +0.000 NA
ATOM     26  C   UNK A   0      -3.306  10.517  16.987  0.00  0.00    +0.000 A 
ATOM     27  C   UNK A   0      -2.621  10.842  18.142  0.00  0.00    +0.000 A 
ATOM     28  C   UNK A   0      -1.388  10.268  18.496  0.00  0.00    +0.000 A 
ATOM     29  C   UNK A   0      -0.688  10.621  19.660  0.00  0.00    +0.000 A 
ATOM     30  C   UNK A   0      -1.334  11.560  20.479  0.00  0.00    +0.000 A 
ATOM     31  C   UNK A   0      -2.578  12.126  20.119  0.00  0.00    +0.000 A 
ATOM     32  C   UNK A   0      -3.243  11.792  18.942  0.00  0.00    +0.000 A 
ATOM     33  N   UNK A   0      -4.424  12.346  18.592  0.00  0.00    +0.000 NA
BRANCH  26  34
ATOM     34  O   UNK A   0      -2.810   9.606  16.104  0.00  0.00    +0.000 OA
ATOM     35  H   UNK A   0      -2.616   8.872  16.710  0.00  0.00    +0.000 HD
ENDBRANCH  26  34
ENDBRANCH  22  29
BRANCH  22  36
ATOM     36  C   UNK A   0       1.149  10.233  21.289  0.00  0.00    +0.000 C 
BRANCH  36  37
ATOM     37  C   UNK A   0       0.705   9.231  22.362  0.00  0.00    +0.000 C 
ATOM     38  F   UNK A   0      -0.467   9.619  22.933  0.00  0.00    +0.000 F 
ENDBRANCH  36  37
ENDBRANCH  22  36
ENDBRANCH  21  22
ENDBRANCH   1  21
TORSDOF 14
ENDMDL
MODEL 2
REMARK VINA RESULT:      -7.7      1.727      2.466
REMARK  Name = 
REMARK  15 active torsions:
REMARK  status: ('A' for Active; 'I' for Inactive)
REMARK    1  A    between atoms: C_1  and  C_2
REMARK    2  A    between atoms: C_4  and  O_5
REMARK    3  A    between atoms: C_8  and  N_9
REMARK    4  A    between atoms: N_9  and  C_10
REMARK    5  A    between atoms: N_9  and  C_13
REMARK    6  A    between atoms: C_10  and  C_11
REMARK    7  A    between atoms: C_13  and  C_14
REMARK    8  A    between atoms: C_17  and  C_18
REMARK    9  A    between atoms: N_20  and  CA_21
REMARK   10  A    between atoms: CA_21  and  CB_22
REMARK   11  A    between atoms: CA_21  and  C_27
REMARK   12  A    between atoms: CB_22  and  CG_23
REMARK   13  A    between atoms: CG_23  and  CD_24
REMARK   14  A    between atoms: CD_24  and  OE2_26
REMARK   15  A    between atoms: C_27  and  OXT_29
REMARK                            x       y       z     vdW  Elec       q    Type
REMARK                         _______ _______ _______ _____ _____    ______ ____
ROOT
ATOM      1  C   UNK A   0       1.495   9.768  18.969  0.00  0.00    +0.000 A 
ATOM      2  C   UNK A   0       2.068   9.589  17.723  0.00  0.00    +0.000 A 
ATOM      3  C   UNK A   0       2.542   8.259  17.523  0.00  0.00    +0.000 A 
ATOM      4  C   UNK A   0       2.299   7.436  18.606  0.00  0.00    +0.000 A 
ATOM      5  S   UNK A   0       1.465   8.291  19.842  0.00  0.00    +0.000 S 
ENDROOT
BRANCH   4   6
ATOM      6  C   UNK A   0       2.678   6.032  18.737  0.00  0.00    +0.000 C 
ATOM      7  O   UNK A   0       2.168   5.270  19.556  0.00  0.00    +0.000 OA
ATOM      8  N   GLU A   1       3.640   5.589  17.861  0.00  0.00    +0.000 N 
ATOM      9  H   GLU A   1       4.010   6.257  17.188  0.00  0.00    +0.000 HD
BRANCH   8  10
ATOM     10  CA  GLU A   1       4.184   4.232  17.850  0.00  0.00    +0.000 C 
BRANCH  10  11
ATOM     11  C   GLU A   1       5.127   4.153  19.055  0.00  0.00    +0.000 C 
ATOM     12  O   GLU A   1       5.154   3.198  19.820  0.00  0.00    +0.000 OA
BRANCH  11  13
ATOM     13  OXT GLU A   1       5.952   5.213  19.199  0.00  0.00    +0.000 OA
ATOM     14  HXT GLU A   1       5.670   5.876  19.868  0.00  0.00    +0.000 HD
ENDBRANCH  11  13
ENDBRANCH  10  11
BRANCH  10  15
ATOM     15  CB  GLU A   1       4.952   3.934  16.547  0.00  0.00    +0.000 C 
BRANCH  15  16
ATOM     16  CG  GLU A   1       5.522   5.165  15.847  0.00  0.00    +0.000 C 
BRANCH  16  17
ATOM     17  CD  GLU A   1       7.005   5.022  15.649  0.00  0.00    +0.000 C 
ATOM     18  OE1 GLU A   1       7.550   5.286  14.583  0.00  0.00    +0.000 OA
BRANCH  17  19
ATOM     19  OE2 GLU A   1       7.679   4.678  16.760  0.00  0.00    +0.000 OA
ATOM     20  HE2 GLU A   1       8.653   4.689  16.670  0.00  0.00    +0.000 HD
ENDBRANCH  17  19
ENDBRANCH  16  17
ENDBRANCH  15  16
ENDBRANCH  10  15
ENDBRANCH   8  10
ENDBRANCH   4   6
BRANCH   1  21
ATOM     21  C   UNK A   0       1.060  11.062  19.622  0.00  0.00    +0.000 C 
BRANCH  21  22
ATOM     22  N   UNK A   0      -0.042  11.031  20.617  0.00  0.00    +0.000 N 
BRANCH  22  29
ATOM     23  C   UNK A   0      -6.878  12.712  17.136  0.00  0.00    +0.000 C 
ATOM     24  C   UNK A   0      -5.539  12.273  17.641  0.00  0.00    +0.000 A 
ATOM     25  N   UNK A   0      -4.833  11.462  16.840  0.00  0.00    +0.000 NA
ATOM     26  C   UNK A   0      -3.646  11.094  17.323  0.00  0.00    +0.000 A 
ATOM     27  C   UNK A   0      -3.111  11.473  18.540  0.00  0.00    +0.000 A 
ATOM     28  C   UNK A   0      -1.847  11.059  18.991  0.00  0.00    +0.000 A 
ATOM     29  C   UNK A   0      -1.302  11.468  20.218  0.00  0.00    +0.000 A 
ATOM     30  C   UNK A   0      -2.137  12.289  20.992  0.00  0.00    +0.000 A 
ATOM     31  C   UNK A   0      -3.411  12.694  20.535  0.00  0.00    +0.000 A 
ATOM     32  C   UNK A   0      -3.922  12.308  19.298  0.00  0.00    +0.000 A 
ATOM     33  N   UNK A   0      -5.133  12.710  18.855  0.00  0.00    +0.000 NA
BRANCH  26  34
ATOM     34  O   UNK A   0      -2.959  10.283  16.472  0.00  0.00    +0.000 OA
ATOM     35  H   UNK A   0      -2.308  10.914  16.123  0.00  0.00    +0.000 HD
ENDBRANCH  26  34
ENDBRANCH  22  29
BRANCH  22  36
ATOM     36  C   UNK A   0       0.302  10.977  22.052  0.00  0.00    +0.000 C 
BRANCH  36  37
ATOM     37  C   UNK A   0      -0.291   9.780  22.805  0.00  0.00    +0.000 C 
ATOM     38  F   UNK A   0      -1.401  10.147  23.501  0.00  0.00    +0.000 F 
ENDBRANCH  36  37
ENDBRANCH  22  36
ENDBRANCH  21  22
ENDBRANCH   1  21
TORSDOF 14
ENDMDL
MODEL 3
REMARK VINA RESULT:      -7.6      2.484      3.329
REMARK  Name = 
REMARK  15 active torsions:
REMARK  status: ('A' for Active; 'I' for Inactive)
REMARK    1  A    between atoms: C_1  and  C_2
REMARK    2  A    between atoms: C_4  and  O_5
REMARK    3  A    between atoms: C_8  and  N_9
REMARK    4  A    between atoms: N_9  and  C_10
REMARK    5  A    between atoms: N_9  and  C_13
REMARK    6  A    between atoms: C_10  and  C_11
REMARK    7  A    between atoms: C_13  and  C_14
REMARK    8  A    between atoms: C_17  and  C_18
REMARK    9  A    between atoms: N_20  and  CA_21
REMARK   10  A    between atoms: CA_21  and  CB_22
REMARK   11  A    between atoms: CA_21  and  C_27
REMARK   12  A    between atoms: CB_22  and  CG_23
REMARK   13  A    between atoms: CG_23  and  CD_24
REMARK   14  A    between atoms: CD_24  and  OE2_26
REMARK   15  A    between atoms: C_27  and  OXT_29
REMARK                            x       y       z     vdW  Elec       q    Type
REMARK                         _______ _______ _______ _____ _____    ______ ____
ROOT
ATOM      1  C   UNK A   0       1.563   9.271  19.067  0.00  0.00    +0.000 A 
ATOM      2  C   UNK A   0       1.292   8.814  20.343  0.00  0.00    +0.000 A 
ATOM      3  C   UNK A   0       1.665   7.450  20.529  0.00  0.00    +0.000 A 
ATOM      4  C   UNK A   0       2.240   6.895  19.402  0.00  0.00    +0.000 A 
ATOM      5  S   UNK A   0       2.347   8.057  18.141  0.00  0.00    +0.000 S 
ENDROOT
BRANCH   4   6
ATOM      6  C   UNK A   0       2.706   5.519  19.248  0.00  0.00    +0.000 C 
ATOM      7  O   UNK A   0       2.303   4.590  19.943  0.00  0.00    +0.000 OA
ATOM      8  N   GLU A   1       3.622   5.308  18.244  0.00  0.00    +0.000 N 
ATOM      9  H   GLU A   1       3.901   6.109  17.684  0.00  0.00    +0.000 HD
BRANCH   8  10
ATOM     10  CA  GLU A   1       4.238   4.016  17.949  0.00  0.00    +0.000 C 
BRANCH  10  11
ATOM     11  C   GLU A   1       5.294   3.800  19.038  0.00  0.00    +0.000 C 
ATOM     12  O   GLU A   1       6.141   4.636  19.322  0.00  0.00    +0.000 OA
BRANCH  11  13
ATOM     13  OXT GLU A   1       5.204   2.617  19.685  0.00  0.00    +0.000 OA
ATOM     14  HXT GLU A   1       4.528   2.580  20.399  0.00  0.00    +0.000 HD
ENDBRANCH  11  13
ENDBRANCH  10  11
BRANCH  10  15
ATOM     15  CB  GLU A   1       4.894   4.000  16.555  0.00  0.00    +0.000 C 
BRANCH  15  16
ATOM     16  CG  GLU A   1       5.609   5.294  16.172  0.00  0.00    +0.000 C 
BRANCH  16  17
ATOM     17  CD  GLU A   1       7.030   5.016  15.771  0.00  0.00    +0.000 C 
ATOM     18  OE1 GLU A   1       7.478   5.346  14.679  0.00  0.00    +0.000 OA
BRANCH  17  19
ATOM     19  OE2 GLU A   1       7.780   4.468  16.744  0.00  0.00    +0.000 OA
ATOM     20  HE2 GLU A   1       8.202   5.110  17.349  0.00  0.00    +0.000 HD
ENDBRANCH  17  19
ENDBRANCH  16  17
ENDBRANCH  15  16
ENDBRANCH  10  15
ENDBRANCH   8  10
ENDBRANCH   4   6
BRANCH   1  21
ATOM     21  C   UNK A   0       1.141  10.578  18.430  0.00  0.00    +0.000 C 
BRANCH  21  22
ATOM     22  N   UNK A   0       0.311  11.525  19.215  0.00  0.00    +0.000 N 
BRANCH  22  29
ATOM     23  C   UNK A   0      -7.484  12.471  19.067  0.00  0.00    +0.000 C 
ATOM     24  C   UNK A   0      -6.003  12.390  19.269  0.00  0.00    +0.000 A 
ATOM     25  N   UNK A   0      -5.525  12.906  20.412  0.00  0.00    +0.000 NA
ATOM     26  C   UNK A   0      -4.204  12.815  20.557  0.00  0.00    +0.000 A 
ATOM     27  C   UNK A   0      -3.325  12.249  19.653  0.00  0.00    +0.000 A 
ATOM     28  C   UNK A   0      -1.938  12.174  19.867  0.00  0.00    +0.000 A 
ATOM     29  C   UNK A   0      -1.056  11.577  18.953  0.00  0.00    +0.000 A 
ATOM     30  C   UNK A   0      -1.654  11.099  17.777  0.00  0.00    +0.000 A 
ATOM     31  C   UNK A   0      -3.049  11.187  17.566  0.00  0.00    +0.000 A 
ATOM     32  C   UNK A   0      -3.916  11.750  18.499  0.00  0.00    +0.000 A 
ATOM     33  N   UNK A   0      -5.250  11.818  18.303  0.00  0.00    +0.000 NA
BRANCH  26  34
ATOM     34  O   UNK A   0      -3.765  13.338  21.735  0.00  0.00    +0.000 OA
ATOM     35  H   UNK A   0      -4.088  12.661  22.353  0.00  0.00    +0.000 HD
ENDBRANCH  26  34
ENDBRANCH  22  29
BRANCH  22  36
ATOM     36  C   UNK A   0       0.977  12.656  19.892  0.00  0.00    +0.000 C 
BRANCH  36  37
ATOM     37  C   UNK A   0       2.091  13.320  19.075  0.00  0.00    +0.000 C 
ATOM     38  F   UNK A   0       1.653  14.477  18.508  0.00  0.00    +0.000 F 
ENDBRANCH  36  37
ENDBRANCH  22  36
ENDBRANCH  21  22
ENDBRANCH   1  21
TORSDOF 14
ENDMDL
MODEL 4
REMARK VINA RESULT:      -7.6      1.840      2.666
REMARK  Name = 
REMARK  15 active torsions:
REMARK  status: ('A' for Active; 'I' for Inactive)
REMARK    1  A    between atoms: C_1  and  C_2
REMARK    2  A    between atoms: C_4  and  O_5
REMARK    3  A    between atoms: C_8  and  N_9
REMARK    4  A    between atoms: N_9  and  C_10
REMARK    5  A    between atoms: N_9  and  C_13
REMARK    6  A    between atoms: C_10  and  C_11
REMARK    7  A    between atoms: C_13  and  C_14
REMARK    8  A    between atoms: C_17  and  C_18
REMARK    9  A    between atoms: N_20  and  CA_21
REMARK   10  A    between atoms: CA_21  and  CB_22
REMARK   11  A    between atoms: CA_21  and  C_27
REMARK   12  A    between atoms: CB_22  and  CG_23
REMARK   13  A    between atoms: CG_23  and  CD_24
REMARK   14  A    between atoms: CD_24  and  OE2_26
REMARK   15  A    between atoms: C_27  and  OXT_29
REMARK                            x       y       z     vdW  Elec       q    Type
REMARK                         _______ _______ _______ _____ _____    ______ ____
ROOT
ATOM      1  C   UNK A   0       1.517   9.528  19.184  0.00  0.00    +0.000 A 
ATOM      2  C   UNK A   0       1.903   9.483  17.858  0.00  0.00    +0.000 A 
ATOM      3  C   UNK A   0       2.482   8.231  17.497  0.00  0.00    +0.000 A 
ATOM      4  C   UNK A   0       2.503   7.330  18.545  0.00  0.00    +0.000 A 
ATOM      5  S   UNK A   0       1.785   8.015  19.948  0.00  0.00    +0.000 S 
ENDROOT
BRANCH   4   6
ATOM      6  C   UNK A   0       3.049   5.976  18.520  0.00  0.00    +0.000 C 
ATOM      7  O   UNK A   0       2.509   5.021  19.074  0.00  0.00    +0.000 OA
ATOM      8  N   GLU A   1       4.213   5.814  17.807  0.00  0.00    +0.000 N 
ATOM      9  H   GLU A   1       4.603   6.634  17.347  0.00  0.00    +0.000 HD
BRANCH   8  10
ATOM     10  CA  GLU A   1       4.940   4.551  17.688  0.00  0.00    +0.000 C 
BRANCH  10  11
ATOM     11  C   GLU A   1       5.512   4.268  19.080  0.00  0.00    +0.000 C 
ATOM     12  O   GLU A   1       6.246   5.049  19.672  0.00  0.00    +0.000 OA
BRANCH  11  13
ATOM     13  OXT GLU A   1       5.124   3.094  19.624  0.00  0.00    +0.000 OA
ATOM     14  HXT GLU A   1       4.625   2.498  19.021  0.00  0.00    +0.000 HD
ENDBRANCH  11  13
ENDBRANCH  10  11
BRANCH  10  15
ATOM     15  CB  GLU A   1       6.074   4.638  16.649  0.00  0.00    +0.000 C 
BRANCH  15  16
ATOM     16  CG  GLU A   1       5.633   5.098  15.261  0.00  0.00    +0.000 C 
BRANCH  16  17
ATOM     17  CD  GLU A   1       6.629   4.672  14.220  0.00  0.00    +0.000 C 
ATOM     18  OE1 GLU A   1       6.399   3.766  13.427  0.00  0.00    +0.000 OA
BRANCH  17  19
ATOM     19  OE2 GLU A   1       7.739   5.430  14.176  0.00  0.00    +0.000 OA
ATOM     20  HE2 GLU A   1       7.636   6.282  13.708  0.00  0.00    +0.000 HD
ENDBRANCH  17  19
ENDBRANCH  16  17
ENDBRANCH  15  16
ENDBRANCH  10  15
ENDBRANCH   8  10
ENDBRANCH   4   6
BRANCH   1  21
ATOM     21  C   UNK A   0       1.051  10.726  19.984  0.00  0.00    +0.000 C 
BRANCH  21  22
ATOM     22  N   UNK A   0      -0.295  10.694  20.610  0.00  0.00    +0.000 N 
BRANCH  22  29
ATOM     23  C   UNK A   0      -7.001  12.900  17.170  0.00  0.00    +0.000 C 
ATOM     24  C   UNK A   0      -5.774  12.605  17.974  0.00  0.00    +0.000 A 
ATOM     25  N   UNK A   0      -5.681  13.207  19.170  0.00  0.00    +0.000 NA
ATOM     26  C   UNK A   0      -4.576  12.919  19.857  0.00  0.00    +0.000 A 
ATOM     27  C   UNK A   0      -3.559  12.078  19.444  0.00  0.00    +0.000 A 
ATOM     28  C   UNK A   0      -2.419  11.806  20.219  0.00  0.00    +0.000 A 
ATOM     29  C   UNK A   0      -1.403  10.933  19.801  0.00  0.00    +0.000 A 
ATOM     30  C   UNK A   0      -1.582  10.383  18.523  0.00  0.00    +0.000 A 
ATOM     31  C   UNK A   0      -2.727  10.669  17.746  0.00  0.00    +0.000 A 
ATOM     32  C   UNK A   0      -3.745  11.510  18.190  0.00  0.00    +0.000 A 
ATOM     33  N   UNK A   0      -4.847  11.769  17.453  0.00  0.00    +0.000 NA
BRANCH  26  34
ATOM     34  O   UNK A   0      -4.530  13.540  21.068  0.00  0.00    +0.000 OA
ATOM     35  H   UNK A   0      -5.294  14.135  20.983  0.00  0.00    +0.000 HD
ENDBRANCH  26  34
ENDBRANCH  22  29
BRANCH  22  36
ATOM     36  C   UNK A   0      -0.398  10.860  22.074  0.00  0.00    +0.000 C 
BRANCH  36  37
ATOM     37  C   UNK A   0      -0.365   9.548  22.867  0.00  0.00    +0.000 C 
ATOM     38  F   UNK A   0      -0.784   8.507  22.098  0.00  0.00    +0.000 F 
ENDBRANCH  36  37
ENDBRANCH  22  36
ENDBRANCH  21  22
ENDBRANCH   1  21
TORSDOF 14
ENDMDL
MODEL 5
REMARK VINA RESULT:      -7.6      3.076      4.707
REMARK  Name = 
REMARK  15 active torsions:
REMARK  status: ('A' for Active; 'I' for Inactive)
REMARK    1  A    between atoms: C_1  and  C_2
REMARK    2  A    between atoms: C_4  and  O_5
REMARK    3  A    between atoms: C_8  and  N_9
REMARK    4  A    between atoms: N_9  and  C_10
REMARK    5  A    between atoms: N_9  and  C_13
REMARK    6  A    between atoms: C_10  and  C_11
REMARK    7  A    between atoms: C_13  and  C_14
REMARK    8  A    between atoms: C_17  and  C_18
REMARK    9  A    between atoms: N_20  and  CA_21
REMARK   10  A    between atoms: CA_21  and  CB_22
REMARK   11  A    between atoms: CA_21  and  C_27
REMARK   12  A    between atoms: CB_22  and  CG_23
REMARK   13  A    between atoms: CG_23  and  CD_24
REMARK   14  A    between atoms: CD_24  and  OE2_26
REMARK   15  A    between atoms: C_27  and  OXT_29
REMARK                            x       y       z     vdW  Elec       q    Type
REMARK                         _______ _______ _______ _____ _____    ______ ____
ROOT
ATOM      1  C   UNK A   0       1.545   9.377  19.130  0.00  0.00    +0.000 A 
ATOM      2  C   UNK A   0       1.485   8.744  20.357  0.00  0.00    +0.000 A 
ATOM      3  C   UNK A   0       1.787   7.353  20.273  0.00  0.00    +0.000 A 
ATOM      4  C   UNK A   0       2.101   6.951  18.988  0.00  0.00    +0.000 A 
ATOM      5  S   UNK A   0       2.054   8.285  17.907  0.00  0.00    +0.000 S 
ENDROOT
BRANCH   4   6
ATOM      6  C   UNK A   0       2.429   5.596  18.554  0.00  0.00    +0.000 C 
ATOM      7  O   UNK A   0       1.632   4.661  18.603  0.00  0.00    +0.000 OA
ATOM      8  N   GLU A   1       3.697   5.421  18.051  0.00  0.00    +0.000 N 
ATOM      9  H   GLU A   1       4.305   6.235  18.011  0.00  0.00    +0.000 HD
BRANCH   8  10
ATOM     10  CA  GLU A   1       4.234   4.139  17.597  0.00  0.00    +0.000 C 
BRANCH  10  11
ATOM     11  C   GLU A   1       5.014   3.570  18.786  0.00  0.00    +0.000 C 
ATOM     12  O   GLU A   1       5.941   4.163  19.322  0.00  0.00    +0.000 OA
BRANCH  11  13
ATOM     13  OXT GLU A   1       4.583   2.366  19.222  0.00  0.00    +0.000 OA
ATOM     14  HXT GLU A   1       5.189   1.614  19.040  0.00  0.00    +0.000 HD
ENDBRANCH  11  13
ENDBRANCH  10  11
BRANCH  10  15
ATOM     15  CB  GLU A   1       5.162   4.308  16.378  0.00  0.00    +0.000 C 
BRANCH  15  16
ATOM     16  CG  GLU A   1       5.669   5.731  16.154  0.00  0.00    +0.000 C 
BRANCH  16  17
ATOM     17  CD  GLU A   1       7.121   5.840  16.525  0.00  0.00    +0.000 C 
ATOM     18  OE1 GLU A   1       7.699   6.919  16.593  0.00  0.00    +0.000 OA
BRANCH  17  19
ATOM     19  OE2 GLU A   1       7.692   4.671  16.866  0.00  0.00    +0.000 OA
ATOM     20  HE2 GLU A   1       7.112   3.889  16.779  0.00  0.00    +0.000 HD
ENDBRANCH  17  19
ENDBRANCH  16  17
ENDBRANCH  15  16
ENDBRANCH  10  15
ENDBRANCH   8  10
ENDBRANCH   4   6
BRANCH   1  21
ATOM     21  C   UNK A   0       1.108  10.783  18.779  0.00  0.00    +0.000 C 
BRANCH  21  22
ATOM     22  N   UNK A   0      -0.230  11.252  19.220  0.00  0.00    +0.000 N 
BRANCH  22  29
ATOM     23  C   UNK A   0      -1.911  15.621  25.526  0.00  0.00    +0.000 C 
ATOM     24  C   UNK A   0      -1.760  14.688  24.364  0.00  0.00    +0.000 A 
ATOM     25  N   UNK A   0      -2.752  13.806  24.171  0.00  0.00    +0.000 NA
ATOM     26  C   UNK A   0      -2.583  12.994  23.128  0.00  0.00    +0.000 A 
ATOM     27  C   UNK A   0      -1.504  12.995  22.265  0.00  0.00    +0.000 A 
ATOM     28  C   UNK A   0      -1.386  12.117  21.173  0.00  0.00    +0.000 A 
ATOM     29  C   UNK A   0      -0.297  12.142  20.289  0.00  0.00    +0.000 A 
ATOM     30  C   UNK A   0       0.700  13.079  20.601  0.00  0.00    +0.000 A 
ATOM     31  C   UNK A   0       0.578  13.952  21.705  0.00  0.00    +0.000 A 
ATOM     32  C   UNK A   0      -0.527  13.940  22.553  0.00  0.00    +0.000 A 
ATOM     33  N   UNK A   0      -0.650  14.786  23.598  0.00  0.00    +0.000 NA
BRANCH  26  34
ATOM     34  O   UNK A   0      -3.619  12.126  22.962  0.00  0.00    +0.000 OA
ATOM     35  H   UNK A   0      -3.629  11.703  23.837  0.00  0.00    +0.000 HD
ENDBRANCH  26  34
ENDBRANCH  22  29
BRANCH  22  36
ATOM     36  C   UNK A   0      -1.417  10.458  18.844  0.00  0.00    +0.000 C 
BRANCH  36  37
ATOM     37  C   UNK A   0      -1.954  10.743  17.436  0.00  0.00    +0.000 C 
ATOM     38  F   UNK A   0      -2.312   9.589  16.812  0.00  0.00    +0.000 F 
ENDBRANCH  36  37
ENDBRANCH  22  36
ENDBRANCH  21  22
ENDBRANCH   1  21
TORSDOF 14
ENDMDL
MODEL 6
REMARK VINA RESULT:      -7.5      3.933      5.866
REMARK  Name = 
REMARK  15 active torsions:
REMARK  status: ('A' for Active; 'I' for Inactive)
REMARK    1  A    between atoms: C_1  and  C_2
REMARK    2  A    between atoms: C_4  and  O_5
REMARK    3  A    between atoms: C_8  and  N_9
REMARK    4  A    between atoms: N_9  and  C_10
REMARK    5  A    between atoms: N_9  and  C_13
REMARK    6  A    between atoms: C_10  and  C_11
REMARK    7  A    between atoms: C_13  and  C_14
REMARK    8  A    between atoms: C_17  and  C_18
REMARK    9  A    between atoms: N_20  and  CA_21
REMARK   10  A    between atoms: CA_21  and  CB_22
REMARK   11  A    between atoms: CA_21  and  C_27
REMARK   12  A    between atoms: CB_22  and  CG_23
REMARK   13  A    between atoms: CG_23  and  CD_24
REMARK   14  A    between atoms: CD_24  and  OE2_26
REMARK   15  A    between atoms: C_27  and  OXT_29
REMARK                            x       y       z     vdW  Elec       q    Type
REMARK                         _______ _______ _______ _____ _____    ______ ____
ROOT
ATOM      1  C   UNK A   0       1.247   9.189  19.439  0.00  0.00    +0.000 A 
ATOM      2  C   UNK A   0       1.566   9.453  18.120  0.00  0.00    +0.000 A 
ATOM      3  C   UNK A   0       2.390   8.444  17.542  0.00  0.00    +0.000 A 
ATOM      4  C   UNK A   0       2.666   7.412  18.418  0.00  0.00    +0.000 A 
ATOM      5  S   UNK A   0       1.886   7.672  19.927  0.00  0.00    +0.000 S 
ENDROOT
BRANCH   4   6
ATOM      6  C   UNK A   0       3.499   6.242  18.154  0.00  0.00    +0.000 C 
ATOM      7  O   UNK A   0       3.062   5.093  18.140  0.00  0.00    +0.000 OA
ATOM      8  N   GLU A   1       4.823   6.500  17.889  0.00  0.00    +0.000 N 
ATOM      9  H   GLU A   1       5.124   7.471  17.888  0.00  0.00    +0.000 HD
BRANCH   8  10
ATOM     10  CA  GLU A   1       5.829   5.470  17.635  0.00  0.00    +0.000 C 
BRANCH  10  11
ATOM     11  C   GLU A   1       6.061   4.774  18.980  0.00  0.00    +0.000 C 
ATOM     12  O   GLU A   1       6.673   5.294  19.904  0.00  0.00    +0.000 OA
BRANCH  11  13
ATOM     13  OXT GLU A   1       5.514   3.544  19.082  0.00  0.00    +0.000 OA
ATOM     14  HXT GLU A   1       5.114   3.193  18.255  0.00  0.00    +0.000 HD
ENDBRANCH  11  13
ENDBRANCH  10  11
BRANCH  10  15
ATOM     15  CB  GLU A   1       7.146   6.073  17.109  0.00  0.00    +0.000 C 
BRANCH  15  16
ATOM     16  CG  GLU A   1       7.168   7.599  17.047  0.00  0.00    +0.000 C 
BRANCH  16  17
ATOM     17  CD  GLU A   1       8.107   8.157  18.079  0.00  0.00    +0.000 C 
ATOM     18  OE1 GLU A   1       8.363   9.354  18.150  0.00  0.00    +0.000 OA
BRANCH  17  19
ATOM     19  OE2 GLU A   1       8.556   7.250  18.964  0.00  0.00    +0.000 OA
ATOM     20  HE2 GLU A   1       9.410   7.474  19.385  0.00  0.00    +0.000 HD
ENDBRANCH  17  19
ENDBRANCH  16  17
ENDBRANCH  15  16
ENDBRANCH  10  15
ENDBRANCH   8  10
ENDBRANCH   4   6
BRANCH   1  21
ATOM     21  C   UNK A   0       0.567  10.100  20.439  0.00  0.00    +0.000 C 
BRANCH  21  22
ATOM     22  N   UNK A   0       0.056  11.416  19.982  0.00  0.00    +0.000 N 
BRANCH  22  29
ATOM     23  C   UNK A   0       5.095  17.431  20.310  0.00  0.00    +0.000 C 
ATOM     24  C   UNK A   0       4.224  16.236  20.074  0.00  0.00    +0.000 A 
ATOM     25  N   UNK A   0       4.498  15.500  18.987  0.00  0.00    +0.000 NA
ATOM     26  C   UNK A   0       3.703  14.445  18.812  0.00  0.00    +0.000 A 
ATOM     27  C   UNK A   0       2.659  14.069  19.635  0.00  0.00    +0.000 A 
ATOM     28  C   UNK A   0       1.859  12.937  19.402  0.00  0.00    +0.000 A 
ATOM     29  C   UNK A   0       0.816  12.550  20.257  0.00  0.00    +0.000 A 
ATOM     30  C   UNK A   0       0.592  13.407  21.345  0.00  0.00    +0.000 A 
ATOM     31  C   UNK A   0       1.395  14.548  21.568  0.00  0.00    +0.000 A 
ATOM     32  C   UNK A   0       2.451  14.899  20.729  0.00  0.00    +0.000 A 
ATOM     33  N   UNK A   0       3.228  15.981  20.953  0.00  0.00    +0.000 NA
BRANCH  26  34
ATOM     34  O   UNK A   0       4.026  13.719  17.705  0.00  0.00    +0.000 OA
ATOM     35  H   UNK A   0       4.920  13.428  17.948  0.00  0.00    +0.000 HD
ENDBRANCH  26  34
ENDBRANCH  22  29
BRANCH  22  36
ATOM     36  C   UNK A   0      -1.382  11.548  19.672  0.00  0.00    +0.000 C 
BRANCH  36  37
ATOM     37  C   UNK A   0      -1.700  11.700  18.179  0.00  0.00    +0.000 C 
ATOM     38  F   UNK A   0      -1.085  12.798  17.663  0.00  0.00    +0.000 F 
ENDBRANCH  36  37
ENDBRANCH  22  36
ENDBRANCH  21  22
ENDBRANCH   1  21
TORSDOF 14
ENDMDL
MODEL 7
REMARK VINA RESULT:      -7.5      3.497      5.193
REMARK  Name = 
REMARK  15 active torsions:
REMARK  status: ('A' for Active; 'I' for Inactive)
REMARK    1  A    between atoms: C_1  and  C_2
REMARK    2  A    between atoms: C_4  and  O_5
REMARK    3  A    between atoms: C_8  and  N_9
REMARK    4  A    between atoms: N_9  and  C_10
REMARK    5  A    between atoms: N_9  and  C_13
REMARK    6  A    between atoms: C_10  and  C_11
REMARK    7  A    between atoms: C_13  and  C_14
REMARK    8  A    between atoms: C_17  and  C_18
REMARK    9  A    between atoms: N_20  and  CA_21
REMARK   10  A    between atoms: CA_21  and  CB_22
REMARK   11  A    between atoms: CA_21  and  C_27
REMARK   12  A    between atoms: CB_22  and  CG_23
REMARK   13  A    between atoms: CG_23  and  CD_24
REMARK   14  A    between atoms: CD_24  and  OE2_26
REMARK   15  A    between atoms: C_27  and  OXT_29
REMARK                            x       y       z     vdW  Elec       q    Type
REMARK                         _______ _______ _______ _____ _____    ______ ____
ROOT
ATOM      1  C   UNK A   0       0.854   9.864  19.453  0.00  0.00    +0.000 A 
ATOM      2  C   UNK A   0       0.936   9.095  20.599  0.00  0.00    +0.000 A 
ATOM      3  C   UNK A   0       1.678   7.894  20.402  0.00  0.00    +0.000 A 
ATOM      4  C   UNK A   0       2.175   7.776  19.118  0.00  0.00    +0.000 A 
ATOM      5  S   UNK A   0       1.756   9.152  18.178  0.00  0.00    +0.000 S 
ENDROOT
BRANCH   4   6
ATOM      6  C   UNK A   0       2.949   6.661  18.580  0.00  0.00    +0.000 C 
ATOM      7  O   UNK A   0       3.699   6.766  17.612  0.00  0.00    +0.000 OA
ATOM      8  N   GLU A   1       2.813   5.465  19.244  0.00  0.00    +0.000 N 
ATOM      9  H   GLU A   1       2.198   5.441  20.054  0.00  0.00    +0.000 HD
BRANCH   8  10
ATOM     10  CA  GLU A   1       3.471   4.221  18.847  0.00  0.00    +0.000 C 
BRANCH  10  11
ATOM     11  C   GLU A   1       2.734   3.744  17.591  0.00  0.00    +0.000 C 
ATOM     12  O   GLU A   1       1.578   3.343  17.608  0.00  0.00    +0.000 OA
BRANCH  11  13
ATOM     13  OXT GLU A   1       3.453   3.820  16.450  0.00  0.00    +0.000 OA
ATOM     14  HXT GLU A   1       3.245   4.591  15.875  0.00  0.00    +0.000 HD
ENDBRANCH  11  13
ENDBRANCH  10  11
BRANCH  10  15
ATOM     15  CB  GLU A   1       3.393   3.153  19.954  0.00  0.00    +0.000 C 
BRANCH  15  16
ATOM     16  CG  GLU A   1       2.721   3.620  21.244  0.00  0.00    +0.000 C 
BRANCH  16  17
ATOM     17  CD  GLU A   1       1.354   3.011  21.380  0.00  0.00    +0.000 C 
ATOM     18  OE1 GLU A   1       1.042   2.312  22.337  0.00  0.00    +0.000 OA
BRANCH  17  19
ATOM     19  OE2 GLU A   1       0.489   3.380  20.419  0.00  0.00    +0.000 OA
ATOM     20  HE2 GLU A   1       0.675   3.010  19.533  0.00  0.00    +0.000 HD
ENDBRANCH  17  19
ENDBRANCH  16  17
ENDBRANCH  15  16
ENDBRANCH  10  15
ENDBRANCH   8  10
ENDBRANCH   4   6
BRANCH   1  21
ATOM     21  C   UNK A   0       0.003  11.092  19.207  0.00  0.00    +0.000 C 
BRANCH  21  22
ATOM     22  N   UNK A   0      -0.048  12.152  20.246  0.00  0.00    +0.000 N 
BRANCH  22  29
ATOM     23  C   UNK A   0      -7.230  13.081  23.284  0.00  0.00    +0.000 C 
ATOM     24  C   UNK A   0      -5.948  12.929  22.526  0.00  0.00    +0.000 A 
ATOM     25  N   UNK A   0      -6.016  13.086  21.195  0.00  0.00    +0.000 NA
ATOM     26  C   UNK A   0      -4.856  12.945  20.555  0.00  0.00    +0.000 A 
ATOM     27  C   UNK A   0      -3.636  12.660  21.139  0.00  0.00    +0.000 A 
ATOM     28  C   UNK A   0      -2.441  12.532  20.410  0.00  0.00    +0.000 A 
ATOM     29  C   UNK A   0      -1.203  12.266  21.015  0.00  0.00    +0.000 A 
ATOM     30  C   UNK A   0      -1.249  12.086  22.406  0.00  0.00    +0.000 A 
ATOM     31  C   UNK A   0      -2.456  12.207  23.130  0.00  0.00    +0.000 A 
ATOM     32  C   UNK A   0      -3.671  12.508  22.520  0.00  0.00    +0.000 A 
ATOM     33  N   UNK A   0      -4.821  12.641  23.216  0.00  0.00    +0.000 NA
BRANCH  26  34
ATOM     34  O   UNK A   0      -4.969  13.127  19.211  0.00  0.00    +0.000 OA
ATOM     35  H   UNK A   0      -4.043  13.315  18.985  0.00  0.00    +0.000 HD
ENDBRANCH  26  34
ENDBRANCH  22  29
BRANCH  22  36
ATOM     36  C   UNK A   0       0.885  13.292  20.140  0.00  0.00    +0.000 C 
BRANCH  36  37
ATOM     37  C   UNK A   0       0.602  14.239  18.968  0.00  0.00    +0.000 C 
ATOM     38  F   UNK A   0       1.740  14.498  18.269  0.00  0.00    +0.000 F 
ENDBRANCH  36  37
ENDBRANCH  22  36
ENDBRANCH  21  22
ENDBRANCH   1  21
TORSDOF 14
ENDMDL
MODEL 8
REMARK VINA RESULT:      -7.3      3.221      4.399
REMARK  Name = 
REMARK  15 active torsions:
REMARK  status: ('A' for Active; 'I' for Inactive)
REMARK    1  A    between atoms: C_1  and  C_2
REMARK    2  A    between atoms: C_4  and  O_5
REMARK    3  A    between atoms: C_8  and  N_9
REMARK    4  A    between atoms: N_9  and  C_10
REMARK    5  A    between atoms: N_9  and  C_13
REMARK    6  A    between atoms: C_10  and  C_11
REMARK    7  A    between atoms: C_13  and  C_14
REMARK    8  A    between atoms: C_17  and  C_18
REMARK    9  A    between atoms: N_20  and  CA_21
REMARK   10  A    between atoms: CA_21  and  CB_22
REMARK   11  A    between atoms: CA_21  and  C_27
REMARK   12  A    between atoms: CB_22  and  CG_23
REMARK   13  A    between atoms: CG_23  and  CD_24
REMARK   14  A    between atoms: CD_24  and  OE2_26
REMARK   15  A    between atoms: C_27  and  OXT_29
REMARK                            x       y       z     vdW  Elec       q    Type
REMARK                         _______ _______ _______ _____ _____    ______ ____
ROOT
ATOM      1  C   UNK A   0       1.512   8.782  19.688  0.00  0.00    +0.000 A 
ATOM      2  C   UNK A   0       1.892   9.009  18.378  0.00  0.00    +0.000 A 
ATOM      3  C   UNK A   0       2.523   7.876  17.785  0.00  0.00    +0.000 A 
ATOM      4  C   UNK A   0       2.589   6.793  18.641  0.00  0.00    +0.000 A 
ATOM      5  S   UNK A   0       1.851   7.164  20.147  0.00  0.00    +0.000 S 
ENDROOT
BRANCH   4   6
ATOM      6  C   UNK A   0       3.194   5.494  18.358  0.00  0.00    +0.000 C 
ATOM      7  O   UNK A   0       2.547   4.452  18.279  0.00  0.00    +0.000 OA
ATOM      8  N   GLU A   1       4.554   5.500  18.156  0.00  0.00    +0.000 N 
ATOM      9  H   GLU A   1       5.036   6.394  18.208  0.00  0.00    +0.000 HD
BRANCH   8  10
ATOM     10  CA  GLU A   1       5.355   4.304  17.896  0.00  0.00    +0.000 C 
BRANCH  10  11
ATOM     11  C   GLU A   1       6.776   4.648  18.353  0.00  0.00    +0.000 C 
ATOM     12  O   GLU A   1       7.013   5.388  19.299  0.00  0.00    +0.000 OA
BRANCH  11  13
ATOM     13  OXT GLU A   1       7.758   4.051  17.644  0.00  0.00    +0.000 OA
ATOM     14  HXT GLU A   1       7.791   4.289  16.690  0.00  0.00    +0.000 HD
ENDBRANCH  11  13
ENDBRANCH  10  11
BRANCH  10  15
ATOM     15  CB  GLU A   1       5.348   3.924  16.403  0.00  0.00    +0.000 C 
BRANCH  15  16
ATOM     16  CG  GLU A   1       5.539   5.098  15.445  0.00  0.00    +0.000 C 
BRANCH  16  17
ATOM     17  CD  GLU A   1       6.670   4.826  14.493  0.00  0.00    +0.000 C 
ATOM     18  OE1 GLU A   1       6.517   4.175  13.466  0.00  0.00    +0.000 OA
BRANCH  17  19
ATOM     19  OE2 GLU A   1       7.823   5.436  14.819  0.00  0.00    +0.000 OA
ATOM     20  HE2 GLU A   1       8.373   4.957  15.469  0.00  0.00    +0.000 HD
ENDBRANCH  17  19
ENDBRANCH  16  17
ENDBRANCH  15  16
ENDBRANCH  10  15
ENDBRANCH   8  10
ENDBRANCH   4   6
BRANCH   1  21
ATOM     21  C   UNK A   0       1.000   9.783  20.701  0.00  0.00    +0.000 C 
BRANCH  21  22
ATOM     22  N   UNK A   0      -0.096  10.706  20.311  0.00  0.00    +0.000 N 
BRANCH  22  29
ATOM     23  C   UNK A   0      -2.649  16.219  25.287  0.00  0.00    +0.000 C 
ATOM     24  C   UNK A   0      -2.315  15.056  24.406  0.00  0.00    +0.000 A 
ATOM     25  N   UNK A   0      -3.145  14.004  24.461  0.00  0.00    +0.000 NA
ATOM     26  C   UNK A   0      -2.816  12.989  23.662  0.00  0.00    +0.000 A 
ATOM     27  C   UNK A   0      -1.725  12.944  22.815  0.00  0.00    +0.000 A 
ATOM     28  C   UNK A   0      -1.435  11.846  21.987  0.00  0.00    +0.000 A 
ATOM     29  C   UNK A   0      -0.337  11.818  21.112  0.00  0.00    +0.000 A 
ATOM     30  C   UNK A   0       0.485  12.954  21.158  0.00  0.00    +0.000 A 
ATOM     31  C   UNK A   0       0.191  14.050  21.999  0.00  0.00    +0.000 A 
ATOM     32  C   UNK A   0      -0.923  14.078  22.835  0.00  0.00    +0.000 A 
ATOM     33  N   UNK A   0      -1.212  15.133  23.626  0.00  0.00    +0.000 NA
BRANCH  26  34
ATOM     34  O   UNK A   0      -3.693  11.950  23.740  0.00  0.00    +0.000 OA
ATOM     35  H   UNK A   0      -3.784  11.876  24.704  0.00  0.00    +0.000 HD
ENDBRANCH  26  34
ENDBRANCH  22  29
BRANCH  22  36
ATOM     36  C   UNK A   0      -1.146  10.211  19.397  0.00  0.00    +0.000 C 
BRANCH  36  37
ATOM     37  C   UNK A   0      -1.279  11.005  18.092  0.00  0.00    +0.000 C 
ATOM     38  F   UNK A   0      -1.684  10.198  17.074  0.00  0.00    +0.000 F 
ENDBRANCH  36  37
ENDBRANCH  22  36
ENDBRANCH  21  22
ENDBRANCH   1  21
TORSDOF 14
ENDMDL
MODEL 9
REMARK VINA RESULT:      -7.3      3.298      4.698
REMARK  Name = 
REMARK  15 active torsions:
REMARK  status: ('A' for Active; 'I' for Inactive)
REMARK    1  A    between atoms: C_1  and  C_2
REMARK    2  A    between atoms: C_4  and  O_5
REMARK    3  A    between atoms: C_8  and  N_9
REMARK    4  A    between atoms: N_9  and  C_10
REMARK    5  A    between atoms: N_9  and  C_13
REMARK    6  A    between atoms: C_10  and  C_11
REMARK    7  A    between atoms: C_13  and  C_14
REMARK    8  A    between atoms: C_17  and  C_18
REMARK    9  A    between atoms: N_20  and  CA_21
REMARK   10  A    between atoms: CA_21  and  CB_22
REMARK   11  A    between atoms: CA_21  and  C_27
REMARK   12  A    between atoms: CB_22  and  CG_23
REMARK   13  A    between atoms: CG_23  and  CD_24
REMARK   14  A    between atoms: CD_24  and  OE2_26
REMARK   15  A    between atoms: C_27  and  OXT_29
REMARK                            x       y       z     vdW  Elec       q    Type
REMARK                         _______ _______ _______ _____ _____    ______ ____
ROOT
ATOM      1  C   UNK A   0       0.845   9.797  19.417  0.00  0.00    +0.000 A 
ATOM      2  C   UNK A   0       0.764   9.404  20.739  0.00  0.00    +0.000 A 
ATOM      3  C   UNK A   0       1.368   8.133  20.973  0.00  0.00    +0.000 A 
ATOM      4  C   UNK A   0       1.926   7.589  19.832  0.00  0.00    +0.000 A 
ATOM      5  S   UNK A   0       1.733   8.653  18.496  0.00  0.00    +0.000 S 
ENDROOT
BRANCH   4   6
ATOM      6  C   UNK A   0       2.593   6.295  19.718  0.00  0.00    +0.000 C 
ATOM      7  O   UNK A   0       2.190   5.278  20.277  0.00  0.00    +0.000 OA
ATOM      8  N   GLU A   1       3.709   6.267  18.915  0.00  0.00    +0.000 N 
ATOM      9  H   GLU A   1       3.983   7.133  18.458  0.00  0.00    +0.000 HD
BRANCH   8  10
ATOM     10  CA  GLU A   1       4.539   5.084  18.698  0.00  0.00    +0.000 C 
BRANCH  10  11
ATOM     11  C   GLU A   1       5.987   5.584  18.707  0.00  0.00    +0.000 C 
ATOM     12  O   GLU A   1       6.447   6.315  17.839  0.00  0.00    +0.000 OA
BRANCH  11  13
ATOM     13  OXT GLU A   1       6.720   5.177  19.766  0.00  0.00    +0.000 OA
ATOM     14  HXT GLU A   1       7.146   4.297  19.667  0.00  0.00    +0.000 HD
ENDBRANCH  11  13
ENDBRANCH  10  11
BRANCH  10  15
ATOM     15  CB  GLU A   1       4.217   4.397  17.356  0.00  0.00    +0.000 C 
BRANCH  15  16
ATOM     16  CG  GLU A   1       3.816   2.928  17.472  0.00  0.00    +0.000 C 
BRANCH  16  17
ATOM     17  CD  GLU A   1       2.341   2.801  17.732  0.00  0.00    +0.000 C 
ATOM     18  OE1 GLU A   1       1.532   3.624  17.320  0.00  0.00    +0.000 OA
BRANCH  17  19
ATOM     19  OE2 GLU A   1       1.989   1.667  18.364  0.00  0.00    +0.000 OA
ATOM     20  HE2 GLU A   1       2.608   1.375  19.061  0.00  0.00    +0.000 HD
ENDBRANCH  17  19
ENDBRANCH  16  17
ENDBRANCH  15  16
ENDBRANCH  10  15
ENDBRANCH   8  10
ENDBRANCH   4   6
BRANCH   1  21
ATOM     21  C   UNK A   0       0.164  10.970  18.744  0.00  0.00    +0.000 C 
BRANCH  21  22
ATOM     22  N   UNK A   0      -1.319  10.988  18.659  0.00  0.00    +0.000 N 
BRANCH  22  29
ATOM     23  C   UNK A   0      -4.005  15.522  24.482  0.00  0.00    +0.000 C 
ATOM     24  C   UNK A   0      -3.315  14.666  23.465  0.00  0.00    +0.000 A 
ATOM     25  N   UNK A   0      -2.028  14.373  23.703  0.00  0.00    +0.000 NA
ATOM     26  C   UNK A   0      -1.448  13.609  22.777  0.00  0.00    +0.000 A 
ATOM     27  C   UNK A   0      -2.053  13.116  21.636  0.00  0.00    +0.000 A 
ATOM     28  C   UNK A   0      -1.391  12.305  20.699  0.00  0.00    +0.000 A 
ATOM     29  C   UNK A   0      -2.020  11.790  19.555  0.00  0.00    +0.000 A 
ATOM     30  C   UNK A   0      -3.356  12.185  19.385  0.00  0.00    +0.000 A 
ATOM     31  C   UNK A   0      -4.012  13.008  20.328  0.00  0.00    +0.000 A 
ATOM     32  C   UNK A   0      -3.384  13.482  21.477  0.00  0.00    +0.000 A 
ATOM     33  N   UNK A   0      -4.018  14.254  22.386  0.00  0.00    +0.000 NA
BRANCH  26  34
ATOM     34  O   UNK A   0      -0.148  13.324  23.066  0.00  0.00    +0.000 OA
ATOM     35  H   UNK A   0      -0.100  12.407  22.750  0.00  0.00    +0.000 HD
ENDBRANCH  26  34
ENDBRANCH  22  29
BRANCH  22  36
ATOM     36  C   UNK A   0      -2.002   9.871  17.976  0.00  0.00    +0.000 C 
BRANCH  36  37
ATOM     37  C   UNK A   0      -2.264  10.104  16.483  0.00  0.00    +0.000 C 
ATOM     38  F   UNK A   0      -2.303  11.434  16.200  0.00  0.00    +0.000 F 
ENDBRANCH  36  37
ENDBRANCH  22  36
ENDBRANCH  21  22
ENDBRANCH   1  21
TORSDOF 14
ENDMDL
