MODEL 1
REMARK VINA RESULT:      -6.8      0.000      0.000
REMARK  Name = 
REMARK  18 active torsions:
REMARK  status: ('A' for Active; 'I' for Inactive)
REMARK    1  A    between atoms: C_1  and  C_2
REMARK    2  A    between atoms: C_2  and  C_3
REMARK    3  A    between atoms: C_3  and  C_4
REMARK    4  A    between atoms: C_4  and  C_5
REMARK    5  A    between atoms: C_5  and  C_6
REMARK    6  A    between atoms: C_6  and  C_7
REMARK    7  A    between atoms: C_7  and  C_8
REMARK    8  A    between atoms: C_8  and  C_9
REMARK    9  A    between atoms: C_10  and  C_11
REMARK   10  A    between atoms: C_11  and  C_12
REMARK   11  A    between atoms: C_12  and  C_13
REMARK   12  A    between atoms: C_13  and  C_14
REMARK   13  A    between atoms: C_14  and  C_15
REMARK   14  A    between atoms: C_15  and  C_16
REMARK   15  A    between atoms: C_16  and  C_17
REMARK   16  A    between atoms: C_17  and  C_18
REMARK   17  A    between atoms: C_19  and  C_20
REMARK   18  A    between atoms: C_21  and  O_22
REMARK                            x       y       z     vdW  Elec       q    Type
REMARK                         _______ _______ _______ _____ _____    ______ ____
ROOT
ATOM      1  C   UNL     1       1.178   8.806  19.453  0.00  0.00    +0.000 C 
ENDROOT
BRANCH   1   2
ATOM      2  C   UNL     1       0.097   9.814  19.735  0.00  0.00    +0.000 A 
ATOM      3  C   UNL     1       0.066  10.585  20.928  0.00  0.00    +0.000 A 
ATOM      4  C   UNL     1       1.108  10.409  22.006  0.00  0.00    +0.000 C 
ATOM      5  C   UNL     1      -0.951  11.540  21.106  0.00  0.00    +0.000 A 
ATOM      6  C   UNL     1      -1.931  11.769  20.133  0.00  0.00    +0.000 A 
ATOM      7  C   UNL     1      -1.901  11.035  18.935  0.00  0.00    +0.000 A 
ATOM      8  C   UNL     1      -0.896  10.086  18.764  0.00  0.00    +0.000 A 
ATOM      9  N   UNL     1      -1.082   9.539  17.512  0.00  0.00    +0.000 N 
ATOM     10  C   UNL     1      -2.176  10.078  16.885  0.00  0.00    +0.000 A 
ATOM     11  C   UNL     1      -2.722   9.801  15.626  0.00  0.00    +0.000 A 
ATOM     12  C   UNL     1      -3.861  10.515  15.246  0.00  0.00    +0.000 A 
ATOM     13  C   UNL     1      -4.425  11.468  16.091  0.00  0.00    +0.000 A 
ATOM     14  C   UNL     1      -3.861  11.733  17.345  0.00  0.00    +0.000 A 
ATOM     15  C   UNL     1      -2.714  11.024  17.755  0.00  0.00    +0.000 A 
ATOM     16  H   UNL     1      -0.489   8.831  17.103  0.00  0.00    +0.000 HD
BRANCH   5  17
ATOM     17  O   UNL     1      -1.055  12.320  22.229  0.00  0.00    +0.000 OA
ATOM     18  H   UNL     1      -1.592  11.881  22.911  0.00  0.00    +0.000 HD
ENDBRANCH   5  17
ENDBRANCH   1   2
BRANCH   1  19
ATOM     19  C   UNL     1       1.979   9.234  18.232  0.00  0.00    +0.000 C 
BRANCH  19  20
ATOM     20  C   UNL     1       2.883   8.102  17.779  0.00  0.00    +0.000 C 
BRANCH  20  21
ATOM     21  C   UNL     1       2.445   6.802  18.420  0.00  0.00    +0.000 C 
BRANCH  21  22
ATOM     22  C   UNL     1       3.538   6.270  19.336  0.00  0.00    +0.000 C 
BRANCH  22  23
ATOM     23  C   UNL     1       2.979   5.194  20.254  0.00  0.00    +0.000 C 
BRANCH  23  24
ATOM     24  C   UNL     1       1.460   5.193  20.201  0.00  0.00    +0.000 C 
BRANCH  24  26
ATOM     25  C   UNL     1       0.970   2.870  19.469  0.00  0.00    +0.000 C 
ATOM     26  C   UNL     1       0.887   3.816  20.394  0.00  0.00    +0.000 C 
BRANCH  25  27
ATOM     27  C   UNL     1       1.664   3.099  18.159  0.00  0.00    +0.000 C 
BRANCH  27  28
ATOM     28  C   UNL     1       2.764   2.090  17.908  0.00  0.00    +0.000 C 
BRANCH  28  29
ATOM     29  C   UNL     1       4.078   2.817  17.668  0.00  0.00    +0.000 C 
BRANCH  29  30
ATOM     30  C   UNL     1       3.874   3.953  16.683  0.00  0.00    +0.000 C 
BRANCH  30  31
ATOM     31  C   UNL     1       5.183   4.305  15.990  0.00  0.00    +0.000 C 
BRANCH  31  32
ATOM     32  C   UNL     1       5.561   5.751  16.284  0.00  0.00    +0.000 C 
BRANCH  32  34
ATOM     33  C   UNL     1       7.397   7.060  17.370  0.00  0.00    +0.000 C 
ATOM     34  C   UNL     1       6.506   5.836  17.476  0.00  0.00    +0.000 C 
ENDBRANCH  32  34
ENDBRANCH  31  32
ENDBRANCH  30  31
ENDBRANCH  29  30
ENDBRANCH  28  29
ENDBRANCH  27  28
ENDBRANCH  25  27
ENDBRANCH  24  26
ENDBRANCH  23  24
ENDBRANCH  22  23
ENDBRANCH  21  22
ENDBRANCH  20  21
ENDBRANCH  19  20
ENDBRANCH   1  19
TORSDOF 16
ENDMDL
MODEL 2
REMARK VINA RESULT:      -6.6      2.768      4.516
REMARK  Name = 
REMARK  18 active torsions:
REMARK  status: ('A' for Active; 'I' for Inactive)
REMARK    1  A    between atoms: C_1  and  C_2
REMARK    2  A    between atoms: C_2  and  C_3
REMARK    3  A    between atoms: C_3  and  C_4
REMARK    4  A    between atoms: C_4  and  C_5
REMARK    5  A    between atoms: C_5  and  C_6
REMARK    6  A    between atoms: C_6  and  C_7
REMARK    7  A    between atoms: C_7  and  C_8
REMARK    8  A    between atoms: C_8  and  C_9
REMARK    9  A    between atoms: C_10  and  C_11
REMARK   10  A    between atoms: C_11  and  C_12
REMARK   11  A    between atoms: C_12  and  C_13
REMARK   12  A    between atoms: C_13  and  C_14
REMARK   13  A    between atoms: C_14  and  C_15
REMARK   14  A    between atoms: C_15  and  C_16
REMARK   15  A    between atoms: C_16  and  C_17
REMARK   16  A    between atoms: C_17  and  C_18
REMARK   17  A    between atoms: C_19  and  C_20
REMARK   18  A    between atoms: C_21  and  O_22
REMARK                            x       y       z     vdW  Elec       q    Type
REMARK                         _______ _______ _______ _____ _____    ______ ____
ROOT
ATOM      1  C   UNL     1       1.972   6.657  21.084  0.00  0.00    +0.000 C 
ENDROOT
BRANCH   1   2
ATOM      2  C   UNL     1       1.663   7.899  20.292  0.00  0.00    +0.000 A 
ATOM      3  C   UNL     1       2.116   8.084  18.958  0.00  0.00    +0.000 A 
ATOM      4  C   UNL     1       2.970   7.049  18.266  0.00  0.00    +0.000 C 
ATOM      5  C   UNL     1       1.754   9.251  18.263  0.00  0.00    +0.000 A 
ATOM      6  C   UNL     1       0.944  10.237  18.839  0.00  0.00    +0.000 A 
ATOM      7  C   UNL     1       0.465  10.058  20.149  0.00  0.00    +0.000 A 
ATOM      8  C   UNL     1       0.829   8.903  20.836  0.00  0.00    +0.000 A 
ATOM      9  N   UNL     1       0.211   8.969  22.068  0.00  0.00    +0.000 N 
ATOM     10  C   UNL     1      -0.513  10.126  22.207  0.00  0.00    +0.000 A 
ATOM     11  C   UNL     1      -1.271  10.591  23.288  0.00  0.00    +0.000 A 
ATOM     12  C   UNL     1      -1.906  11.827  23.144  0.00  0.00    +0.000 A 
ATOM     13  C   UNL     1      -1.789  12.561  21.966  0.00  0.00    +0.000 A 
ATOM     14  C   UNL     1      -1.029  12.076  20.895  0.00  0.00    +0.000 A 
ATOM     15  C   UNL     1      -0.373  10.834  21.015  0.00  0.00    +0.000 A 
ATOM     16  H   UNL     1       0.278   8.257  22.780  0.00  0.00    +0.000 HD
BRANCH   5  17
ATOM     17  O   UNL     1       2.153   9.509  16.977  0.00  0.00    +0.000 OA
ATOM     18  H   UNL     1       1.670   8.952  16.342  0.00  0.00    +0.000 HD
ENDBRANCH   5  17
ENDBRANCH   1   2
BRANCH   1  19
ATOM     19  C   UNL     1       2.023   5.451  20.156  0.00  0.00    +0.000 C 
BRANCH  19  20
ATOM     20  C   UNL     1       0.922   4.469  20.517  0.00  0.00    +0.000 C 
BRANCH  20  21
ATOM     21  C   UNL     1       1.506   3.292  21.269  0.00  0.00    +0.000 C 
BRANCH  21  22
ATOM     22  C   UNL     1       2.848   2.897  20.673  0.00  0.00    +0.000 C 
BRANCH  22  23
ATOM     23  C   UNL     1       2.646   1.953  19.498  0.00  0.00    +0.000 C 
BRANCH  23  24
ATOM     24  C   UNL     1       3.609   2.298  18.373  0.00  0.00    +0.000 C 
BRANCH  24  26
ATOM     25  C   UNL     1       3.752   3.896  16.477  0.00  0.00    +0.000 C 
ATOM     26  C   UNL     1       3.032   3.313  17.425  0.00  0.00    +0.000 C 
BRANCH  25  27
ATOM     27  C   UNL     1       5.200   3.570  16.266  0.00  0.00    +0.000 C 
BRANCH  27  28
ATOM     28  C   UNL     1       5.786   4.304  15.079  0.00  0.00    +0.000 C 
BRANCH  28  29
ATOM     29  C   UNL     1       6.759   5.367  15.566  0.00  0.00    +0.000 C 
BRANCH  29  30
ATOM     30  C   UNL     1       6.000   6.605  16.008  0.00  0.00    +0.000 C 
BRANCH  30  31
ATOM     31  C   UNL     1       6.555   7.133  17.324  0.00  0.00    +0.000 C 
BRANCH  31  32
ATOM     32  C   UNL     1       7.627   6.191  17.857  0.00  0.00    +0.000 C 
BRANCH  32  34
ATOM     33  C   UNL     1       5.917   5.142  19.353  0.00  0.00    +0.000 C 
ATOM     34  C   UNL     1       7.306   5.749  19.279  0.00  0.00    +0.000 C 
ENDBRANCH  32  34
ENDBRANCH  31  32
ENDBRANCH  30  31
ENDBRANCH  29  30
ENDBRANCH  28  29
ENDBRANCH  27  28
ENDBRANCH  25  27
ENDBRANCH  24  26
ENDBRANCH  23  24
ENDBRANCH  22  23
ENDBRANCH  21  22
ENDBRANCH  20  21
ENDBRANCH  19  20
ENDBRANCH   1  19
TORSDOF 16
ENDMDL
MODEL 3
REMARK VINA RESULT:      -6.6      6.019     10.980
REMARK  Name = 
REMARK  18 active torsions:
REMARK  status: ('A' for Active; 'I' for Inactive)
REMARK    1  A    between atoms: C_1  and  C_2
REMARK    2  A    between atoms: C_2  and  C_3
REMARK    3  A    between atoms: C_3  and  C_4
REMARK    4  A    between atoms: C_4  and  C_5
REMARK    5  A    between atoms: C_5  and  C_6
REMARK    6  A    between atoms: C_6  and  C_7
REMARK    7  A    between atoms: C_7  and  C_8
REMARK    8  A    between atoms: C_8  and  C_9
REMARK    9  A    between atoms: C_10  and  C_11
REMARK   10  A    between atoms: C_11  and  C_12
REMARK   11  A    between atoms: C_12  and  C_13
REMARK   12  A    between atoms: C_13  and  C_14
REMARK   13  A    between atoms: C_14  and  C_15
REMARK   14  A    between atoms: C_15  and  C_16
REMARK   15  A    between atoms: C_16  and  C_17
REMARK   16  A    between atoms: C_17  and  C_18
REMARK   17  A    between atoms: C_19  and  C_20
REMARK   18  A    between atoms: C_21  and  O_22
REMARK                            x       y       z     vdW  Elec       q    Type
REMARK                         _______ _______ _______ _____ _____    ______ ____
ROOT
ATOM      1  C   UNL     1       7.655   6.679  17.852  0.00  0.00    +0.000 C 
ENDROOT
BRANCH   1   2
ATOM      2  C   UNL     1       6.673   5.651  17.356  0.00  0.00    +0.000 A 
ATOM      3  C   UNL     1       5.644   5.120  18.180  0.00  0.00    +0.000 A 
ATOM      4  C   UNL     1       5.499   5.537  19.625  0.00  0.00    +0.000 C 
ATOM      5  C   UNL     1       4.735   4.195  17.639  0.00  0.00    +0.000 A 
ATOM      6  C   UNL     1       4.800   3.787  16.301  0.00  0.00    +0.000 A 
ATOM      7  C   UNL     1       5.794   4.322  15.464  0.00  0.00    +0.000 A 
ATOM      8  C   UNL     1       6.696   5.235  16.004  0.00  0.00    +0.000 A 
ATOM      9  N   UNL     1       7.535   5.614  14.977  0.00  0.00    +0.000 N 
ATOM     10  C   UNL     1       7.224   4.965  13.808  0.00  0.00    +0.000 A 
ATOM     11  C   UNL     1       7.823   5.044  12.546  0.00  0.00    +0.000 A 
ATOM     12  C   UNL     1       7.286   4.253  11.527  0.00  0.00    +0.000 A 
ATOM     13  C   UNL     1       6.194   3.421  11.766  0.00  0.00    +0.000 A 
ATOM     14  C   UNL     1       5.607   3.359  13.036  0.00  0.00    +0.000 A 
ATOM     15  C   UNL     1       6.132   4.144  14.082  0.00  0.00    +0.000 A 
ATOM     16  H   UNL     1       8.283   6.285  15.067  0.00  0.00    +0.000 HD
BRANCH   5  17
ATOM     17  O   UNL     1       3.719   3.632  18.367  0.00  0.00    +0.000 OA
ATOM     18  H   UNL     1       2.893   3.605  17.852  0.00  0.00    +0.000 HD
ENDBRANCH   5  17
ENDBRANCH   1   2
BRANCH   1  19
ATOM     19  C   UNL     1       7.110   8.078  17.600  0.00  0.00    +0.000 C 
BRANCH  19  20
ATOM     20  C   UNL     1       8.248   9.082  17.571  0.00  0.00    +0.000 C 
BRANCH  20  21
ATOM     21  C   UNL     1       8.856   9.215  18.951  0.00  0.00    +0.000 C 
BRANCH  21  22
ATOM     22  C   UNL     1       9.295  10.650  19.200  0.00  0.00    +0.000 C 
BRANCH  22  23
ATOM     23  C   UNL     1       9.812  11.274  17.912  0.00  0.00    +0.000 C 
BRANCH  23  24
ATOM     24  C   UNL     1      11.305  11.542  18.020  0.00  0.00    +0.000 C 
BRANCH  24  26
ATOM     25  C   UNL     1      11.933  13.030  19.908  0.00  0.00    +0.000 C 
ATOM     26  C   UNL     1      11.732  11.807  19.438  0.00  0.00    +0.000 C 
BRANCH  25  27
ATOM     27  C   UNL     1      11.728  14.250  19.060  0.00  0.00    +0.000 C 
BRANCH  27  28
ATOM     28  C   UNL     1      10.352  14.852  19.244  0.00  0.00    +0.000 C 
BRANCH  28  29
ATOM     29  C   UNL     1      10.215  16.088  18.367  0.00  0.00    +0.000 C 
BRANCH  29  30
ATOM     30  C   UNL     1       8.771  16.556  18.348  0.00  0.00    +0.000 C 
BRANCH  30  31
ATOM     31  C   UNL     1       7.846  15.427  17.914  0.00  0.00    +0.000 C 
BRANCH  31  32
ATOM     32  C   UNL     1       6.425  15.699  18.392  0.00  0.00    +0.000 C 
BRANCH  32  34
ATOM     33  C   UNL     1       4.159  14.665  18.627  0.00  0.00    +0.000 C 
ATOM     34  C   UNL     1       5.456  14.662  17.840  0.00  0.00    +0.000 C 
ENDBRANCH  32  34
ENDBRANCH  31  32
ENDBRANCH  30  31
ENDBRANCH  29  30
ENDBRANCH  28  29
ENDBRANCH  27  28
ENDBRANCH  25  27
ENDBRANCH  24  26
ENDBRANCH  23  24
ENDBRANCH  22  23
ENDBRANCH  21  22
ENDBRANCH  20  21
ENDBRANCH  19  20
ENDBRANCH   1  19
TORSDOF 16
ENDMDL
MODEL 4
REMARK VINA RESULT:      -6.5      2.849      9.160
REMARK  Name = 
REMARK  18 active torsions:
REMARK  status: ('A' for Active; 'I' for Inactive)
REMARK    1  A    between atoms: C_1  and  C_2
REMARK    2  A    between atoms: C_2  and  C_3
REMARK    3  A    between atoms: C_3  and  C_4
REMARK    4  A    between atoms: C_4  and  C_5
REMARK    5  A    between atoms: C_5  and  C_6
REMARK    6  A    between atoms: C_6  and  C_7
REMARK    7  A    between atoms: C_7  and  C_8
REMARK    8  A    between atoms: C_8  and  C_9
REMARK    9  A    between atoms: C_10  and  C_11
REMARK   10  A    between atoms: C_11  and  C_12
REMARK   11  A    between atoms: C_12  and  C_13
REMARK   12  A    between atoms: C_13  and  C_14
REMARK   13  A    between atoms: C_14  and  C_15
REMARK   14  A    between atoms: C_15  and  C_16
REMARK   15  A    between atoms: C_16  and  C_17
REMARK   16  A    between atoms: C_17  and  C_18
REMARK   17  A    between atoms: C_19  and  C_20
REMARK   18  A    between atoms: C_21  and  O_22
REMARK                            x       y       z     vdW  Elec       q    Type
REMARK                         _______ _______ _______ _____ _____    ______ ____
ROOT
ATOM      1  C   UNL     1       2.607   5.559  20.863  0.00  0.00    +0.000 C 
ENDROOT
BRANCH   1   2
ATOM      2  C   UNL     1       2.760   4.531  19.775  0.00  0.00    +0.000 A 
ATOM      3  C   UNL     1       1.866   3.436  19.629  0.00  0.00    +0.000 A 
ATOM      4  C   UNL     1       0.720   3.223  20.590  0.00  0.00    +0.000 C 
ATOM      5  C   UNL     1       2.044   2.537  18.564  0.00  0.00    +0.000 A 
ATOM      6  C   UNL     1       3.070   2.694  17.625  0.00  0.00    +0.000 A 
ATOM      7  C   UNL     1       3.948   3.786  17.737  0.00  0.00    +0.000 A 
ATOM      8  C   UNL     1       3.772   4.672  18.797  0.00  0.00    +0.000 A 
ATOM      9  N   UNL     1       4.737   5.648  18.656  0.00  0.00    +0.000 N 
ATOM     10  C   UNL     1       5.537   5.411  17.567  0.00  0.00    +0.000 A 
ATOM     11  C   UNL     1       6.630   6.136  17.077  0.00  0.00    +0.000 A 
ATOM     12  C   UNL     1       7.265   5.648  15.932  0.00  0.00    +0.000 A 
ATOM     13  C   UNL     1       6.820   4.486  15.306  0.00  0.00    +0.000 A 
ATOM     14  C   UNL     1       5.723   3.777  15.811  0.00  0.00    +0.000 A 
ATOM     15  C   UNL     1       5.066   4.246  16.967  0.00  0.00    +0.000 A 
ATOM     16  H   UNL     1       4.844   6.440  19.274  0.00  0.00    +0.000 HD
BRANCH   5  17
ATOM     17  O   UNL     1       1.229   1.454  18.356  0.00  0.00    +0.000 OA
ATOM     18  H   UNL     1       1.323   1.115  17.449  0.00  0.00    +0.000 HD
ENDBRANCH   5  17
ENDBRANCH   1   2
BRANCH   1  19
ATOM     19  C   UNL     1       1.507   6.545  20.493  0.00  0.00    +0.000 C 
BRANCH  19  20
ATOM     20  C   UNL     1       2.115   7.817  19.931  0.00  0.00    +0.000 C 
BRANCH  20  21
ATOM     21  C   UNL     1       1.844   7.908  18.445  0.00  0.00    +0.000 C 
BRANCH  21  22
ATOM     22  C   UNL     1       2.402   9.208  17.885  0.00  0.00    +0.000 C 
BRANCH  22  23
ATOM     23  C   UNL     1       1.582  10.390  18.379  0.00  0.00    +0.000 C 
BRANCH  23  24
ATOM     24  C   UNL     1       2.224  11.697  17.941  0.00  0.00    +0.000 C 
BRANCH  24  26
ATOM     25  C   UNL     1       1.159  13.428  19.369  0.00  0.00    +0.000 C 
ATOM     26  C   UNL     1       2.232  12.721  19.042  0.00  0.00    +0.000 C 
BRANCH  25  27
ATOM     27  C   UNL     1      -0.156  13.242  18.673  0.00  0.00    +0.000 C 
BRANCH  27  28
ATOM     28  C   UNL     1      -1.324  13.275  19.636  0.00  0.00    +0.000 C 
BRANCH  28  29
ATOM     29  C   UNL     1      -2.299  12.159  19.292  0.00  0.00    +0.000 C 
BRANCH  29  30
ATOM     30  C   UNL     1      -2.146  11.762  17.835  0.00  0.00    +0.000 C 
BRANCH  30  31
ATOM     31  C   UNL     1      -2.013  10.251  17.701  0.00  0.00    +0.000 C 
BRANCH  31  32
ATOM     32  C   UNL     1      -2.967   9.733  16.632  0.00  0.00    +0.000 C 
BRANCH  32  34
ATOM     33  C   UNL     1      -3.084   9.996  14.146  0.00  0.00    +0.000 C 
ATOM     34  C   UNL     1      -3.081  10.722  15.479  0.00  0.00    +0.000 C 
ENDBRANCH  32  34
ENDBRANCH  31  32
ENDBRANCH  30  31
ENDBRANCH  29  30
ENDBRANCH  28  29
ENDBRANCH  27  28
ENDBRANCH  25  27
ENDBRANCH  24  26
ENDBRANCH  23  24
ENDBRANCH  22  23
ENDBRANCH  21  22
ENDBRANCH  20  21
ENDBRANCH  19  20
ENDBRANCH   1  19
TORSDOF 16
ENDMDL
MODEL 5
REMARK VINA RESULT:      -6.5      3.274      8.883
REMARK  Name = 
REMARK  18 active torsions:
REMARK  status: ('A' for Active; 'I' for Inactive)
REMARK    1  A    between atoms: C_1  and  C_2
REMARK    2  A    between atoms: C_2  and  C_3
REMARK    3  A    between atoms: C_3  and  C_4
REMARK    4  A    between atoms: C_4  and  C_5
REMARK    5  A    between atoms: C_5  and  C_6
REMARK    6  A    between atoms: C_6  and  C_7
REMARK    7  A    between atoms: C_7  and  C_8
REMARK    8  A    between atoms: C_8  and  C_9
REMARK    9  A    between atoms: C_10  and  C_11
REMARK   10  A    between atoms: C_11  and  C_12
REMARK   11  A    between atoms: C_12  and  C_13
REMARK   12  A    between atoms: C_13  and  C_14
REMARK   13  A    between atoms: C_14  and  C_15
REMARK   14  A    between atoms: C_15  and  C_16
REMARK   15  A    between atoms: C_16  and  C_17
REMARK   16  A    between atoms: C_17  and  C_18
REMARK   17  A    between atoms: C_19  and  C_20
REMARK   18  A    between atoms: C_21  and  O_22
REMARK                            x       y       z     vdW  Elec       q    Type
REMARK                         _______ _______ _______ _____ _____    ______ ____
ROOT
ATOM      1  C   UNL     1       2.855   6.061  20.282  0.00  0.00    +0.000 C 
ENDROOT
BRANCH   1   2
ATOM      2  C   UNL     1       2.873   4.900  19.324  0.00  0.00    +0.000 A 
ATOM      3  C   UNL     1       1.916   3.852  19.379  0.00  0.00    +0.000 A 
ATOM      4  C   UNL     1       0.837   3.826  20.435  0.00  0.00    +0.000 C 
ATOM      5  C   UNL     1       1.967   2.821  18.425  0.00  0.00    +0.000 A 
ATOM      6  C   UNL     1       2.926   2.800  17.406  0.00  0.00    +0.000 A 
ATOM      7  C   UNL     1       3.865   3.843  17.319  0.00  0.00    +0.000 A 
ATOM      8  C   UNL     1       3.815   4.860  18.269  0.00  0.00    +0.000 A 
ATOM      9  N   UNL     1       4.814   5.752  17.940  0.00  0.00    +0.000 N 
ATOM     10  C   UNL     1       5.517   5.338  16.837  0.00  0.00    +0.000 A 
ATOM     11  C   UNL     1       6.604   5.931  16.186  0.00  0.00    +0.000 A 
ATOM     12  C   UNL     1       7.125   5.270  15.071  0.00  0.00    +0.000 A 
ATOM     13  C   UNL     1       6.576   4.069  14.628  0.00  0.00    +0.000 A 
ATOM     14  C   UNL     1       5.485   3.494  15.292  0.00  0.00    +0.000 A 
ATOM     15  C   UNL     1       4.943   4.138  16.422  0.00  0.00    +0.000 A 
ATOM     16  H   UNL     1       5.008   6.606  18.444  0.00  0.00    +0.000 HD
BRANCH   5  17
ATOM     17  O   UNL     1       1.085   1.770  18.411  0.00  0.00    +0.000 OA
ATOM     18  H   UNL     1       1.168   1.255  17.590  0.00  0.00    +0.000 HD
ENDBRANCH   5  17
ENDBRANCH   1   2
BRANCH   1  19
ATOM     19  C   UNL     1       2.070   7.217  19.679  0.00  0.00    +0.000 C 
BRANCH  19  20
ATOM     20  C   UNL     1       1.563   8.132  20.780  0.00  0.00    +0.000 C 
BRANCH  20  21
ATOM     21  C   UNL     1       0.747   9.258  20.181  0.00  0.00    +0.000 C 
BRANCH  21  22
ATOM     22  C   UNL     1       1.148   9.489  18.732  0.00  0.00    +0.000 C 
BRANCH  22  23
ATOM     23  C   UNL     1      -0.029  10.037  17.940  0.00  0.00    +0.000 C 
BRANCH  23  24
ATOM     24  C   UNL     1      -1.212  10.288  18.860  0.00  0.00    +0.000 C 
BRANCH  24  26
ATOM     25  C   UNL     1      -1.824  12.500  19.810  0.00  0.00    +0.000 C 
ATOM     26  C   UNL     1      -1.720  11.700  18.759  0.00  0.00    +0.000 C 
BRANCH  25  27
ATOM     27  C   UNL     1      -1.422  12.060  21.186  0.00  0.00    +0.000 C 
BRANCH  27  28
ATOM     28  C   UNL     1      -0.085  12.633  21.604  0.00  0.00    +0.000 C 
BRANCH  28  29
ATOM     29  C   UNL     1       0.501  13.448  20.461  0.00  0.00    +0.000 C 
BRANCH  29  30
ATOM     30  C   UNL     1       1.887  12.938  20.112  0.00  0.00    +0.000 C 
BRANCH  30  31
ATOM     31  C   UNL     1       2.132  13.035  18.612  0.00  0.00    +0.000 C 
BRANCH  31  32
ATOM     32  C   UNL     1       2.565  14.448  18.242  0.00  0.00    +0.000 C 
BRANCH  32  34
ATOM     33  C   UNL     1       5.042  14.691  17.983  0.00  0.00    +0.000 C 
ATOM     34  C   UNL     1       3.869  14.819  18.937  0.00  0.00    +0.000 C 
ENDBRANCH  32  34
ENDBRANCH  31  32
ENDBRANCH  30  31
ENDBRANCH  29  30
ENDBRANCH  28  29
ENDBRANCH  27  28
ENDBRANCH  25  27
ENDBRANCH  24  26
ENDBRANCH  23  24
ENDBRANCH  22  23
ENDBRANCH  21  22
ENDBRANCH  20  21
ENDBRANCH  19  20
ENDBRANCH   1  19
TORSDOF 16
ENDMDL
MODEL 6
REMARK VINA RESULT:      -6.5      6.860     10.766
REMARK  Name = 
REMARK  18 active torsions:
REMARK  status: ('A' for Active; 'I' for Inactive)
REMARK    1  A    between atoms: C_1  and  C_2
REMARK    2  A    between atoms: C_2  and  C_3
REMARK    3  A    between atoms: C_3  and  C_4
REMARK    4  A    between atoms: C_4  and  C_5
REMARK    5  A    between atoms: C_5  and  C_6
REMARK    6  A    between atoms: C_6  and  C_7
REMARK    7  A    between atoms: C_7  and  C_8
REMARK    8  A    between atoms: C_8  and  C_9
REMARK    9  A    between atoms: C_10  and  C_11
REMARK   10  A    between atoms: C_11  and  C_12
REMARK   11  A    between atoms: C_12  and  C_13
REMARK   12  A    between atoms: C_13  and  C_14
REMARK   13  A    between atoms: C_14  and  C_15
REMARK   14  A    between atoms: C_15  and  C_16
REMARK   15  A    between atoms: C_16  and  C_17
REMARK   16  A    between atoms: C_17  and  C_18
REMARK   17  A    between atoms: C_19  and  C_20
REMARK   18  A    between atoms: C_21  and  O_22
REMARK                            x       y       z     vdW  Elec       q    Type
REMARK                         _______ _______ _______ _____ _____    ______ ____
ROOT
ATOM      1  C   UNL     1       7.570   6.414  18.059  0.00  0.00    +0.000 C 
ENDROOT
BRANCH   1   2
ATOM      2  C   UNL     1       6.557   5.462  17.482  0.00  0.00    +0.000 A 
ATOM      3  C   UNL     1       5.474   4.947  18.245  0.00  0.00    +0.000 A 
ATOM      4  C   UNL     1       5.298   5.304  19.702  0.00  0.00    +0.000 C 
ATOM      5  C   UNL     1       4.541   4.094  17.630  0.00  0.00    +0.000 A 
ATOM      6  C   UNL     1       4.635   3.745  16.277  0.00  0.00    +0.000 A 
ATOM      7  C   UNL     1       5.684   4.266  15.501  0.00  0.00    +0.000 A 
ATOM      8  C   UNL     1       6.609   5.107  16.114  0.00  0.00    +0.000 A 
ATOM      9  N   UNL     1       7.502   5.489  15.135  0.00  0.00    +0.000 N 
ATOM     10  C   UNL     1       7.202   4.911  13.927  0.00  0.00    +0.000 A 
ATOM     11  C   UNL     1       7.850   5.018  12.691  0.00  0.00    +0.000 A 
ATOM     12  C   UNL     1       7.312   4.301  11.618  0.00  0.00    +0.000 A 
ATOM     13  C   UNL     1       6.173   3.516  11.780  0.00  0.00    +0.000 A 
ATOM     14  C   UNL     1       5.538   3.426  13.025  0.00  0.00    +0.000 A 
ATOM     15  C   UNL     1       6.062   4.135  14.124  0.00  0.00    +0.000 A 
ATOM     16  H   UNL     1       8.279   6.117  15.282  0.00  0.00    +0.000 HD
BRANCH   5  17
ATOM     17  O   UNL     1       3.473   3.551  18.295  0.00  0.00    +0.000 OA
ATOM     18  H   UNL     1       3.469   3.820  19.230  0.00  0.00    +0.000 HD
ENDBRANCH   5  17
ENDBRANCH   1   2
BRANCH   1  19
ATOM     19  C   UNL     1       7.125   7.850  17.817  0.00  0.00    +0.000 C 
BRANCH  19  20
ATOM     20  C   UNL     1       8.321   8.710  17.450  0.00  0.00    +0.000 C 
BRANCH  20  21
ATOM     21  C   UNL     1       8.689   9.608  18.613  0.00  0.00    +0.000 C 
BRANCH  21  22
ATOM     22  C   UNL     1       9.009  11.010  18.117  0.00  0.00    +0.000 C 
BRANCH  22  23
ATOM     23  C   UNL     1      10.499  11.143  17.838  0.00  0.00    +0.000 C 
BRANCH  23  24
ATOM     24  C   UNL     1      11.096  12.256  18.684  0.00  0.00    +0.000 C 
BRANCH  24  26
ATOM     25  C   UNL     1      10.454  12.513  21.070  0.00  0.00    +0.000 C 
ATOM     26  C   UNL     1      11.162  11.887  20.141  0.00  0.00    +0.000 C 
BRANCH  25  27
ATOM     27  C   UNL     1       9.514  13.631  20.733  0.00  0.00    +0.000 C 
BRANCH  27  28
ATOM     28  C   UNL     1       8.220  13.549  21.515  0.00  0.00    +0.000 C 
BRANCH  28  29
ATOM     29  C   UNL     1       8.508  13.060  22.926  0.00  0.00    +0.000 C 
BRANCH  29  30
ATOM     30  C   UNL     1       7.597  11.896  23.272  0.00  0.00    +0.000 C 
BRANCH  30  31
ATOM     31  C   UNL     1       7.685  11.568  24.756  0.00  0.00    +0.000 C 
BRANCH  31  32
ATOM     32  C   UNL     1       6.632  12.352  25.530  0.00  0.00    +0.000 C 
BRANCH  32  34
ATOM     33  C   UNL     1       6.146  10.707  27.352  0.00  0.00    +0.000 C 
ATOM     34  C   UNL     1       6.731  12.069  27.023  0.00  0.00    +0.000 C 
ENDBRANCH  32  34
ENDBRANCH  31  32
ENDBRANCH  30  31
ENDBRANCH  29  30
ENDBRANCH  28  29
ENDBRANCH  27  28
ENDBRANCH  25  27
ENDBRANCH  24  26
ENDBRANCH  23  24
ENDBRANCH  22  23
ENDBRANCH  21  22
ENDBRANCH  20  21
ENDBRANCH  19  20
ENDBRANCH   1  19
TORSDOF 16
ENDMDL
MODEL 7
REMARK VINA RESULT:      -6.4      2.433      3.907
REMARK  Name = 
REMARK  18 active torsions:
REMARK  status: ('A' for Active; 'I' for Inactive)
REMARK    1  A    between atoms: C_1  and  C_2
REMARK    2  A    between atoms: C_2  and  C_3
REMARK    3  A    between atoms: C_3  and  C_4
REMARK    4  A    between atoms: C_4  and  C_5
REMARK    5  A    between atoms: C_5  and  C_6
REMARK    6  A    between atoms: C_6  and  C_7
REMARK    7  A    between atoms: C_7  and  C_8
REMARK    8  A    between atoms: C_8  and  C_9
REMARK    9  A    between atoms: C_10  and  C_11
REMARK   10  A    between atoms: C_11  and  C_12
REMARK   11  A    between atoms: C_12  and  C_13
REMARK   12  A    between atoms: C_13  and  C_14
REMARK   13  A    between atoms: C_14  and  C_15
REMARK   14  A    between atoms: C_15  and  C_16
REMARK   15  A    between atoms: C_16  and  C_17
REMARK   16  A    between atoms: C_17  and  C_18
REMARK   17  A    between atoms: C_19  and  C_20
REMARK   18  A    between atoms: C_21  and  O_22
REMARK                            x       y       z     vdW  Elec       q    Type
REMARK                         _______ _______ _______ _____ _____    ______ ____
ROOT
ATOM      1  C   UNL     1       0.902  10.372  21.520  0.00  0.00    +0.000 C 
ENDROOT
BRANCH   1   2
ATOM      2  C   UNL     1      -0.151  11.126  20.753  0.00  0.00    +0.000 A 
ATOM      3  C   UNL     1      -0.086  11.307  19.345  0.00  0.00    +0.000 A 
ATOM      4  C   UNL     1       1.074  10.776  18.537  0.00  0.00    +0.000 C 
ATOM      5  C   UNL     1      -1.126  11.985  18.688  0.00  0.00    +0.000 A 
ATOM      6  C   UNL     1      -2.241  12.479  19.376  0.00  0.00    +0.000 A 
ATOM      7  C   UNL     1      -2.336  12.286  20.766  0.00  0.00    +0.000 A 
ATOM      8  C   UNL     1      -1.301  11.618  21.414  0.00  0.00    +0.000 A 
ATOM      9  N   UNL     1      -1.655  11.545  22.746  0.00  0.00    +0.000 N 
ATOM     10  C   UNL     1      -2.859  12.159  22.980  0.00  0.00    +0.000 A 
ATOM     11  C   UNL     1      -3.569  12.323  24.175  0.00  0.00    +0.000 A 
ATOM     12  C   UNL     1      -4.788  13.004  24.112  0.00  0.00    +0.000 A 
ATOM     13  C   UNL     1      -5.273  13.494  22.901  0.00  0.00    +0.000 A 
ATOM     14  C   UNL     1      -4.549  13.315  21.716  0.00  0.00    +0.000 A 
ATOM     15  C   UNL     1      -3.314  12.636  21.753  0.00  0.00    +0.000 A 
ATOM     16  H   UNL     1      -1.102  11.097  23.461  0.00  0.00    +0.000 HD
BRANCH   5  17
ATOM     17  O   UNL     1      -1.138  12.206  17.335  0.00  0.00    +0.000 OA
ATOM     18  H   UNL     1      -0.717  11.471  16.857  0.00  0.00    +0.000 HD
ENDBRANCH   5  17
ENDBRANCH   1   2
BRANCH   1  19
ATOM     19  C   UNL     1       0.328   9.059  22.033  0.00  0.00    +0.000 C 
BRANCH  19  20
ATOM     20  C   UNL     1       0.337   8.020  20.926  0.00  0.00    +0.000 C 
BRANCH  20  21
ATOM     21  C   UNL     1       1.763   7.666  20.561  0.00  0.00    +0.000 C 
BRANCH  21  22
ATOM     22  C   UNL     1       2.064   6.224  20.939  0.00  0.00    +0.000 C 
BRANCH  22  23
ATOM     23  C   UNL     1       1.173   5.275  20.152  0.00  0.00    +0.000 C 
BRANCH  23  24
ATOM     24  C   UNL     1       1.152   3.905  20.809  0.00  0.00    +0.000 C 
BRANCH  24  26
ATOM     25  C   UNL     1       3.027   2.414  20.152  0.00  0.00    +0.000 C 
ATOM     26  C   UNL     1       2.534   3.333  20.970  0.00  0.00    +0.000 C 
BRANCH  25  27
ATOM     27  C   UNL     1       2.245   1.886  18.987  0.00  0.00    +0.000 C 
BRANCH  27  28
ATOM     28  C   UNL     1       2.964   2.095  17.671  0.00  0.00    +0.000 C 
BRANCH  28  29
ATOM     29  C   UNL     1       2.731   3.516  17.183  0.00  0.00    +0.000 C 
BRANCH  29  30
ATOM     30  C   UNL     1       4.047   4.272  17.128  0.00  0.00    +0.000 C 
BRANCH  30  31
ATOM     31  C   UNL     1       3.971   5.542  17.964  0.00  0.00    +0.000 C 
BRANCH  31  32
ATOM     32  C   UNL     1       5.026   5.510  19.063  0.00  0.00    +0.000 C 
BRANCH  32  34
ATOM     33  C   UNL     1       7.511   5.564  19.358  0.00  0.00    +0.000 C 
ATOM     34  C   UNL     1       6.365   5.028  18.519  0.00  0.00    +0.000 C 
ENDBRANCH  32  34
ENDBRANCH  31  32
ENDBRANCH  30  31
ENDBRANCH  29  30
ENDBRANCH  28  29
ENDBRANCH  27  28
ENDBRANCH  25  27
ENDBRANCH  24  26
ENDBRANCH  23  24
ENDBRANCH  22  23
ENDBRANCH  21  22
ENDBRANCH  20  21
ENDBRANCH  19  20
ENDBRANCH   1  19
TORSDOF 16
ENDMDL
MODEL 8
REMARK VINA RESULT:      -6.4      3.331      8.906
REMARK  Name = 
REMARK  18 active torsions:
REMARK  status: ('A' for Active; 'I' for Inactive)
REMARK    1  A    between atoms: C_1  and  C_2
REMARK    2  A    between atoms: C_2  and  C_3
REMARK    3  A    between atoms: C_3  and  C_4
REMARK    4  A    between atoms: C_4  and  C_5
REMARK    5  A    between atoms: C_5  and  C_6
REMARK    6  A    between atoms: C_6  and  C_7
REMARK    7  A    between atoms: C_7  and  C_8
REMARK    8  A    between atoms: C_8  and  C_9
REMARK    9  A    between atoms: C_10  and  C_11
REMARK   10  A    between atoms: C_11  and  C_12
REMARK   11  A    between atoms: C_12  and  C_13
REMARK   12  A    between atoms: C_13  and  C_14
REMARK   13  A    between atoms: C_14  and  C_15
REMARK   14  A    between atoms: C_15  and  C_16
REMARK   15  A    between atoms: C_16  and  C_17
REMARK   16  A    between atoms: C_17  and  C_18
REMARK   17  A    between atoms: C_19  and  C_20
REMARK   18  A    between atoms: C_21  and  O_22
REMARK                            x       y       z     vdW  Elec       q    Type
REMARK                         _______ _______ _______ _____ _____    ______ ____
ROOT
ATOM      1  C   UNL     1       3.761   3.892  17.633  0.00  0.00    +0.000 C 
ENDROOT
BRANCH   1   2
ATOM      2  C   UNL     1       5.035   4.585  17.229  0.00  0.00    +0.000 A 
ATOM      3  C   UNL     1       5.838   5.303  18.156  0.00  0.00    +0.000 A 
ATOM      4  C   UNL     1       5.436   5.440  19.606  0.00  0.00    +0.000 C 
ATOM      5  C   UNL     1       7.037   5.891  17.719  0.00  0.00    +0.000 A 
ATOM      6  C   UNL     1       7.479   5.780  16.395  0.00  0.00    +0.000 A 
ATOM      7  C   UNL     1       6.711   5.051  15.470  0.00  0.00    +0.000 A 
ATOM      8  C   UNL     1       5.520   4.474  15.906  0.00  0.00    +0.000 A 
ATOM      9  N   UNL     1       4.988   3.807  14.821  0.00  0.00    +0.000 N 
ATOM     10  C   UNL     1       5.774   3.953  13.706  0.00  0.00    +0.000 A 
ATOM     11  C   UNL     1       5.597   3.459  12.408  0.00  0.00    +0.000 A 
ATOM     12  C   UNL     1       6.574   3.775  11.461  0.00  0.00    +0.000 A 
ATOM     13  C   UNL     1       7.680   4.550  11.802  0.00  0.00    +0.000 A 
ATOM     14  C   UNL     1       7.839   5.032  13.107  0.00  0.00    +0.000 A 
ATOM     15  C   UNL     1       6.866   4.731  14.082  0.00  0.00    +0.000 A 
ATOM     16  H   UNL     1       4.130   3.276  14.841  0.00  0.00    +0.000 HD
BRANCH   5  17
ATOM     17  O   UNL     1       7.866   6.604  18.547  0.00  0.00    +0.000 OA
ATOM     18  H   UNL     1       7.435   6.789  19.399  0.00  0.00    +0.000 HD
ENDBRANCH   5  17
ENDBRANCH   1   2
BRANCH   1  19
ATOM     19  C   UNL     1       4.000   2.392  17.734  0.00  0.00    +0.000 C 
BRANCH  19  20
ATOM     20  C   UNL     1       3.745   1.919  19.154  0.00  0.00    +0.000 C 
BRANCH  20  21
ATOM     21  C   UNL     1       3.478   3.106  20.055  0.00  0.00    +0.000 C 
BRANCH  21  22
ATOM     22  C   UNL     1       2.284   2.829  20.955  0.00  0.00    +0.000 C 
BRANCH  22  23
ATOM     23  C   UNL     1       1.034   3.489  20.393  0.00  0.00    +0.000 C 
BRANCH  23  24
ATOM     24  C   UNL     1       1.407   4.726  19.592  0.00  0.00    +0.000 C 
BRANCH  24  26
ATOM     25  C   UNL     1       2.243   7.028  20.006  0.00  0.00    +0.000 C 
ATOM     26  C   UNL     1       1.745   5.894  20.477  0.00  0.00    +0.000 C 
BRANCH  25  27
ATOM     27  C   UNL     1       2.489   7.240  18.542  0.00  0.00    +0.000 C 
BRANCH  27  28
ATOM     28  C   UNL     1       1.734   8.436  18.000  0.00  0.00    +0.000 C 
BRANCH  28  29
ATOM     29  C   UNL     1       1.217   9.279  19.156  0.00  0.00    +0.000 C 
BRANCH  29  30
ATOM     30  C   UNL     1       0.502  10.508  18.626  0.00  0.00    +0.000 C 
BRANCH  30  31
ATOM     31  C   UNL     1      -0.369  11.130  19.709  0.00  0.00    +0.000 C 
BRANCH  31  32
ATOM     32  C   UNL     1       0.342  11.071  21.054  0.00  0.00    +0.000 C 
BRANCH  32  34
ATOM     33  C   UNL     1      -1.121  10.755  23.060  0.00  0.00    +0.000 C 
ATOM     34  C   UNL     1      -0.474  11.769  22.134  0.00  0.00    +0.000 C 
ENDBRANCH  32  34
ENDBRANCH  31  32
ENDBRANCH  30  31
ENDBRANCH  29  30
ENDBRANCH  28  29
ENDBRANCH  27  28
ENDBRANCH  25  27
ENDBRANCH  24  26
ENDBRANCH  23  24
ENDBRANCH  22  23
ENDBRANCH  21  22
ENDBRANCH  20  21
ENDBRANCH  19  20
ENDBRANCH   1  19
TORSDOF 16
ENDMDL
MODEL 9
REMARK VINA RESULT:      -6.3      2.768      9.189
REMARK  Name = 
REMARK  18 active torsions:
REMARK  status: ('A' for Active; 'I' for Inactive)
REMARK    1  A    between atoms: C_1  and  C_2
REMARK    2  A    between atoms: C_2  and  C_3
REMARK    3  A    between atoms: C_3  and  C_4
REMARK    4  A    between atoms: C_4  and  C_5
REMARK    5  A    between atoms: C_5  and  C_6
REMARK    6  A    between atoms: C_6  and  C_7
REMARK    7  A    between atoms: C_7  and  C_8
REMARK    8  A    between atoms: C_8  and  C_9
REMARK    9  A    between atoms: C_10  and  C_11
REMARK   10  A    between atoms: C_11  and  C_12
REMARK   11  A    between atoms: C_12  and  C_13
REMARK   12  A    between atoms: C_13  and  C_14
REMARK   13  A    between atoms: C_14  and  C_15
REMARK   14  A    between atoms: C_15  and  C_16
REMARK   15  A    between atoms: C_16  and  C_17
REMARK   16  A    between atoms: C_17  and  C_18
REMARK   17  A    between atoms: C_19  and  C_20
REMARK   18  A    between atoms: C_21  and  O_22
REMARK                            x       y       z     vdW  Elec       q    Type
REMARK                         _______ _______ _______ _____ _____    ______ ____
ROOT
ATOM      1  C   UNL     1       2.094   5.747  20.841  0.00  0.00    +0.000 C 
ENDROOT
BRANCH   1   2
ATOM      2  C   UNL     1       2.488   4.713  19.821  0.00  0.00    +0.000 A 
ATOM      3  C   UNL     1       1.736   3.525  19.611  0.00  0.00    +0.000 A 
ATOM      4  C   UNL     1       0.507   3.216  20.433  0.00  0.00    +0.000 C 
ATOM      5  C   UNL     1       2.137   2.622  18.612  0.00  0.00    +0.000 A 
ATOM      6  C   UNL     1       3.252   2.862  17.799  0.00  0.00    +0.000 A 
ATOM      7  C   UNL     1       3.992   4.044  17.974  0.00  0.00    +0.000 A 
ATOM      8  C   UNL     1       3.595   4.934  18.969  0.00  0.00    +0.000 A 
ATOM      9  N   UNL     1       4.464   6.004  18.908  0.00  0.00    +0.000 N 
ATOM     10  C   UNL     1       5.414   5.825  17.935  0.00  0.00    +0.000 A 
ATOM     11  C   UNL     1       6.479   6.649  17.553  0.00  0.00    +0.000 A 
ATOM     12  C   UNL     1       7.300   6.201  16.514  0.00  0.00    +0.000 A 
ATOM     13  C   UNL     1       7.059   4.982  15.885  0.00  0.00    +0.000 A 
ATOM     14  C   UNL     1       5.985   4.174  16.280  0.00  0.00    +0.000 A 
ATOM     15  C   UNL     1       5.144   4.600  17.329  0.00  0.00    +0.000 A 
ATOM     16  H   UNL     1       4.411   6.819  19.502  0.00  0.00    +0.000 HD
BRANCH   5  17
ATOM     17  O   UNL     1       1.471   1.453  18.349  0.00  0.00    +0.000 OA
ATOM     18  H   UNL     1       0.508   1.592  18.341  0.00  0.00    +0.000 HD
ENDBRANCH   5  17
ENDBRANCH   1   2
BRANCH   1  19
ATOM     19  C   UNL     1       1.562   6.989  20.139  0.00  0.00    +0.000 C 
BRANCH  19  20
ATOM     20  C   UNL     1       1.630   8.184  21.073  0.00  0.00    +0.000 C 
BRANCH  20  21
ATOM     21  C   UNL     1       0.231   8.631  21.443  0.00  0.00    +0.000 C 
BRANCH  21  22
ATOM     22  C   UNL     1       0.203   9.147  22.874  0.00  0.00    +0.000 C 
BRANCH  22  23
ATOM     23  C   UNL     1      -0.755  10.322  22.992  0.00  0.00    +0.000 C 
BRANCH  23  24
ATOM     24  C   UNL     1      -0.898  11.022  21.650  0.00  0.00    +0.000 C 
BRANCH  24  26
ATOM     25  C   UNL     1      -0.073  13.117  20.602  0.00  0.00    +0.000 C 
ATOM     26  C   UNL     1       0.088  12.146  21.489  0.00  0.00    +0.000 C 
BRANCH  25  27
ATOM     27  C   UNL     1      -1.269  13.178  19.700  0.00  0.00    +0.000 C 
BRANCH  27  28
ATOM     28  C   UNL     1      -0.988  12.587  18.335  0.00  0.00    +0.000 C 
BRANCH  28  29
ATOM     29  C   UNL     1      -1.747  11.277  18.181  0.00  0.00    +0.000 C 
BRANCH  29  30
ATOM     30  C   UNL     1      -3.242  11.528  18.255  0.00  0.00    +0.000 C 
BRANCH  30  31
ATOM     31  C   UNL     1      -3.894  11.284  16.901  0.00  0.00    +0.000 C 
BRANCH  31  32
ATOM     32  C   UNL     1      -2.827  11.098  15.830  0.00  0.00    +0.000 C 
BRANCH  32  34
ATOM     33  C   UNL     1      -3.470   9.965  13.693  0.00  0.00    +0.000 C 
ATOM     34  C   UNL     1      -2.995   9.761  15.120  0.00  0.00    +0.000 C 
ENDBRANCH  32  34
ENDBRANCH  31  32
ENDBRANCH  30  31
ENDBRANCH  29  30
ENDBRANCH  28  29
ENDBRANCH  27  28
ENDBRANCH  25  27
ENDBRANCH  24  26
ENDBRANCH  23  24
ENDBRANCH  22  23
ENDBRANCH  21  22
ENDBRANCH  20  21
ENDBRANCH  19  20
ENDBRANCH   1  19
TORSDOF 16
ENDMDL
