MODEL 1
REMARK VINA RESULT:      -8.1      0.000      0.000
REMARK  Name = 
REMARK  6 active torsions:
REMARK  status: ('A' for Active; 'I' for Inactive)
REMARK    1  A    between atoms: C_1  and  C_2
REMARK    2  A    between atoms: C_3  and  C_4
REMARK    3  A    between atoms: C_4  and  C_6
REMARK    4  A    between atoms: C_18  and  C_19
REMARK    5  A    between atoms: C_19  and  C_20
REMARK    6  A    between atoms: C_20  and  C_21
REMARK                            x       y       z     vdW  Elec       q    Type
REMARK                         _______ _______ _______ _____ _____    ______ ____
ROOT
ATOM      1  C   UNL     1       1.553   9.181  17.624  0.00  0.00    +0.000 C 
ATOM      2  C   UNL     1       0.938   9.412  18.969  0.00  0.00    +0.000 A 
ATOM      3  C   UNL     1       0.019  10.449  19.342  0.00  0.00    +0.000 A 
ATOM      4  C   UNL     1      -0.163  10.324  20.714  0.00  0.00    +0.000 A 
ATOM      5  C   UNL     1      -0.926  11.077  21.671  0.00  0.00    +0.000 A 
ATOM      6  C   UNL     1      -0.893  10.752  22.973  0.00  0.00    +0.000 A 
ATOM      7  C   UNL     1      -0.093   9.655  23.443  0.00  0.00    +0.000 A 
ATOM      8  C   UNL     1       0.634   8.954  22.560  0.00  0.00    +0.000 A 
ATOM      9  N   UNL     1       0.590   9.250  21.191  0.00  0.00    +0.000 N 
ATOM     10  C   UNL     1       1.218   8.643  20.104  0.00  0.00    +0.000 A 
ENDROOT
BRANCH   3  11
ATOM     11  C   UNL     1      -0.594  11.512  18.534  0.00  0.00    +0.000 C 
ATOM     12  O   UNL     1      -0.036  12.593  18.345  0.00  0.00    +0.000 OA
BRANCH  11  13
ATOM     13  C   UNL     1      -1.939  11.320  17.926  0.00  0.00    +0.000 A 
ATOM     14  C   UNL     1      -3.056  11.834  18.601  0.00  0.00    +0.000 A 
ATOM     15  C   UNL     1      -4.338  11.651  18.082  0.00  0.00    +0.000 A 
ATOM     16  C   UNL     1      -4.515  10.955  16.888  0.00  0.00    +0.000 A 
ATOM     17  C   UNL     1      -3.409  10.435  16.214  0.00  0.00    +0.000 A 
ATOM     18  C   UNL     1      -2.125  10.601  16.738  0.00  0.00    +0.000 A 
ENDBRANCH  11  13
ENDBRANCH   3  11
BRANCH  10  19
ATOM     19  C   UNL     1       2.149   7.443  20.131  0.00  0.00    +0.000 C 
BRANCH  19  20
ATOM     20  C   UNL     1       1.656   6.163  20.800  0.00  0.00    +0.000 C 
BRANCH  20  21
ATOM     21  C   UNL     1       1.686   4.934  19.917  0.00  0.00    +0.000 A 
ATOM     22  C   UNL     1       2.196   5.059  18.624  0.00  0.00    +0.000 A 
ATOM     23  C   UNL     1       2.104   3.979  17.754  0.00  0.00    +0.000 A 
ATOM     24  C   UNL     1       1.517   2.800  18.195  0.00  0.00    +0.000 A 
ATOM     25  C   UNL     1       1.052   2.750  19.498  0.00  0.00    +0.000 A 
ATOM     26  N   UNL     1       1.123   3.786  20.363  0.00  0.00    +0.000 NA
ENDBRANCH  20  21
ENDBRANCH  19  20
ENDBRANCH  10  19
TORSDOF 5
ENDMDL
MODEL 2
REMARK VINA RESULT:      -8.0      3.419      6.319
REMARK  Name = 
REMARK  6 active torsions:
REMARK  status: ('A' for Active; 'I' for Inactive)
REMARK    1  A    between atoms: C_1  and  C_2
REMARK    2  A    between atoms: C_3  and  C_4
REMARK    3  A    between atoms: C_4  and  C_6
REMARK    4  A    between atoms: C_18  and  C_19
REMARK    5  A    between atoms: C_19  and  C_20
REMARK    6  A    between atoms: C_20  and  C_21
REMARK                            x       y       z     vdW  Elec       q    Type
REMARK                         _______ _______ _______ _____ _____    ______ ____
ROOT
ATOM      1  C   UNL     1       1.411   4.745  17.430  0.00  0.00    +0.000 C 
ATOM      2  C   UNL     1       2.876   5.046  17.484  0.00  0.00    +0.000 A 
ATOM      3  C   UNL     1       3.498   6.329  17.654  0.00  0.00    +0.000 A 
ATOM      4  C   UNL     1       4.863   6.114  17.511  0.00  0.00    +0.000 A 
ATOM      5  C   UNL     1       5.998   6.994  17.538  0.00  0.00    +0.000 A 
ATOM      6  C   UNL     1       7.235   6.515  17.330  0.00  0.00    +0.000 A 
ATOM      7  C   UNL     1       7.455   5.119  17.071  0.00  0.00    +0.000 A 
ATOM      8  C   UNL     1       6.400   4.290  17.032  0.00  0.00    +0.000 A 
ATOM      9  N   UNL     1       5.103   4.759  17.279  0.00  0.00    +0.000 N 
ATOM     10  C   UNL     1       3.883   4.086  17.329  0.00  0.00    +0.000 A 
ENDROOT
BRANCH   3  11
ATOM     11  C   UNL     1       2.900   7.654  17.861  0.00  0.00    +0.000 C 
ATOM     12  O   UNL     1       3.062   8.576  17.060  0.00  0.00    +0.000 OA
BRANCH  11  13
ATOM     13  C   UNL     1       2.086   7.937  19.074  0.00  0.00    +0.000 A 
ATOM     14  C   UNL     1       1.375   9.145  19.135  0.00  0.00    +0.000 A 
ATOM     15  C   UNL     1       0.623   9.463  20.266  0.00  0.00    +0.000 A 
ATOM     16  C   UNL     1       0.576   8.581  21.344  0.00  0.00    +0.000 A 
ATOM     17  C   UNL     1       1.287   7.380  21.294  0.00  0.00    +0.000 A 
ATOM     18  C   UNL     1       2.054   7.065  20.171  0.00  0.00    +0.000 A 
ENDBRANCH  11  13
ENDBRANCH   3  11
BRANCH  10  19
ATOM     19  C   UNL     1       3.641   2.600  17.125  0.00  0.00    +0.000 C 
BRANCH  19  20
ATOM     20  C   UNL     1       3.704   1.686  18.345  0.00  0.00    +0.000 C 
BRANCH  20  21
ATOM     21  C   UNL     1       2.862   2.137  19.519  0.00  0.00    +0.000 A 
ATOM     22  C   UNL     1       1.475   2.167  19.368  0.00  0.00    +0.000 A 
ATOM     23  C   UNL     1       0.696   2.708  20.383  0.00  0.00    +0.000 A 
ATOM     24  C   UNL     1       1.316   3.197  21.527  0.00  0.00    +0.000 A 
ATOM     25  C   UNL     1       2.695   3.113  21.608  0.00  0.00    +0.000 A 
ATOM     26  N   UNL     1       3.477   2.598  20.634  0.00  0.00    +0.000 NA
ENDBRANCH  20  21
ENDBRANCH  19  20
ENDBRANCH  10  19
TORSDOF 5
ENDMDL
MODEL 3
REMARK VINA RESULT:      -8.0      4.340      8.941
REMARK  Name = 
REMARK  6 active torsions:
REMARK  status: ('A' for Active; 'I' for Inactive)
REMARK    1  A    between atoms: C_1  and  C_2
REMARK    2  A    between atoms: C_3  and  C_4
REMARK    3  A    between atoms: C_4  and  C_6
REMARK    4  A    between atoms: C_18  and  C_19
REMARK    5  A    between atoms: C_19  and  C_20
REMARK    6  A    between atoms: C_20  and  C_21
REMARK                            x       y       z     vdW  Elec       q    Type
REMARK                         _______ _______ _______ _____ _____    ______ ____
ROOT
ATOM      1  C   UNL     1       5.381   7.584  16.833  0.00  0.00    +0.000 C 
ATOM      2  C   UNL     1       4.776   6.266  17.203  0.00  0.00    +0.000 A 
ATOM      3  C   UNL     1       5.309   4.958  16.947  0.00  0.00    +0.000 A 
ATOM      4  C   UNL     1       4.333   4.059  17.361  0.00  0.00    +0.000 A 
ATOM      5  C   UNL     1       4.252   2.625  17.336  0.00  0.00    +0.000 A 
ATOM      6  C   UNL     1       3.150   1.999  17.778  0.00  0.00    +0.000 A 
ATOM      7  C   UNL     1       2.027   2.741  18.279  0.00  0.00    +0.000 A 
ATOM      8  C   UNL     1       2.087   4.081  18.296  0.00  0.00    +0.000 A 
ATOM      9  N   UNL     1       3.238   4.758  17.872  0.00  0.00    +0.000 N 
ATOM     10  C   UNL     1       3.537   6.120  17.838  0.00  0.00    +0.000 A 
ENDROOT
BRANCH   3  11
ATOM     11  C   UNL     1       6.572   4.553  16.315  0.00  0.00    +0.000 C 
ATOM     12  O   UNL     1       7.573   4.276  16.976  0.00  0.00    +0.000 OA
BRANCH  11  13
ATOM     13  C   UNL     1       6.689   4.485  14.834  0.00  0.00    +0.000 A 
ATOM     14  C   UNL     1       5.855   3.599  14.137  0.00  0.00    +0.000 A 
ATOM     15  C   UNL     1       5.953   3.481  12.750  0.00  0.00    +0.000 A 
ATOM     16  C   UNL     1       6.883   4.247  12.049  0.00  0.00    +0.000 A 
ATOM     17  C   UNL     1       7.721   5.126  12.736  0.00  0.00    +0.000 A 
ATOM     18  C   UNL     1       7.639   5.235  14.126  0.00  0.00    +0.000 A 
ENDBRANCH  11  13
ENDBRANCH   3  11
BRANCH  10  19
ATOM     19  C   UNL     1       2.648   7.270  18.280  0.00  0.00    +0.000 C 
BRANCH  19  20
ATOM     20  C   UNL     1       2.236   7.339  19.748  0.00  0.00    +0.000 C 
BRANCH  20  21
ATOM     21  C   UNL     1       1.386   8.538  20.112  0.00  0.00    +0.000 A 
ATOM     22  C   UNL     1       0.862   8.612  21.403  0.00  0.00    +0.000 A 
ATOM     23  C   UNL     1      -0.032   9.630  21.713  0.00  0.00    +0.000 A 
ATOM     24  C   UNL     1      -0.373  10.554  20.733  0.00  0.00    +0.000 A 
ATOM     25  C   UNL     1       0.206  10.423  19.482  0.00  0.00    +0.000 A 
ATOM     26  N   UNL     1       1.072   9.440  19.152  0.00  0.00    +0.000 NA
ENDBRANCH  20  21
ENDBRANCH  19  20
ENDBRANCH  10  19
TORSDOF 5
ENDMDL
MODEL 4
REMARK VINA RESULT:      -7.9      3.451      8.079
REMARK  Name = 
REMARK  6 active torsions:
REMARK  status: ('A' for Active; 'I' for Inactive)
REMARK    1  A    between atoms: C_1  and  C_2
REMARK    2  A    between atoms: C_3  and  C_4
REMARK    3  A    between atoms: C_4  and  C_6
REMARK    4  A    between atoms: C_18  and  C_19
REMARK    5  A    between atoms: C_19  and  C_20
REMARK    6  A    between atoms: C_20  and  C_21
REMARK                            x       y       z     vdW  Elec       q    Type
REMARK                         _______ _______ _______ _____ _____    ______ ____
ROOT
ATOM      1  C   UNL     1       2.544   7.983  18.385  0.00  0.00    +0.000 C 
ATOM      2  C   UNL     1       2.678   6.670  19.092  0.00  0.00    +0.000 A 
ATOM      3  C   UNL     1       3.573   5.594  18.772  0.00  0.00    +0.000 A 
ATOM      4  C   UNL     1       3.238   4.551  19.626  0.00  0.00    +0.000 A 
ATOM      5  C   UNL     1       3.736   3.212  19.775  0.00  0.00    +0.000 A 
ATOM      6  C   UNL     1       3.194   2.381  20.679  0.00  0.00    +0.000 A 
ATOM      7  C   UNL     1       2.104   2.804  21.514  0.00  0.00    +0.000 A 
ATOM      8  C   UNL     1       1.623   4.049  21.375  0.00  0.00    +0.000 A 
ATOM      9  N   UNL     1       2.193   4.947  20.463  0.00  0.00    +0.000 N 
ATOM     10  C   UNL     1       1.891   6.278  20.180  0.00  0.00    +0.000 A 
ENDROOT
BRANCH   3  11
ATOM     11  C   UNL     1       4.604   5.493  17.730  0.00  0.00    +0.000 C 
ATOM     12  O   UNL     1       4.426   4.848  16.696  0.00  0.00    +0.000 OA
BRANCH  11  13
ATOM     13  C   UNL     1       5.923   6.159  17.903  0.00  0.00    +0.000 A 
ATOM     14  C   UNL     1       6.813   5.642  18.856  0.00  0.00    +0.000 A 
ATOM     15  C   UNL     1       8.048   6.253  19.072  0.00  0.00    +0.000 A 
ATOM     16  C   UNL     1       8.404   7.383  18.339  0.00  0.00    +0.000 A 
ATOM     17  C   UNL     1       7.522   7.908  17.394  0.00  0.00    +0.000 A 
ATOM     18  C   UNL     1       6.277   7.310  17.186  0.00  0.00    +0.000 A 
ENDBRANCH  11  13
ENDBRANCH   3  11
BRANCH  10  19
ATOM     19  C   UNL     1       0.817   7.137  20.828  0.00  0.00    +0.000 C 
BRANCH  19  20
ATOM     20  C   UNL     1       1.259   8.330  21.669  0.00  0.00    +0.000 C 
BRANCH  20  21
ATOM     21  C   UNL     1       0.301   9.503  21.659  0.00  0.00    +0.000 A 
ATOM     22  C   UNL     1      -0.124  10.001  20.426  0.00  0.00    +0.000 A 
ATOM     23  C   UNL     1      -0.890  11.160  20.393  0.00  0.00    +0.000 A 
ATOM     24  C   UNL     1      -1.222  11.788  21.588  0.00  0.00    +0.000 A 
ATOM     25  C   UNL     1      -0.777  11.220  22.769  0.00  0.00    +0.000 A 
ATOM     26  N   UNL     1      -0.026  10.098  22.830  0.00  0.00    +0.000 NA
ENDBRANCH  20  21
ENDBRANCH  19  20
ENDBRANCH  10  19
TORSDOF 5
ENDMDL
MODEL 5
REMARK VINA RESULT:      -7.8      0.959      1.515
REMARK  Name = 
REMARK  6 active torsions:
REMARK  status: ('A' for Active; 'I' for Inactive)
REMARK    1  A    between atoms: C_1  and  C_2
REMARK    2  A    between atoms: C_3  and  C_4
REMARK    3  A    between atoms: C_4  and  C_6
REMARK    4  A    between atoms: C_18  and  C_19
REMARK    5  A    between atoms: C_19  and  C_20
REMARK    6  A    between atoms: C_20  and  C_21
REMARK                            x       y       z     vdW  Elec       q    Type
REMARK                         _______ _______ _______ _____ _____    ______ ____
ROOT
ATOM      1  C   UNL     1       1.727   9.038  17.731  0.00  0.00    +0.000 C 
ATOM      2  C   UNL     1       1.081   9.280  19.059  0.00  0.00    +0.000 A 
ATOM      3  C   UNL     1       0.129  10.301  19.394  0.00  0.00    +0.000 A 
ATOM      4  C   UNL     1      -0.076  10.198  20.765  0.00  0.00    +0.000 A 
ATOM      5  C   UNL     1      -0.876  10.949  21.692  0.00  0.00    +0.000 A 
ATOM      6  C   UNL     1      -0.860  10.650  23.001  0.00  0.00    +0.000 A 
ATOM      7  C   UNL     1      -0.044   9.582  23.507  0.00  0.00    +0.000 A 
ATOM      8  C   UNL     1       0.717   8.882  22.652  0.00  0.00    +0.000 A 
ATOM      9  N   UNL     1       0.694   9.151  21.277  0.00  0.00    +0.000 N 
ATOM     10  C   UNL     1       1.357   8.539  20.214  0.00  0.00    +0.000 A 
ENDROOT
BRANCH   3  11
ATOM     11  C   UNL     1      -0.493  11.332  18.554  0.00  0.00    +0.000 C 
ATOM     12  O   UNL     1       0.041  12.425  18.358  0.00  0.00    +0.000 OA
BRANCH  11  13
ATOM     13  C   UNL     1      -1.818  11.095  17.921  0.00  0.00    +0.000 A 
ATOM     14  C   UNL     1      -1.901  10.174  16.867  0.00  0.00    +0.000 A 
ATOM     15  C   UNL     1      -3.117   9.943  16.226  0.00  0.00    +0.000 A 
ATOM     16  C   UNL     1      -4.260  10.631  16.630  0.00  0.00    +0.000 A 
ATOM     17  C   UNL     1      -4.186  11.554  17.674  0.00  0.00    +0.000 A 
ATOM     18  C   UNL     1      -2.966  11.801  18.308  0.00  0.00    +0.000 A 
ENDBRANCH  11  13
ENDBRANCH   3  11
BRANCH  10  19
ATOM     19  C   UNL     1       2.316   7.363  20.282  0.00  0.00    +0.000 C 
BRANCH  19  20
ATOM     20  C   UNL     1       1.756   5.962  20.050  0.00  0.00    +0.000 C 
BRANCH  20  21
ATOM     21  C   UNL     1       2.549   5.116  19.077  0.00  0.00    +0.000 A 
ATOM     22  C   UNL     1       1.857   4.427  18.080  0.00  0.00    +0.000 A 
ATOM     23  C   UNL     1       2.549   3.538  17.267  0.00  0.00    +0.000 A 
ATOM     24  C   UNL     1       3.915   3.364  17.460  0.00  0.00    +0.000 A 
ATOM     25  C   UNL     1       4.531   4.099  18.458  0.00  0.00    +0.000 A 
ATOM     26  N   UNL     1       3.882   4.965  19.267  0.00  0.00    +0.000 NA
ENDBRANCH  20  21
ENDBRANCH  19  20
ENDBRANCH  10  19
TORSDOF 5
ENDMDL
MODEL 6
REMARK VINA RESULT:      -7.8      0.741      1.411
REMARK  Name = 
REMARK  6 active torsions:
REMARK  status: ('A' for Active; 'I' for Inactive)
REMARK    1  A    between atoms: C_1  and  C_2
REMARK    2  A    between atoms: C_3  and  C_4
REMARK    3  A    between atoms: C_4  and  C_6
REMARK    4  A    between atoms: C_18  and  C_19
REMARK    5  A    between atoms: C_19  and  C_20
REMARK    6  A    between atoms: C_20  and  C_21
REMARK                            x       y       z     vdW  Elec       q    Type
REMARK                         _______ _______ _______ _____ _____    ______ ____
ROOT
ATOM      1  C   UNL     1       1.684   9.254  17.635  0.00  0.00    +0.000 C 
ATOM      2  C   UNL     1       1.045   9.431  18.977  0.00  0.00    +0.000 A 
ATOM      3  C   UNL     1       0.074  10.418  19.358  0.00  0.00    +0.000 A 
ATOM      4  C   UNL     1      -0.116  10.259  20.725  0.00  0.00    +0.000 A 
ATOM      5  C   UNL     1      -0.924  10.957  21.686  0.00  0.00    +0.000 A 
ATOM      6  C   UNL     1      -0.890  10.610  22.983  0.00  0.00    +0.000 A 
ATOM      7  C   UNL     1      -0.047   9.541  23.442  0.00  0.00    +0.000 A 
ATOM      8  C   UNL     1       0.721   8.891  22.554  0.00  0.00    +0.000 A 
ATOM      9  N   UNL     1       0.680   9.211  21.191  0.00  0.00    +0.000 N 
ATOM     10  C   UNL     1       1.346   8.654  20.100  0.00  0.00    +0.000 A 
ENDROOT
BRANCH   3  11
ATOM     11  C   UNL     1      -0.577  11.467  18.562  0.00  0.00    +0.000 C 
ATOM     12  O   UNL     1      -0.043  12.558  18.357  0.00  0.00    +0.000 OA
BRANCH  11  13
ATOM     13  C   UNL     1      -1.933  11.251  17.990  0.00  0.00    +0.000 A 
ATOM     14  C   UNL     1      -2.047  10.513  16.802  0.00  0.00    +0.000 A 
ATOM     15  C   UNL     1      -3.296  10.312  16.215  0.00  0.00    +0.000 A 
ATOM     16  C   UNL     1      -4.440  10.845  16.807  0.00  0.00    +0.000 A 
ATOM     17  C   UNL     1      -4.334  11.586  17.985  0.00  0.00    +0.000 A 
ATOM     18  C   UNL     1      -3.084  11.804  18.567  0.00  0.00    +0.000 A 
ENDBRANCH  11  13
ENDBRANCH   3  11
BRANCH  10  19
ATOM     19  C   UNL     1       2.331   7.497  20.116  0.00  0.00    +0.000 C 
BRANCH  19  20
ATOM     20  C   UNL     1       2.119   6.357  19.123  0.00  0.00    +0.000 C 
BRANCH  20  21
ATOM     21  C   UNL     1       1.977   4.987  19.751  0.00  0.00    +0.000 A 
ATOM     22  C   UNL     1       1.348   3.982  19.015  0.00  0.00    +0.000 A 
ATOM     23  C   UNL     1       1.084   2.762  19.625  0.00  0.00    +0.000 A 
ATOM     24  C   UNL     1       1.461   2.569  20.949  0.00  0.00    +0.000 A 
ATOM     25  C   UNL     1       2.097   3.610  21.604  0.00  0.00    +0.000 A 
ATOM     26  N   UNL     1       2.360   4.808  21.038  0.00  0.00    +0.000 NA
ENDBRANCH  20  21
ENDBRANCH  19  20
ENDBRANCH  10  19
TORSDOF 5
ENDMDL
MODEL 7
REMARK VINA RESULT:      -7.8      4.216      8.925
REMARK  Name = 
REMARK  6 active torsions:
REMARK  status: ('A' for Active; 'I' for Inactive)
REMARK    1  A    between atoms: C_1  and  C_2
REMARK    2  A    between atoms: C_3  and  C_4
REMARK    3  A    between atoms: C_4  and  C_6
REMARK    4  A    between atoms: C_18  and  C_19
REMARK    5  A    between atoms: C_19  and  C_20
REMARK    6  A    between atoms: C_20  and  C_21
REMARK                            x       y       z     vdW  Elec       q    Type
REMARK                         _______ _______ _______ _____ _____    ______ ____
ROOT
ATOM      1  C   UNL     1       4.812   7.413  16.612  0.00  0.00    +0.000 C 
ATOM      2  C   UNL     1       4.331   6.081  17.098  0.00  0.00    +0.000 A 
ATOM      3  C   UNL     1       4.996   4.814  16.972  0.00  0.00    +0.000 A 
ATOM      4  C   UNL     1       4.105   3.865  17.458  0.00  0.00    +0.000 A 
ATOM      5  C   UNL     1       4.166   2.434  17.567  0.00  0.00    +0.000 A 
ATOM      6  C   UNL     1       3.122   1.744  18.055  0.00  0.00    +0.000 A 
ATOM      7  C   UNL     1       1.922   2.414  18.473  0.00  0.00    +0.000 A 
ATOM      8  C   UNL     1       1.849   3.750  18.364  0.00  0.00    +0.000 A 
ATOM      9  N   UNL     1       2.936   4.496  17.890  0.00  0.00    +0.000 N 
ATOM     10  C   UNL     1       3.101   5.871  17.731  0.00  0.00    +0.000 A 
ENDROOT
BRANCH   3  11
ATOM     11  C   UNL     1       6.304   4.481  16.394  0.00  0.00    +0.000 C 
ATOM     12  O   UNL     1       7.303   4.312  17.094  0.00  0.00    +0.000 OA
BRANCH  11  13
ATOM     13  C   UNL     1       6.471   4.357  14.921  0.00  0.00    +0.000 A 
ATOM     14  C   UNL     1       7.482   5.104  14.297  0.00  0.00    +0.000 A 
ATOM     15  C   UNL     1       7.654   5.041  12.915  0.00  0.00    +0.000 A 
ATOM     16  C   UNL     1       6.820   4.233  12.144  0.00  0.00    +0.000 A 
ATOM     17  C   UNL     1       5.808   3.492  12.755  0.00  0.00    +0.000 A 
ATOM     18  C   UNL     1       5.621   3.565  14.137  0.00  0.00    +0.000 A 
ENDBRANCH  11  13
ENDBRANCH   3  11
BRANCH  10  19
ATOM     19  C   UNL     1       2.094   6.963  18.054  0.00  0.00    +0.000 C 
BRANCH  19  20
ATOM     20  C   UNL     1       2.294   7.772  19.333  0.00  0.00    +0.000 C 
BRANCH  20  21
ATOM     21  C   UNL     1       1.320   8.916  19.517  0.00  0.00    +0.000 A 
ATOM     22  C   UNL     1       0.655   9.030  20.739  0.00  0.00    +0.000 A 
ATOM     23  C   UNL     1      -0.342   9.987  20.878  0.00  0.00    +0.000 A 
ATOM     24  C   UNL     1      -0.646  10.813  19.803  0.00  0.00    +0.000 A 
ATOM     25  C   UNL     1       0.073  10.649  18.631  0.00  0.00    +0.000 A 
ATOM     26  N   UNL     1       1.042   9.723  18.465  0.00  0.00    +0.000 NA
ENDBRANCH  20  21
ENDBRANCH  19  20
ENDBRANCH  10  19
TORSDOF 5
ENDMDL
MODEL 8
REMARK VINA RESULT:      -7.8      4.442      8.944
REMARK  Name = 
REMARK  6 active torsions:
REMARK  status: ('A' for Active; 'I' for Inactive)
REMARK    1  A    between atoms: C_1  and  C_2
REMARK    2  A    between atoms: C_3  and  C_4
REMARK    3  A    between atoms: C_4  and  C_6
REMARK    4  A    between atoms: C_18  and  C_19
REMARK    5  A    between atoms: C_19  and  C_20
REMARK    6  A    between atoms: C_20  and  C_21
REMARK                            x       y       z     vdW  Elec       q    Type
REMARK                         _______ _______ _______ _____ _____    ______ ____
ROOT
ATOM      1  C   UNL     1       6.078   7.659  17.122  0.00  0.00    +0.000 C 
ATOM      2  C   UNL     1       5.239   6.437  17.333  0.00  0.00    +0.000 A 
ATOM      3  C   UNL     1       5.537   5.093  16.925  0.00  0.00    +0.000 A 
ATOM      4  C   UNL     1       4.408   4.342  17.229  0.00  0.00    +0.000 A 
ATOM      5  C   UNL     1       4.074   2.959  17.035  0.00  0.00    +0.000 A 
ATOM      6  C   UNL     1       2.869   2.492  17.399  0.00  0.00    +0.000 A 
ATOM      7  C   UNL     1       1.885   3.360  17.985  0.00  0.00    +0.000 A 
ATOM      8  C   UNL     1       2.182   4.657  18.160  0.00  0.00    +0.000 A 
ATOM      9  N   UNL     1       3.444   5.162  17.820  0.00  0.00    +0.000 N 
ATOM     10  C   UNL     1       3.982   6.442  17.947  0.00  0.00    +0.000 A 
ENDROOT
BRANCH   3  11
ATOM     11  C   UNL     1       6.721   4.545  16.249  0.00  0.00    +0.000 C 
ATOM     12  O   UNL     1       7.724   4.196  16.872  0.00  0.00    +0.000 OA
BRANCH  11  13
ATOM     13  C   UNL     1       6.754   4.414  14.768  0.00  0.00    +0.000 A 
ATOM     14  C   UNL     1       7.694   5.169  14.050  0.00  0.00    +0.000 A 
ATOM     15  C   UNL     1       7.739   5.099  12.658  0.00  0.00    +0.000 A 
ATOM     16  C   UNL     1       6.849   4.277  11.971  0.00  0.00    +0.000 A 
ATOM     17  C   UNL     1       5.906   3.527  12.677  0.00  0.00    +0.000 A 
ATOM     18  C   UNL     1       5.845   3.607  14.070  0.00  0.00    +0.000 A 
ENDBRANCH  11  13
ENDBRANCH   3  11
BRANCH  10  19
ATOM     19  C   UNL     1       3.302   7.673  18.522  0.00  0.00    +0.000 C 
BRANCH  19  20
ATOM     20  C   UNL     1       2.259   8.386  17.665  0.00  0.00    +0.000 C 
BRANCH  20  21
ATOM     21  C   UNL     1       1.151   9.060  18.446  0.00  0.00    +0.000 A 
ATOM     22  C   UNL     1       0.157   9.737  17.738  0.00  0.00    +0.000 A 
ATOM     23  C   UNL     1      -0.787  10.477  18.438  0.00  0.00    +0.000 A 
ATOM     24  C   UNL     1      -0.725  10.517  19.826  0.00  0.00    +0.000 A 
ATOM     25  C   UNL     1       0.280   9.802  20.455  0.00  0.00    +0.000 A 
ATOM     26  N   UNL     1       1.215   9.080  19.799  0.00  0.00    +0.000 NA
ENDBRANCH  20  21
ENDBRANCH  19  20
ENDBRANCH  10  19
TORSDOF 5
ENDMDL
MODEL 9
REMARK VINA RESULT:      -7.7      3.596      8.306
REMARK  Name = 
REMARK  6 active torsions:
REMARK  status: ('A' for Active; 'I' for Inactive)
REMARK    1  A    between atoms: C_1  and  C_2
REMARK    2  A    between atoms: C_3  and  C_4
REMARK    3  A    between atoms: C_4  and  C_6
REMARK    4  A    between atoms: C_18  and  C_19
REMARK    5  A    between atoms: C_19  and  C_20
REMARK    6  A    between atoms: C_20  and  C_21
REMARK                            x       y       z     vdW  Elec       q    Type
REMARK                         _______ _______ _______ _____ _____    ______ ____
ROOT
ATOM      1  C   UNL     1       4.282   7.476  17.480  0.00  0.00    +0.000 C 
ATOM      2  C   UNL     1       3.879   6.389  18.426  0.00  0.00    +0.000 A 
ATOM      3  C   UNL     1       4.544   5.137  18.652  0.00  0.00    +0.000 A 
ATOM      4  C   UNL     1       3.727   4.421  19.518  0.00  0.00    +0.000 A 
ATOM      5  C   UNL     1       3.821   3.104  20.084  0.00  0.00    +0.000 A 
ATOM      6  C   UNL     1       2.848   2.636  20.883  0.00  0.00    +0.000 A 
ATOM      7  C   UNL     1       1.692   3.433  21.187  0.00  0.00    +0.000 A 
ATOM      8  C   UNL     1       1.588   4.660  20.653  0.00  0.00    +0.000 A 
ATOM      9  N   UNL     1       2.605   5.184  19.844  0.00  0.00    +0.000 N 
ATOM     10  C   UNL     1       2.730   6.427  19.225  0.00  0.00    +0.000 A 
ENDROOT
BRANCH   3  11
ATOM     11  C   UNL     1       5.785   4.603  18.075  0.00  0.00    +0.000 C 
ATOM     12  O   UNL     1       6.735   4.256  18.778  0.00  0.00    +0.000 OA
BRANCH  11  13
ATOM     13  C   UNL     1       5.944   4.482  16.601  0.00  0.00    +0.000 A 
ATOM     14  C   UNL     1       7.141   4.927  16.019  0.00  0.00    +0.000 A 
ATOM     15  C   UNL     1       7.320   4.860  14.638  0.00  0.00    +0.000 A 
ATOM     16  C   UNL     1       6.308   4.350  13.827  0.00  0.00    +0.000 A 
ATOM     17  C   UNL     1       5.112   3.912  14.397  0.00  0.00    +0.000 A 
ATOM     18  C   UNL     1       4.921   3.992  15.778  0.00  0.00    +0.000 A 
ENDBRANCH  11  13
ENDBRANCH   3  11
BRANCH  10  19
ATOM     19  C   UNL     1       1.749   7.586  19.279  0.00  0.00    +0.000 C 
BRANCH  19  20
ATOM     20  C   UNL     1       1.477   8.237  20.633  0.00  0.00    +0.000 C 
BRANCH  20  21
ATOM     21  C   UNL     1       0.624   9.486  20.575  0.00  0.00    +0.000 A 
ATOM     22  C   UNL     1       0.176  10.039  21.776  0.00  0.00    +0.000 A 
ATOM     23  C   UNL     1      -0.721  11.099  21.739  0.00  0.00    +0.000 A 
ATOM     24  C   UNL     1      -1.141  11.591  20.508  0.00  0.00    +0.000 A 
ATOM     25  C   UNL     1      -0.635  11.000  19.363  0.00  0.00    +0.000 A 
ATOM     26  N   UNL     1       0.232   9.963  19.370  0.00  0.00    +0.000 NA
ENDBRANCH  20  21
ENDBRANCH  19  20
ENDBRANCH  10  19
TORSDOF 5
ENDMDL
