MODEL 1
REMARK VINA RESULT:      -6.2      0.000      0.000
REMARK  Name = 
REMARK  10 active torsions:
REMARK  status: ('A' for Active; 'I' for Inactive)
REMARK    1  A    between atoms: C_1  and  O_2
REMARK    2  A    between atoms: O_2  and  C_3
REMARK    3  A    between atoms: C_10  and  C_11
REMARK    4  A    between atoms: C_14  and  C_15
REMARK    5  A    between atoms: N_20  and  C_21
REMARK    6  A    between atoms: C_21  and  C_22
REMARK    7  A    between atoms: C_22  and  C_23
REMARK    8  A    between atoms: C_22  and  C_24
REMARK    9  A    between atoms: C_27  and  O_28
REMARK   10  A    between atoms: O_28  and  C_29
REMARK                            x       y       z     vdW  Elec       q    Type
REMARK                         _______ _______ _______ _____ _____    ______ ____
ROOT
ATOM      1  C   UNL     1      -5.634  11.812  18.242  0.00  0.00    +0.000 A 
ATOM      2  C   UNL     1      -4.713  11.122  17.442  0.00  0.00    +0.000 A 
ATOM      3  C   UNL     1      -3.379  10.995  17.784  0.00  0.00    +0.000 A 
ATOM      4  N   UNL     1      -2.640  10.170  17.037  0.00  0.00    +0.000 NA
ATOM      5  C   UNL     1      -1.349   9.957  17.346  0.00  0.00    +0.000 A 
ATOM      6  C   UNL     1      -0.789  10.614  18.428  0.00  0.00    +0.000 A 
ATOM      7  C   UNL     1      -1.524  11.468  19.253  0.00  0.00    +0.000 A 
ATOM      8  C   UNL     1      -0.589  11.850  20.288  0.00  0.00    +0.000 A 
ATOM      9  N   UNL     1       0.637  11.358  20.025  0.00  0.00    +0.000 NA
ATOM     10  N   UNL     1       0.488  10.619  18.916  0.00  0.00    +0.000 N 
ATOM     11  C   UNL     1      -2.898  11.699  18.904  0.00  0.00    +0.000 A 
ATOM     12  C   UNL     1      -3.789  12.554  19.592  0.00  0.00    +0.000 A 
ATOM     13  C   UNL     1      -5.163  12.573  19.312  0.00  0.00    +0.000 A 
ENDROOT
BRANCH   8  14
ATOM     14  C   UNL     1      -0.781  12.659  21.504  0.00  0.00    +0.000 A 
ATOM     15  C   UNL     1      -1.582  12.222  22.566  0.00  0.00    +0.000 A 
ATOM     16  C   UNL     1      -1.818  13.044  23.678  0.00  0.00    +0.000 A 
ATOM     17  C   UNL     1      -1.186  14.285  23.784  0.00  0.00    +0.000 A 
ATOM     18  C   UNL     1      -0.316  14.696  22.770  0.00  0.00    +0.000 A 
ATOM     19  C   UNL     1      -0.123  13.892  21.638  0.00  0.00    +0.000 A 
BRANCH  17  20
ATOM     20  C   UNL     1      -1.418  15.122  24.924  0.00  0.00    +0.000 C 
ATOM     21  N   UNL     1      -1.609  15.792  25.856  0.00  0.00    +0.000 NA
ENDBRANCH  17  20
ENDBRANCH   8  14
BRANCH   1  23
ATOM     22  C   UNL     1      -7.525  12.954  17.396  0.00  0.00    +0.000 C 
ATOM     23  O   UNL     1      -6.974  11.761  17.962  0.00  0.00    +0.000 OA
ENDBRANCH   1  23
BRANCH  13  24
ATOM     24  O   UNL     1      -5.860  13.343  20.203  0.00  0.00    +0.000 OA
ATOM     25  C   UNL     1      -6.433  12.731  21.348  0.00  0.00    +0.000 C 
ENDBRANCH  13  24
BRANCH  10  26
ATOM     26  C   UNL     1       1.659  10.004  18.305  0.00  0.00    +0.000 C 
BRANCH  26  27
ATOM     27  C   UNL     1       1.747   8.478  18.471  0.00  0.00    +0.000 C 
ATOM     28  C   UNL     1       2.975   7.890  17.770  0.00  0.00    +0.000 C 
ATOM     29  C   UNL     1       1.784   8.108  19.956  0.00  0.00    +0.000 C 
ENDBRANCH  26  27
ENDBRANCH  10  26
TORSDOF 6
ENDMDL
MODEL 2
REMARK VINA RESULT:      -5.9      3.201      8.164
REMARK  Name = 
REMARK  10 active torsions:
REMARK  status: ('A' for Active; 'I' for Inactive)
REMARK    1  A    between atoms: C_1  and  O_2
REMARK    2  A    between atoms: O_2  and  C_3
REMARK    3  A    between atoms: C_10  and  C_11
REMARK    4  A    between atoms: C_14  and  C_15
REMARK    5  A    between atoms: N_20  and  C_21
REMARK    6  A    between atoms: C_21  and  C_22
REMARK    7  A    between atoms: C_22  and  C_23
REMARK    8  A    between atoms: C_22  and  C_24
REMARK    9  A    between atoms: C_27  and  O_28
REMARK   10  A    between atoms: O_28  and  C_29
REMARK                            x       y       z     vdW  Elec       q    Type
REMARK                         _______ _______ _______ _____ _____    ______ ____
ROOT
ATOM      1  C   UNL     1       1.019  13.151  20.846  0.00  0.00    +0.000 A 
ATOM      2  C   UNL     1       0.014  13.508  21.757  0.00  0.00    +0.000 A 
ATOM      3  C   UNL     1      -1.325  13.261  21.521  0.00  0.00    +0.000 A 
ATOM      4  N   UNL     1      -2.168  13.483  22.533  0.00  0.00    +0.000 NA
ATOM      5  C   UNL     1      -3.478  13.214  22.390  0.00  0.00    +0.000 A 
ATOM      6  C   UNL     1      -3.946  12.723  21.184  0.00  0.00    +0.000 A 
ATOM      7  C   UNL     1      -3.103  12.452  20.103  0.00  0.00    +0.000 A 
ATOM      8  C   UNL     1      -3.981  11.879  19.107  0.00  0.00    +0.000 A 
ATOM      9  N   UNL     1      -5.261  11.924  19.520  0.00  0.00    +0.000 NA
ATOM     10  N   UNL     1      -5.212  12.423  20.764  0.00  0.00    +0.000 N 
ATOM     11  C   UNL     1      -1.710  12.759  20.263  0.00  0.00    +0.000 A 
ATOM     12  C   UNL     1      -0.711  12.589  19.275  0.00  0.00    +0.000 A 
ATOM     13  C   UNL     1       0.653  12.722  19.571  0.00  0.00    +0.000 A 
ENDROOT
BRANCH   8  14
ATOM     14  C   UNL     1      -3.684  11.302  17.785  0.00  0.00    +0.000 A 
ATOM     15  C   UNL     1      -2.701  10.320  17.608  0.00  0.00    +0.000 A 
ATOM     16  C   UNL     1      -2.377   9.844  16.329  0.00  0.00    +0.000 A 
ATOM     17  C   UNL     1      -3.092  10.283  15.212  0.00  0.00    +0.000 A 
ATOM     18  C   UNL     1      -4.132  11.199  15.385  0.00  0.00    +0.000 A 
ATOM     19  C   UNL     1      -4.419  11.708  16.659  0.00  0.00    +0.000 A 
BRANCH  17  20
ATOM     20  C   UNL     1      -2.768   9.790  13.905  0.00  0.00    +0.000 C 
ATOM     21  N   UNL     1      -2.516   9.391  12.841  0.00  0.00    +0.000 NA
ENDBRANCH  17  20
ENDBRANCH   8  14
BRANCH   1  23
ATOM     22  C   UNL     1       2.768  14.549  21.612  0.00  0.00    +0.000 C 
ATOM     23  O   UNL     1       2.340  13.249  21.195  0.00  0.00    +0.000 OA
ENDBRANCH   1  23
BRANCH  13  24
ATOM     24  O   UNL     1       1.446  12.353  18.519  0.00  0.00    +0.000 OA
ATOM     25  C   UNL     1       1.828  10.993  18.383  0.00  0.00    +0.000 C 
ENDBRANCH  13  24
BRANCH  10  26
ATOM     26  C   UNL     1      -6.454  12.684  21.479  0.00  0.00    +0.000 C 
BRANCH  26  27
ATOM     27  C   UNL     1      -6.906  14.154  21.471  0.00  0.00    +0.000 C 
ATOM     28  C   UNL     1      -7.546  14.554  20.140  0.00  0.00    +0.000 C 
ATOM     29  C   UNL     1      -7.899  14.409  22.609  0.00  0.00    +0.000 C 
ENDBRANCH  26  27
ENDBRANCH  10  26
TORSDOF 6
ENDMDL
MODEL 3
REMARK VINA RESULT:      -5.8      2.777      5.758
REMARK  Name = 
REMARK  10 active torsions:
REMARK  status: ('A' for Active; 'I' for Inactive)
REMARK    1  A    between atoms: C_1  and  O_2
REMARK    2  A    between atoms: O_2  and  C_3
REMARK    3  A    between atoms: C_10  and  C_11
REMARK    4  A    between atoms: C_14  and  C_15
REMARK    5  A    between atoms: N_20  and  C_21
REMARK    6  A    between atoms: C_21  and  C_22
REMARK    7  A    between atoms: C_22  and  C_23
REMARK    8  A    between atoms: C_22  and  C_24
REMARK    9  A    between atoms: C_27  and  O_28
REMARK   10  A    between atoms: O_28  and  C_29
REMARK                            x       y       z     vdW  Elec       q    Type
REMARK                         _______ _______ _______ _____ _____    ______ ____
ROOT
ATOM      1  C   UNL     1       0.911   9.545  19.069  0.00  0.00    +0.000 A 
ATOM      2  C   UNL     1      -0.043   9.463  18.046  0.00  0.00    +0.000 A 
ATOM      3  C   UNL     1      -1.228  10.175  18.075  0.00  0.00    +0.000 A 
ATOM      4  N   UNL     1      -1.974  10.153  16.968  0.00  0.00    +0.000 NA
ATOM      5  C   UNL     1      -3.112  10.867  16.908  0.00  0.00    +0.000 A 
ATOM      6  C   UNL     1      -3.513  11.605  18.008  0.00  0.00    +0.000 A 
ATOM      7  C   UNL     1      -2.758  11.679  19.181  0.00  0.00    +0.000 A 
ATOM      8  C   UNL     1      -3.486  12.614  20.010  0.00  0.00    +0.000 A 
ATOM      9  N   UNL     1      -4.644  12.967  19.422  0.00  0.00    +0.000 NA
ATOM     10  N   UNL     1      -4.632  12.360  18.227  0.00  0.00    +0.000 N 
ATOM     11  C   UNL     1      -1.553  10.900  19.238  0.00  0.00    +0.000 A 
ATOM     12  C   UNL     1      -0.679  10.817  20.346  0.00  0.00    +0.000 A 
ATOM     13  C   UNL     1       0.576  10.198  20.256  0.00  0.00    +0.000 A 
ENDROOT
BRANCH   8  14
ATOM     14  C   UNL     1      -3.159  13.184  21.328  0.00  0.00    +0.000 A 
ATOM     15  C   UNL     1      -3.578  12.583  22.521  0.00  0.00    +0.000 A 
ATOM     16  C   UNL     1      -3.326  13.187  23.762  0.00  0.00    +0.000 A 
ATOM     17  C   UNL     1      -2.576  14.363  23.834  0.00  0.00    +0.000 A 
ATOM     18  C   UNL     1      -2.078  14.927  22.656  0.00  0.00    +0.000 A 
ATOM     19  C   UNL     1      -2.375  14.346  21.416  0.00  0.00    +0.000 A 
BRANCH  17  20
ATOM     20  C   UNL     1      -2.309  14.976  25.101  0.00  0.00    +0.000 C 
ATOM     21  N   UNL     1      -2.102  15.480  26.130  0.00  0.00    +0.000 NA
ENDBRANCH  17  20
ENDBRANCH   8  14
BRANCH   1  23
ATOM     22  C   UNL     1       2.393   8.386  17.635  0.00  0.00    +0.000 C 
ATOM     23  O   UNL     1       2.145   8.968  18.918  0.00  0.00    +0.000 OA
ENDBRANCH   1  23
BRANCH  13  24
ATOM     24  O   UNL     1       1.322  10.378  21.388  0.00  0.00    +0.000 OA
ATOM     25  C   UNL     1       1.323   9.367  22.385  0.00  0.00    +0.000 C 
ENDBRANCH  13  24
BRANCH  10  26
ATOM     26  C   UNL     1      -5.796  12.468  17.357  0.00  0.00    +0.000 C 
BRANCH  26  27
ATOM     27  C   UNL     1      -7.097  11.898  17.946  0.00  0.00    +0.000 C 
ATOM     28  C   UNL     1      -6.859  10.605  18.729  0.00  0.00    +0.000 C 
ATOM     29  C   UNL     1      -7.762  12.931  18.860  0.00  0.00    +0.000 C 
ENDBRANCH  26  27
ENDBRANCH  10  26
TORSDOF 6
ENDMDL
MODEL 4
REMARK VINA RESULT:      -5.8      4.079      8.162
REMARK  Name = 
REMARK  10 active torsions:
REMARK  status: ('A' for Active; 'I' for Inactive)
REMARK    1  A    between atoms: C_1  and  O_2
REMARK    2  A    between atoms: O_2  and  C_3
REMARK    3  A    between atoms: C_10  and  C_11
REMARK    4  A    between atoms: C_14  and  C_15
REMARK    5  A    between atoms: N_20  and  C_21
REMARK    6  A    between atoms: C_21  and  C_22
REMARK    7  A    between atoms: C_22  and  C_23
REMARK    8  A    between atoms: C_22  and  C_24
REMARK    9  A    between atoms: C_27  and  O_28
REMARK   10  A    between atoms: O_28  and  C_29
REMARK                            x       y       z     vdW  Elec       q    Type
REMARK                         _______ _______ _______ _____ _____    ______ ____
ROOT
ATOM      1  C   UNL     1       1.189  16.604  22.606  0.00  0.00    +0.000 A 
ATOM      2  C   UNL     1      -0.063  16.851  23.188  0.00  0.00    +0.000 A 
ATOM      3  C   UNL     1      -0.996  15.853  23.397  0.00  0.00    +0.000 A 
ATOM      4  N   UNL     1      -2.075  16.175  24.116  0.00  0.00    +0.000 NA
ATOM      5  C   UNL     1      -2.997  15.240  24.404  0.00  0.00    +0.000 A 
ATOM      6  C   UNL     1      -2.828  13.949  23.933  0.00  0.00    +0.000 A 
ATOM      7  C   UNL     1      -1.708  13.556  23.197  0.00  0.00    +0.000 A 
ATOM      8  C   UNL     1      -1.897  12.135  23.000  0.00  0.00    +0.000 A 
ATOM      9  N   UNL     1      -3.095  11.746  23.475  0.00  0.00    +0.000 NA
ATOM     10  N   UNL     1      -3.626  12.843  24.033  0.00  0.00    +0.000 N 
ATOM     11  C   UNL     1      -0.739  14.567  22.883  0.00  0.00    +0.000 A 
ATOM     12  C   UNL     1       0.437  14.372  22.122  0.00  0.00    +0.000 A 
ATOM     13  C   UNL     1       1.431  15.357  22.028  0.00  0.00    +0.000 A 
ENDROOT
BRANCH   8  14
ATOM     14  C   UNL     1      -1.019  11.127  22.382  0.00  0.00    +0.000 A 
ATOM     15  C   UNL     1      -0.711  11.150  21.016  0.00  0.00    +0.000 A 
ATOM     16  C   UNL     1       0.059  10.133  20.432  0.00  0.00    +0.000 A 
ATOM     17  C   UNL     1       0.607   9.121  21.224  0.00  0.00    +0.000 A 
ATOM     18  C   UNL     1       0.378   9.135  22.602  0.00  0.00    +0.000 A 
ATOM     19  C   UNL     1      -0.433  10.125  23.173  0.00  0.00    +0.000 A 
BRANCH  17  20
ATOM     20  C   UNL     1       1.403   8.087  20.631  0.00  0.00    +0.000 C 
ATOM     21  N   UNL     1       2.058   7.252  20.154  0.00  0.00    +0.000 NA
ENDBRANCH  17  20
ENDBRANCH   8  14
BRANCH   1  23
ATOM     22  C   UNL     1       2.710  17.918  23.854  0.00  0.00    +0.000 C 
ATOM     23  O   UNL     1       2.149  17.580  22.581  0.00  0.00    +0.000 OA
ENDBRANCH   1  23
BRANCH  13  24
ATOM     24  O   UNL     1       2.549  14.901  21.387  0.00  0.00    +0.000 OA
ATOM     25  C   UNL     1       2.476  14.590  20.004  0.00  0.00    +0.000 C 
ENDBRANCH  13  24
BRANCH  10  26
ATOM     26  C   UNL     1      -4.977  12.787  24.576  0.00  0.00    +0.000 C 
BRANCH  26  27
ATOM     27  C   UNL     1      -6.088  13.156  23.579  0.00  0.00    +0.000 C 
ATOM     28  C   UNL     1      -7.327  12.271  23.742  0.00  0.00    +0.000 C 
ATOM     29  C   UNL     1      -6.487  14.624  23.749  0.00  0.00    +0.000 C 
ENDBRANCH  26  27
ENDBRANCH  10  26
TORSDOF 6
ENDMDL
MODEL 5
REMARK VINA RESULT:      -5.7      3.359      8.080
REMARK  Name = 
REMARK  10 active torsions:
REMARK  status: ('A' for Active; 'I' for Inactive)
REMARK    1  A    between atoms: C_1  and  O_2
REMARK    2  A    between atoms: O_2  and  C_3
REMARK    3  A    between atoms: C_10  and  C_11
REMARK    4  A    between atoms: C_14  and  C_15
REMARK    5  A    between atoms: N_20  and  C_21
REMARK    6  A    between atoms: C_21  and  C_22
REMARK    7  A    between atoms: C_22  and  C_23
REMARK    8  A    between atoms: C_22  and  C_24
REMARK    9  A    between atoms: C_27  and  O_28
REMARK   10  A    between atoms: O_28  and  C_29
REMARK                            x       y       z     vdW  Elec       q    Type
REMARK                         _______ _______ _______ _____ _____    ______ ____
ROOT
ATOM      1  C   UNL     1       2.017  14.690  20.760  0.00  0.00    +0.000 A 
ATOM      2  C   UNL     1       1.292  14.913  21.939  0.00  0.00    +0.000 A 
ATOM      3  C   UNL     1       0.010  14.433  22.126  0.00  0.00    +0.000 A 
ATOM      4  N   UNL     1      -0.510  14.556  23.350  0.00  0.00    +0.000 NA
ATOM      5  C   UNL     1      -1.732  14.063  23.616  0.00  0.00    +0.000 A 
ATOM      6  C   UNL     1      -2.453  13.445  22.608  0.00  0.00    +0.000 A 
ATOM      7  C   UNL     1      -1.946  13.271  21.318  0.00  0.00    +0.000 A 
ATOM      8  C   UNL     1      -2.971  12.513  20.636  0.00  0.00    +0.000 A 
ATOM      9  N   UNL     1      -4.052  12.360  21.424  0.00  0.00    +0.000 NA
ATOM     10  N   UNL     1      -3.714  12.917  22.596  0.00  0.00    +0.000 N 
ATOM     11  C   UNL     1      -0.647  13.816  21.043  0.00  0.00    +0.000 A 
ATOM     12  C   UNL     1       0.017  13.772  19.794  0.00  0.00    +0.000 A 
ATOM     13  C   UNL     1       1.361  14.147  19.656  0.00  0.00    +0.000 A 
ENDROOT
BRANCH   8  14
ATOM     14  C   UNL     1      -2.996  11.934  19.282  0.00  0.00    +0.000 A 
ATOM     15  C   UNL     1      -1.913  11.212  18.764  0.00  0.00    +0.000 A 
ATOM     16  C   UNL     1      -1.924  10.741  17.443  0.00  0.00    +0.000 A 
ATOM     17  C   UNL     1      -3.056  10.912  16.644  0.00  0.00    +0.000 A 
ATOM     18  C   UNL     1      -4.176  11.556  17.176  0.00  0.00    +0.000 A 
ATOM     19  C   UNL     1      -4.141  12.068  18.480  0.00  0.00    +0.000 A 
BRANCH  17  20
ATOM     20  C   UNL     1      -3.073  10.423  15.297  0.00  0.00    +0.000 C 
ATOM     21  N   UNL     1      -3.098  10.027  14.202  0.00  0.00    +0.000 NA
ENDBRANCH  17  20
ENDBRANCH   8  14
BRANCH   1  23
ATOM     22  C   UNL     1       3.612  16.364  20.259  0.00  0.00    +0.000 C 
ATOM     23  O   UNL     1       3.344  15.025  20.685  0.00  0.00    +0.000 OA
ENDBRANCH   1  23
BRANCH  13  24
ATOM     24  O   UNL     1       1.847  13.869  18.408  0.00  0.00    +0.000 OA
ATOM     25  C   UNL     1       2.324  12.562  18.124  0.00  0.00    +0.000 C 
ENDBRANCH  13  24
BRANCH  10  26
ATOM     26  C   UNL     1      -4.704  12.997  23.662  0.00  0.00    +0.000 C 
BRANCH  26  27
ATOM     27  C   UNL     1      -6.060  13.587  23.240  0.00  0.00    +0.000 C 
ATOM     28  C   UNL     1      -7.205  13.091  24.126  0.00  0.00    +0.000 C 
ATOM     29  C   UNL     1      -6.009  15.117  23.283  0.00  0.00    +0.000 C 
ENDBRANCH  26  27
ENDBRANCH  10  26
TORSDOF 6
ENDMDL
MODEL 6
REMARK VINA RESULT:      -5.7      2.274      6.349
REMARK  Name = 
REMARK  10 active torsions:
REMARK  status: ('A' for Active; 'I' for Inactive)
REMARK    1  A    between atoms: C_1  and  O_2
REMARK    2  A    between atoms: O_2  and  C_3
REMARK    3  A    between atoms: C_10  and  C_11
REMARK    4  A    between atoms: C_14  and  C_15
REMARK    5  A    between atoms: N_20  and  C_21
REMARK    6  A    between atoms: C_21  and  C_22
REMARK    7  A    between atoms: C_22  and  C_23
REMARK    8  A    between atoms: C_22  and  C_24
REMARK    9  A    between atoms: C_27  and  O_28
REMARK   10  A    between atoms: O_28  and  C_29
REMARK                            x       y       z     vdW  Elec       q    Type
REMARK                         _______ _______ _______ _____ _____    ______ ____
ROOT
ATOM      1  C   UNL     1      -6.367  13.058  19.151  0.00  0.00    +0.000 A 
ATOM      2  C   UNL     1      -6.582  14.005  20.162  0.00  0.00    +0.000 A 
ATOM      3  C   UNL     1      -5.684  14.209  21.193  0.00  0.00    +0.000 A 
ATOM      4  N   UNL     1      -5.910  15.254  21.993  0.00  0.00    +0.000 NA
ATOM      5  C   UNL     1      -5.048  15.544  22.984  0.00  0.00    +0.000 A 
ATOM      6  C   UNL     1      -3.938  14.740  23.178  0.00  0.00    +0.000 A 
ATOM      7  C   UNL     1      -3.645  13.650  22.356  0.00  0.00    +0.000 A 
ATOM      8  C   UNL     1      -2.375  13.166  22.852  0.00  0.00    +0.000 A 
ATOM      9  N   UNL     1      -2.010  13.841  23.958  0.00  0.00    +0.000 NA
ATOM     10  N   UNL     1      -2.953  14.778  24.126  0.00  0.00    +0.000 N 
ATOM     11  C   UNL     1      -4.581  13.342  21.312  0.00  0.00    +0.000 A 
ATOM     12  C   UNL     1      -4.477  12.262  20.404  0.00  0.00    +0.000 A 
ATOM     13  C   UNL     1      -5.321  12.145  19.291  0.00  0.00    +0.000 A 
ENDROOT
BRANCH   8  14
ATOM     14  C   UNL     1      -1.492  12.099  22.349  0.00  0.00    +0.000 A 
ATOM     15  C   UNL     1      -0.854  12.188  21.106  0.00  0.00    +0.000 A 
ATOM     16  C   UNL     1      -0.085  11.125  20.611  0.00  0.00    +0.000 A 
ATOM     17  C   UNL     1       0.128   9.986  21.391  0.00  0.00    +0.000 A 
ATOM     18  C   UNL     1      -0.433   9.921  22.669  0.00  0.00    +0.000 A 
ATOM     19  C   UNL     1      -1.241  10.965  23.139  0.00  0.00    +0.000 A 
BRANCH  17  20
ATOM     20  C   UNL     1       0.922   8.903  20.891  0.00  0.00    +0.000 C 
ATOM     21  N   UNL     1       1.571   8.021  20.495  0.00  0.00    +0.000 NA
ENDBRANCH  17  20
ENDBRANCH   8  14
BRANCH   1  23
ATOM     22  C   UNL     1      -6.778  13.827  16.951  0.00  0.00    +0.000 C 
ATOM     23  O   UNL     1      -7.187  13.013  18.054  0.00  0.00    +0.000 OA
ENDBRANCH   1  23
BRANCH  13  24
ATOM     24  O   UNL     1      -4.940  11.128  18.460  0.00  0.00    +0.000 OA
ATOM     25  C   UNL     1      -3.804  11.301  17.628  0.00  0.00    +0.000 C 
ENDBRANCH  13  24
BRANCH  10  26
ATOM     26  C   UNL     1      -2.904  15.641  25.299  0.00  0.00    +0.000 C 
BRANCH  26  27
ATOM     27  C   UNL     1      -1.663  16.544  25.384  0.00  0.00    +0.000 C 
ATOM     28  C   UNL     1      -2.033  18.026  25.483  0.00  0.00    +0.000 C 
ATOM     29  C   UNL     1      -0.805  16.153  26.590  0.00  0.00    +0.000 C 
ENDBRANCH  26  27
ENDBRANCH  10  26
TORSDOF 6
ENDMDL
MODEL 7
REMARK VINA RESULT:      -5.7      8.730     10.701
REMARK  Name = 
REMARK  10 active torsions:
REMARK  status: ('A' for Active; 'I' for Inactive)
REMARK    1  A    between atoms: C_1  and  O_2
REMARK    2  A    between atoms: O_2  and  C_3
REMARK    3  A    between atoms: C_10  and  C_11
REMARK    4  A    between atoms: C_14  and  C_15
REMARK    5  A    between atoms: N_20  and  C_21
REMARK    6  A    between atoms: C_21  and  C_22
REMARK    7  A    between atoms: C_22  and  C_23
REMARK    8  A    between atoms: C_22  and  C_24
REMARK    9  A    between atoms: C_27  and  O_28
REMARK   10  A    between atoms: O_28  and  C_29
REMARK                            x       y       z     vdW  Elec       q    Type
REMARK                         _______ _______ _______ _____ _____    ______ ____
ROOT
ATOM      1  C   UNL     1       4.950  16.719  19.587  0.00  0.00    +0.000 A 
ATOM      2  C   UNL     1       6.020  16.751  18.682  0.00  0.00    +0.000 A 
ATOM      3  C   UNL     1       7.203  16.071  18.904  0.00  0.00    +0.000 A 
ATOM      4  N   UNL     1       8.077  16.033  17.895  0.00  0.00    +0.000 NA
ATOM      5  C   UNL     1       9.224  15.344  18.023  0.00  0.00    +0.000 A 
ATOM      6  C   UNL     1       9.499  14.693  19.213  0.00  0.00    +0.000 A 
ATOM      7  C   UNL     1       8.610  14.683  20.290  0.00  0.00    +0.000 A 
ATOM      8  C   UNL     1       9.246  13.826  21.265  0.00  0.00    +0.000 A 
ATOM      9  N   UNL     1      10.472  13.459  20.847  0.00  0.00    +0.000 NA
ATOM     10  N   UNL     1      10.595  13.982  19.618  0.00  0.00    +0.000 N 
ATOM     11  C   UNL     1       7.395  15.436  20.146  0.00  0.00    +0.000 A 
ATOM     12  C   UNL     1       6.392  15.575  21.133  0.00  0.00    +0.000 A 
ATOM     13  C   UNL     1       5.148  16.157  20.848  0.00  0.00    +0.000 A 
ENDROOT
BRANCH   8  14
ATOM     14  C   UNL     1       8.769  13.341  22.572  0.00  0.00    +0.000 A 
ATOM     15  C   UNL     1       8.414  12.003  22.783  0.00  0.00    +0.000 A 
ATOM     16  C   UNL     1       7.884  11.581  24.010  0.00  0.00    +0.000 A 
ATOM     17  C   UNL     1       7.781  12.475  25.078  0.00  0.00    +0.000 A 
ATOM     18  C   UNL     1       8.212  13.793  24.908  0.00  0.00    +0.000 A 
ATOM     19  C   UNL     1       8.695  14.222  23.664  0.00  0.00    +0.000 A 
BRANCH  17  20
ATOM     20  C   UNL     1       7.249  12.043  26.337  0.00  0.00    +0.000 C 
ATOM     21  N   UNL     1       6.815  11.682  27.355  0.00  0.00    +0.000 NA
ENDBRANCH  17  20
ENDBRANCH   8  14
BRANCH   1  23
ATOM     22  C   UNL     1       3.121  16.690  18.085  0.00  0.00    +0.000 C 
ATOM     23  O   UNL     1       3.735  17.255  19.248  0.00  0.00    +0.000 OA
ENDBRANCH   1  23
BRANCH  13  24
ATOM     24  O   UNL     1       4.273  16.040  21.893  0.00  0.00    +0.000 OA
ATOM     25  C   UNL     1       4.782  15.935  23.214  0.00  0.00    +0.000 C 
ENDBRANCH  13  24
BRANCH  10  26
ATOM     26  C   UNL     1      11.857  13.840  18.904  0.00  0.00    +0.000 C 
BRANCH  26  27
ATOM     27  C   UNL     1      11.876  12.730  17.841  0.00  0.00    +0.000 C 
ATOM     28  C   UNL     1      10.795  11.675  18.087  0.00  0.00    +0.000 C 
ATOM     29  C   UNL     1      11.692  13.330  16.444  0.00  0.00    +0.000 C 
ENDBRANCH  26  27
ENDBRANCH  10  26
TORSDOF 6
ENDMDL
MODEL 8
REMARK VINA RESULT:      -5.7      2.093      6.008
REMARK  Name = 
REMARK  10 active torsions:
REMARK  status: ('A' for Active; 'I' for Inactive)
REMARK    1  A    between atoms: C_1  and  O_2
REMARK    2  A    between atoms: O_2  and  C_3
REMARK    3  A    between atoms: C_10  and  C_11
REMARK    4  A    between atoms: C_14  and  C_15
REMARK    5  A    between atoms: N_20  and  C_21
REMARK    6  A    between atoms: C_21  and  C_22
REMARK    7  A    between atoms: C_22  and  C_23
REMARK    8  A    between atoms: C_22  and  C_24
REMARK    9  A    between atoms: C_27  and  O_28
REMARK   10  A    between atoms: O_28  and  C_29
REMARK                            x       y       z     vdW  Elec       q    Type
REMARK                         _______ _______ _______ _____ _____    ______ ____
ROOT
ATOM      1  C   UNL     1      -6.534  13.062  18.541  0.00  0.00    +0.000 A 
ATOM      2  C   UNL     1      -6.650  13.697  19.785  0.00  0.00    +0.000 A 
ATOM      3  C   UNL     1      -5.618  13.730  20.703  0.00  0.00    +0.000 A 
ATOM      4  N   UNL     1      -5.785  14.512  21.774  0.00  0.00    +0.000 NA
ATOM      5  C   UNL     1      -4.799  14.633  22.680  0.00  0.00    +0.000 A 
ATOM      6  C   UNL     1      -3.621  13.927  22.505  0.00  0.00    +0.000 A 
ATOM      7  C   UNL     1      -3.388  13.115  21.393  0.00  0.00    +0.000 A 
ATOM      8  C   UNL     1      -2.027  12.659  21.569  0.00  0.00    +0.000 A 
ATOM      9  N   UNL     1      -1.539  13.070  22.754  0.00  0.00    +0.000 NA
ATOM     10  N   UNL     1      -2.505  13.830  23.288  0.00  0.00    +0.000 N 
ATOM     11  C   UNL     1      -4.454  12.982  20.441  0.00  0.00    +0.000 A 
ATOM     12  C   UNL     1      -4.421  12.181  19.275  0.00  0.00    +0.000 A 
ATOM     13  C   UNL     1      -5.420  12.258  18.294  0.00  0.00    +0.000 A 
ENDROOT
BRANCH   8  14
ATOM     14  C   UNL     1      -1.165  11.851  20.690  0.00  0.00    +0.000 A 
ATOM     15  C   UNL     1      -0.669  10.601  21.081  0.00  0.00    +0.000 A 
ATOM     16  C   UNL     1       0.218   9.886  20.263  0.00  0.00    +0.000 A 
ATOM     17  C   UNL     1       0.557  10.373  18.998  0.00  0.00    +0.000 A 
ATOM     18  C   UNL     1       0.001  11.578  18.559  0.00  0.00    +0.000 A 
ATOM     19  C   UNL     1      -0.845  12.312  19.402  0.00  0.00    +0.000 A 
BRANCH  17  20
ATOM     20  C   UNL     1       1.454   9.639  18.156  0.00  0.00    +0.000 C 
ATOM     21  N   UNL     1       2.185   9.036  17.480  0.00  0.00    +0.000 NA
ENDBRANCH  17  20
ENDBRANCH   8  14
BRANCH   1  23
ATOM     22  C   UNL     1      -7.276  14.235  16.625  0.00  0.00    +0.000 C 
ATOM     23  O   UNL     1      -7.511  13.206  17.591  0.00  0.00    +0.000 OA
ENDBRANCH   1  23
BRANCH  13  24
ATOM     24  O   UNL     1      -5.107  11.527  17.181  0.00  0.00    +0.000 OA
ATOM     25  C   UNL     1      -3.848  10.877  17.111  0.00  0.00    +0.000 C 
ENDBRANCH  13  24
BRANCH  10  26
ATOM     26  C   UNL     1      -2.330  14.372  24.630  0.00  0.00    +0.000 C 
BRANCH  26  27
ATOM     27  C   UNL     1      -1.208  15.414  24.764  0.00  0.00    +0.000 C 
ATOM     28  C   UNL     1      -1.394  16.591  23.804  0.00  0.00    +0.000 C 
ATOM     29  C   UNL     1      -1.138  15.936  26.202  0.00  0.00    +0.000 C 
ENDBRANCH  26  27
ENDBRANCH  10  26
TORSDOF 6
ENDMDL
MODEL 9
REMARK VINA RESULT:      -5.7      0.741      1.185
REMARK  Name = 
REMARK  10 active torsions:
REMARK  status: ('A' for Active; 'I' for Inactive)
REMARK    1  A    between atoms: C_1  and  O_2
REMARK    2  A    between atoms: O_2  and  C_3
REMARK    3  A    between atoms: C_10  and  C_11
REMARK    4  A    between atoms: C_14  and  C_15
REMARK    5  A    between atoms: N_20  and  C_21
REMARK    6  A    between atoms: C_21  and  C_22
REMARK    7  A    between atoms: C_22  and  C_23
REMARK    8  A    between atoms: C_22  and  C_24
REMARK    9  A    between atoms: C_27  and  O_28
REMARK   10  A    between atoms: O_28  and  C_29
REMARK                            x       y       z     vdW  Elec       q    Type
REMARK                         _______ _______ _______ _____ _____    ______ ____
ROOT
ATOM      1  C   UNL     1      -5.434  11.372  18.370  0.00  0.00    +0.000 A 
ATOM      2  C   UNL     1      -4.520  10.642  17.597  0.00  0.00    +0.000 A 
ATOM      3  C   UNL     1      -3.163  10.634  17.860  0.00  0.00    +0.000 A 
ATOM      4  N   UNL     1      -2.419   9.767  17.169  0.00  0.00    +0.000 NA
ATOM      5  C   UNL     1      -1.100   9.667  17.412  0.00  0.00    +0.000 A 
ATOM      6  C   UNL     1      -0.520  10.481  18.369  0.00  0.00    +0.000 A 
ATOM      7  C   UNL     1      -1.257  11.388  19.135  0.00  0.00    +0.000 A 
ATOM      8  C   UNL     1      -0.288  11.945  20.052  0.00  0.00    +0.000 A 
ATOM      9  N   UNL     1       0.948  11.495  19.767  0.00  0.00    +0.000 NA
ATOM     10  N   UNL     1       0.782  10.618  18.766  0.00  0.00    +0.000 N 
ATOM     11  C   UNL     1      -2.661  11.496  18.854  0.00  0.00    +0.000 A 
ATOM     12  C   UNL     1      -3.563  12.377  19.495  0.00  0.00    +0.000 A 
ATOM     13  C   UNL     1      -4.950  12.284  19.308  0.00  0.00    +0.000 A 
ENDROOT
BRANCH   8  14
ATOM     14  C   UNL     1      -0.458  12.884  21.174  0.00  0.00    +0.000 A 
ATOM     15  C   UNL     1       0.105  14.166  21.160  0.00  0.00    +0.000 A 
ATOM     16  C   UNL     1       0.002  15.013  22.273  0.00  0.00    +0.000 A 
ATOM     17  C   UNL     1      -0.743  14.623  23.388  0.00  0.00    +0.000 A 
ATOM     18  C   UNL     1      -1.382  13.380  23.381  0.00  0.00    +0.000 A 
ATOM     19  C   UNL     1      -1.234  12.518  22.286  0.00  0.00    +0.000 A 
BRANCH  17  20
ATOM     20  C   UNL     1      -0.859  15.491  24.522  0.00  0.00    +0.000 C 
ATOM     21  N   UNL     1      -0.943  16.201  25.441  0.00  0.00    +0.000 NA
ENDBRANCH  17  20
ENDBRANCH   8  14
BRANCH   1  23
ATOM     22  C   UNL     1      -7.449  10.451  19.200  0.00  0.00    +0.000 C 
ATOM     23  O   UNL     1      -6.783  11.212  18.188  0.00  0.00    +0.000 OA
ENDBRANCH   1  23
BRANCH  13  24
ATOM     24  O   UNL     1      -5.640  13.116  20.146  0.00  0.00    +0.000 OA
ATOM     25  C   UNL     1      -5.284  13.168  21.519  0.00  0.00    +0.000 C 
ENDBRANCH  13  24
BRANCH  10  26
ATOM     26  C   UNL     1       1.950  10.000  18.154  0.00  0.00    +0.000 C 
BRANCH  26  27
ATOM     27  C   UNL     1       1.997   8.467  18.256  0.00  0.00    +0.000 C 
ATOM     28  C   UNL     1       3.272   7.886  17.640  0.00  0.00    +0.000 C 
ATOM     29  C   UNL     1       1.894   8.029  19.720  0.00  0.00    +0.000 C 
ENDBRANCH  26  27
ENDBRANCH  10  26
TORSDOF 6
ENDMDL
