MODEL 1
REMARK VINA RESULT:      -7.8      0.000      0.000
REMARK  Name = 
REMARK  8 active torsions:
REMARK  status: ('A' for Active; 'I' for Inactive)
REMARK    1  A    between atoms: C_1  and  N_2
REMARK    2  A    between atoms: N_2  and  C_3
REMARK    3  A    between atoms: N_2  and  C_4
REMARK    4  A    between atoms: C_4  and  C_5
REMARK    5  A    between atoms: C_4  and  C_20
REMARK    6  A    between atoms: C_5  and  N_6
REMARK    7  A    between atoms: N_6  and  S_7
REMARK    8  A    between atoms: S_7  and  C_10
REMARK                            x       y       z     vdW  Elec       q    Type
REMARK                         _______ _______ _______ _____ _____    ______ ____
ROOT
ATOM      1  N   UNL     1       3.379   3.672  17.272  0.00  0.00    +0.000 NA
ATOM      2  H   UNL     1       2.605   3.099  16.929  0.00  0.00    +0.000 HD
ENDROOT
BRANCH   1   3
ATOM      3  S   UNL     1       3.280   3.657  18.933  0.00  0.00    +0.000 S 
ATOM      4  O   UNL     1       2.312   2.655  19.294  0.00  0.00    +0.000 OA
ATOM      5  O   UNL     1       4.655   3.587  19.426  0.00  0.00    +0.000 OA
BRANCH   3   6
ATOM      6  C   UNL     1       2.620   5.245  19.368  0.00  0.00    +0.000 A 
ATOM      7  C   UNL     1       1.974   5.460  20.588  0.00  0.00    +0.000 A 
ATOM      8  C   UNL     1       1.469   6.733  20.872  0.00  0.00    +0.000 A 
ATOM      9  C   UNL     1       1.602   7.785  19.952  0.00  0.00    +0.000 A 
ATOM     10  C   UNL     1       2.239   7.549  18.718  0.00  0.00    +0.000 A 
ATOM     11  C   UNL     1       2.757   6.278  18.445  0.00  0.00    +0.000 A 
ATOM     12  C   UNL     1       2.449   8.650  17.709  0.00  0.00    +0.000 C 
ATOM     13  C   UNL     1       1.525   9.845  17.919  0.00  0.00    +0.000 C 
ATOM     14  C   UNL     1       1.525  10.261  19.385  0.00  0.00    +0.000 C 
ATOM     15  C   UNL     1       0.986   9.131  20.263  0.00  0.00    +0.000 C 
ENDBRANCH   3   6
ENDBRANCH   1   3
BRANCH   1  16
ATOM     16  C   UNL     1       4.693   3.300  16.692  0.00  0.00    +0.000 C 
BRANCH  16  17
ATOM     17  C   UNL     1       5.393   4.425  15.837  0.00  0.00    +0.000 C 
BRANCH  17  18
ATOM     18  C   UNL     1       6.263   5.327  16.746  0.00  0.00    +0.000 A 
ATOM     19  C   UNL     1       7.192   4.798  17.667  0.00  0.00    +0.000 A 
ATOM     20  C   UNL     1       7.978   5.633  18.461  0.00  0.00    +0.000 A 
ATOM     21  C   UNL     1       7.878   7.010  18.315  0.00  0.00    +0.000 A 
ATOM     22  F   UNL     1       8.677   7.808  19.041  0.00  0.00    +0.000 F 
ATOM     23  C   UNL     1       6.999   7.566  17.409  0.00  0.00    +0.000 A 
ATOM     24  C   UNL     1       6.201   6.732  16.638  0.00  0.00    +0.000 A 
ENDBRANCH  17  18
BRANCH  17  26
ATOM     25  C   UNL     1       5.240   3.755  13.454  0.00  0.00    +0.000 C 
ATOM     26  N   UNL     1       6.123   3.961  14.608  0.00  0.00    +0.000 NA
ATOM     27  C   UNL     1       7.184   4.873  14.190  0.00  0.00    +0.000 C 
ENDBRANCH  17  26
ENDBRANCH  16  17
ENDBRANCH   1  16
TORSDOF 6
ENDMDL
MODEL 2
REMARK VINA RESULT:      -7.7      0.494      1.245
REMARK  Name = 
REMARK  8 active torsions:
REMARK  status: ('A' for Active; 'I' for Inactive)
REMARK    1  A    between atoms: C_1  and  N_2
REMARK    2  A    between atoms: N_2  and  C_3
REMARK    3  A    between atoms: N_2  and  C_4
REMARK    4  A    between atoms: C_4  and  C_5
REMARK    5  A    between atoms: C_4  and  C_20
REMARK    6  A    between atoms: C_5  and  N_6
REMARK    7  A    between atoms: N_6  and  S_7
REMARK    8  A    between atoms: S_7  and  C_10
REMARK                            x       y       z     vdW  Elec       q    Type
REMARK                         _______ _______ _______ _____ _____    ______ ____
ROOT
ATOM      1  N   UNL     1       3.805   3.462  17.263  0.00  0.00    +0.000 NA
ATOM      2  H   UNL     1       3.321   2.630  16.921  0.00  0.00    +0.000 HD
ENDROOT
BRANCH   1   3
ATOM      3  S   UNL     1       3.696   3.426  18.923  0.00  0.00    +0.000 S 
ATOM      4  O   UNL     1       2.789   2.361  19.268  0.00  0.00    +0.000 OA
ATOM      5  O   UNL     1       5.069   3.437  19.426  0.00  0.00    +0.000 OA
BRANCH   3   6
ATOM      6  C   UNL     1       2.935   4.966  19.366  0.00  0.00    +0.000 A 
ATOM      7  C   UNL     1       2.277   5.131  20.588  0.00  0.00    +0.000 A 
ATOM      8  C   UNL     1       1.691   6.368  20.879  0.00  0.00    +0.000 A 
ATOM      9  C   UNL     1       1.755   7.431  19.964  0.00  0.00    +0.000 A 
ATOM     10  C   UNL     1       2.405   7.243  18.729  0.00  0.00    +0.000 A 
ATOM     11  C   UNL     1       3.004   6.009  18.449  0.00  0.00    +0.000 A 
ATOM     12  C   UNL     1       2.542   8.360  17.725  0.00  0.00    +0.000 C 
ATOM     13  C   UNL     1       1.544   9.492  17.942  0.00  0.00    +0.000 C 
ATOM     14  C   UNL     1       1.518   9.899  19.410  0.00  0.00    +0.000 C 
ATOM     15  C   UNL     1       1.054   8.733  20.282  0.00  0.00    +0.000 C 
ENDBRANCH   3   6
ENDBRANCH   1   3
BRANCH   1  16
ATOM     16  C   UNL     1       5.169   3.624  16.701  0.00  0.00    +0.000 C 
BRANCH  16  17
ATOM     17  C   UNL     1       5.445   5.009  15.997  0.00  0.00    +0.000 C 
BRANCH  17  18
ATOM     18  C   UNL     1       6.418   5.859  16.850  0.00  0.00    +0.000 A 
ATOM     19  C   UNL     1       6.534   7.257  16.694  0.00  0.00    +0.000 A 
ATOM     20  C   UNL     1       7.404   8.004  17.489  0.00  0.00    +0.000 A 
ATOM     21  C   UNL     1       8.140   7.369  18.481  0.00  0.00    +0.000 A 
ATOM     22  F   UNL     1       8.933   8.100  19.280  0.00  0.00    +0.000 F 
ATOM     23  C   UNL     1       8.037   6.008  18.681  0.00  0.00    +0.000 A 
ATOM     24  C   UNL     1       7.188   5.265  17.872  0.00  0.00    +0.000 A 
ENDBRANCH  17  18
BRANCH  17  26
ATOM     25  C   UNL     1       7.292   4.827  14.353  0.00  0.00    +0.000 C 
ATOM     26  N   UNL     1       5.843   4.945  14.549  0.00  0.00    +0.000 NA
ATOM     27  C   UNL     1       5.211   3.844  13.827  0.00  0.00    +0.000 C 
ENDBRANCH  17  26
ENDBRANCH  16  17
ENDBRANCH   1  16
TORSDOF 6
ENDMDL
MODEL 3
REMARK VINA RESULT:      -7.6      2.502      4.111
REMARK  Name = 
REMARK  8 active torsions:
REMARK  status: ('A' for Active; 'I' for Inactive)
REMARK    1  A    between atoms: C_1  and  N_2
REMARK    2  A    between atoms: N_2  and  C_3
REMARK    3  A    between atoms: N_2  and  C_4
REMARK    4  A    between atoms: C_4  and  C_5
REMARK    5  A    between atoms: C_4  and  C_20
REMARK    6  A    between atoms: C_5  and  N_6
REMARK    7  A    between atoms: N_6  and  S_7
REMARK    8  A    between atoms: S_7  and  C_10
REMARK                            x       y       z     vdW  Elec       q    Type
REMARK                         _______ _______ _______ _____ _____    ______ ____
ROOT
ATOM      1  N   UNL     1       3.362   5.981  19.814  0.00  0.00    +0.000 NA
ATOM      2  H   UNL     1       3.568   6.690  20.520  0.00  0.00    +0.000 HD
ENDROOT
BRANCH   1   3
ATOM      3  S   UNL     1       2.789   6.794  18.479  0.00  0.00    +0.000 S 
ATOM      4  O   UNL     1       3.932   7.313  17.774  0.00  0.00    +0.000 OA
ATOM      5  O   UNL     1       1.846   5.891  17.821  0.00  0.00    +0.000 OA
BRANCH   3   6
ATOM      6  C   UNL     1       1.873   8.164  19.135  0.00  0.00    +0.000 A 
ATOM      7  C   UNL     1       1.676   9.332  18.394  0.00  0.00    +0.000 A 
ATOM      8  C   UNL     1       0.950  10.382  18.967  0.00  0.00    +0.000 A 
ATOM      9  C   UNL     1       0.425  10.274  20.265  0.00  0.00    +0.000 A 
ATOM     10  C   UNL     1       0.649   9.098  21.007  0.00  0.00    +0.000 A 
ATOM     11  C   UNL     1       1.362   8.044  20.423  0.00  0.00    +0.000 A 
ATOM     12  C   UNL     1       0.075   8.908  22.388  0.00  0.00    +0.000 C 
ATOM     13  C   UNL     1      -0.321  10.218  23.062  0.00  0.00    +0.000 C 
ATOM     14  C   UNL     1      -1.133  11.080  22.103  0.00  0.00    +0.000 C 
ATOM     15  C   UNL     1      -0.298  11.453  20.878  0.00  0.00    +0.000 C 
ENDBRANCH   3   6
ENDBRANCH   1   3
BRANCH   1  16
ATOM     16  C   UNL     1       4.485   5.041  19.575  0.00  0.00    +0.000 C 
BRANCH  16  17
ATOM     17  C   UNL     1       4.254   4.001  18.411  0.00  0.00    +0.000 C 
BRANCH  17  18
ATOM     18  C   UNL     1       5.201   4.305  17.225  0.00  0.00    +0.000 A 
ATOM     19  C   UNL     1       6.564   4.622  17.410  0.00  0.00    +0.000 A 
ATOM     20  C   UNL     1       7.402   4.873  16.322  0.00  0.00    +0.000 A 
ATOM     21  C   UNL     1       6.899   4.767  15.032  0.00  0.00    +0.000 A 
ATOM     22  F   UNL     1       7.723   4.953  13.989  0.00  0.00    +0.000 F 
ATOM     23  C   UNL     1       5.579   4.436  14.809  0.00  0.00    +0.000 A 
ATOM     24  C   UNL     1       4.742   4.211  15.894  0.00  0.00    +0.000 A 
ENDBRANCH  17  18
BRANCH  17  26
ATOM     25  C   UNL     1       4.298   2.352  20.263  0.00  0.00    +0.000 C 
ATOM     26  N   UNL     1       4.267   2.552  18.810  0.00  0.00    +0.000 NA
ATOM     27  C   UNL     1       3.128   1.802  18.288  0.00  0.00    +0.000 C 
ENDBRANCH  17  26
ENDBRANCH  16  17
ENDBRANCH   1  16
TORSDOF 6
ENDMDL
MODEL 4
REMARK VINA RESULT:      -7.5      2.102      3.366
REMARK  Name = 
REMARK  8 active torsions:
REMARK  status: ('A' for Active; 'I' for Inactive)
REMARK    1  A    between atoms: C_1  and  N_2
REMARK    2  A    between atoms: N_2  and  C_3
REMARK    3  A    between atoms: N_2  and  C_4
REMARK    4  A    between atoms: C_4  and  C_5
REMARK    5  A    between atoms: C_4  and  C_20
REMARK    6  A    between atoms: C_5  and  N_6
REMARK    7  A    between atoms: N_6  and  S_7
REMARK    8  A    between atoms: S_7  and  C_10
REMARK                            x       y       z     vdW  Elec       q    Type
REMARK                         _______ _______ _______ _____ _____    ______ ____
ROOT
ATOM      1  N   UNL     1       4.664   3.561  17.979  0.00  0.00    +0.000 NA
ATOM      2  H   UNL     1       5.055   4.106  18.749  0.00  0.00    +0.000 HD
ENDROOT
BRANCH   1   3
ATOM      3  S   UNL     1       3.057   3.315  18.340  0.00  0.00    +0.000 S 
ATOM      4  O   UNL     1       2.366   3.115  17.093  0.00  0.00    +0.000 OA
ATOM      5  O   UNL     1       3.023   2.299  19.391  0.00  0.00    +0.000 OA
BRANCH   3   6
ATOM      6  C   UNL     1       2.505   4.848  19.039  0.00  0.00    +0.000 A 
ATOM      7  C   UNL     1       2.082   4.936  20.368  0.00  0.00    +0.000 A 
ATOM      8  C   UNL     1       1.652   6.171  20.862  0.00  0.00    +0.000 A 
ATOM      9  C   UNL     1       1.638   7.312  20.043  0.00  0.00    +0.000 A 
ATOM     10  C   UNL     1       2.048   7.205  18.700  0.00  0.00    +0.000 A 
ATOM     11  C   UNL     1       2.494   5.970  18.215  0.00  0.00    +0.000 A 
ATOM     12  C   UNL     1       2.095   8.402  17.786  0.00  0.00    +0.000 C 
ATOM     13  C   UNL     1       1.239   9.566  18.272  0.00  0.00    +0.000 C 
ATOM     14  C   UNL     1       1.498   9.832  19.750  0.00  0.00    +0.000 C 
ATOM     15  C   UNL     1       1.104   8.617  20.590  0.00  0.00    +0.000 C 
ENDBRANCH   3   6
ENDBRANCH   1   3
BRANCH   1  16
ATOM     16  C   UNL     1       4.953   4.134  16.641  0.00  0.00    +0.000 C 
BRANCH  16  17
ATOM     17  C   UNL     1       6.476   4.418  16.347  0.00  0.00    +0.000 C 
BRANCH  17  18
ATOM     18  C   UNL     1       6.734   4.432  14.820  0.00  0.00    +0.000 A 
ATOM     19  C   UNL     1       5.960   3.672  13.918  0.00  0.00    +0.000 A 
ATOM     20  C   UNL     1       6.200   3.717  12.543  0.00  0.00    +0.000 A 
ATOM     21  C   UNL     1       7.189   4.556  12.049  0.00  0.00    +0.000 A 
ATOM     22  F   UNL     1       7.377   4.638  10.722  0.00  0.00    +0.000 F 
ATOM     23  C   UNL     1       7.951   5.332  12.896  0.00  0.00    +0.000 A 
ATOM     24  C   UNL     1       7.726   5.267  14.264  0.00  0.00    +0.000 A 
ENDBRANCH  17  18
BRANCH  17  26
ATOM     25  C   UNL     1       6.151   6.743  17.147  0.00  0.00    +0.000 C 
ATOM     26  N   UNL     1       7.073   5.606  17.049  0.00  0.00    +0.000 NA
ATOM     27  C   UNL     1       7.540   5.302  18.398  0.00  0.00    +0.000 C 
ENDBRANCH  17  26
ENDBRANCH  16  17
ENDBRANCH   1  16
TORSDOF 6
ENDMDL
MODEL 5
REMARK VINA RESULT:      -7.5      2.277      3.886
REMARK  Name = 
REMARK  8 active torsions:
REMARK  status: ('A' for Active; 'I' for Inactive)
REMARK    1  A    between atoms: C_1  and  N_2
REMARK    2  A    between atoms: N_2  and  C_3
REMARK    3  A    between atoms: N_2  and  C_4
REMARK    4  A    between atoms: C_4  and  C_5
REMARK    5  A    between atoms: C_4  and  C_20
REMARK    6  A    between atoms: C_5  and  N_6
REMARK    7  A    between atoms: N_6  and  S_7
REMARK    8  A    between atoms: S_7  and  C_10
REMARK                            x       y       z     vdW  Elec       q    Type
REMARK                         _______ _______ _______ _____ _____    ______ ____
ROOT
ATOM      1  N   UNL     1       3.803   5.116  17.304  0.00  0.00    +0.000 NA
ATOM      2  H   UNL     1       3.897   4.104  17.198  0.00  0.00    +0.000 HD
ENDROOT
BRANCH   1   3
ATOM      3  S   UNL     1       3.486   5.396  18.915  0.00  0.00    +0.000 S 
ATOM      4  O   UNL     1       2.597   4.355  19.361  0.00  0.00    +0.000 OA
ATOM      5  O   UNL     1       4.782   5.605  19.558  0.00  0.00    +0.000 OA
BRANCH   3   6
ATOM      6  C   UNL     1       2.601   6.932  18.948  0.00  0.00    +0.000 A 
ATOM      7  C   UNL     1       2.495   7.739  17.812  0.00  0.00    +0.000 A 
ATOM      8  C   UNL     1       1.788   8.943  17.901  0.00  0.00    +0.000 A 
ATOM      9  C   UNL     1       1.193   9.345  19.108  0.00  0.00    +0.000 A 
ATOM     10  C   UNL     1       1.324   8.530  20.249  0.00  0.00    +0.000 A 
ATOM     11  C   UNL     1       2.018   7.318  20.151  0.00  0.00    +0.000 A 
ATOM     12  C   UNL     1       0.672   8.888  21.560  0.00  0.00    +0.000 C 
ATOM     13  C   UNL     1       0.301  10.363  21.667  0.00  0.00    +0.000 C 
ATOM     14  C   UNL     1      -0.420  10.819  20.404  0.00  0.00    +0.000 C 
ATOM     15  C   UNL     1       0.493  10.683  19.186  0.00  0.00    +0.000 C 
ENDBRANCH   3   6
ENDBRANCH   1   3
BRANCH   1  16
ATOM     16  C   UNL     1       4.932   5.880  16.718  0.00  0.00    +0.000 C 
BRANCH  16  17
ATOM     17  C   UNL     1       6.264   5.060  16.515  0.00  0.00    +0.000 C 
BRANCH  17  18
ATOM     18  C   UNL     1       6.485   4.759  15.012  0.00  0.00    +0.000 A 
ATOM     19  C   UNL     1       7.556   5.314  14.281  0.00  0.00    +0.000 A 
ATOM     20  C   UNL     1       7.745   5.010  12.932  0.00  0.00    +0.000 A 
ATOM     21  C   UNL     1       6.890   4.112  12.306  0.00  0.00    +0.000 A 
ATOM     22  F   UNL     1       7.110   3.780  11.025  0.00  0.00    +0.000 F 
ATOM     23  C   UNL     1       5.846   3.530  12.993  0.00  0.00    +0.000 A 
ATOM     24  C   UNL     1       5.646   3.853  14.329  0.00  0.00    +0.000 A 
ENDBRANCH  17  18
BRANCH  17  26
ATOM     25  C   UNL     1       7.345   7.025  17.573  0.00  0.00    +0.000 C 
ATOM     26  N   UNL     1       7.489   5.618  17.183  0.00  0.00    +0.000 NA
ATOM     27  C   UNL     1       7.886   4.872  18.373  0.00  0.00    +0.000 C 
ENDBRANCH  17  26
ENDBRANCH  16  17
ENDBRANCH   1  16
TORSDOF 6
ENDMDL
MODEL 6
REMARK VINA RESULT:      -7.3      0.853      1.302
REMARK  Name = 
REMARK  8 active torsions:
REMARK  status: ('A' for Active; 'I' for Inactive)
REMARK    1  A    between atoms: C_1  and  N_2
REMARK    2  A    between atoms: N_2  and  C_3
REMARK    3  A    between atoms: N_2  and  C_4
REMARK    4  A    between atoms: C_4  and  C_5
REMARK    5  A    between atoms: C_4  and  C_20
REMARK    6  A    between atoms: C_5  and  N_6
REMARK    7  A    between atoms: N_6  and  S_7
REMARK    8  A    between atoms: S_7  and  C_10
REMARK                            x       y       z     vdW  Elec       q    Type
REMARK                         _______ _______ _______ _____ _____    ______ ____
ROOT
ATOM      1  N   UNL     1       4.809   3.253  17.542  0.00  0.00    +0.000 NA
ATOM      2  H   UNL     1       5.180   4.110  17.957  0.00  0.00    +0.000 HD
ENDROOT
BRANCH   1   3
ATOM      3  S   UNL     1       3.483   2.822  18.451  0.00  0.00    +0.000 S 
ATOM      4  O   UNL     1       2.508   2.270  17.547  0.00  0.00    +0.000 OA
ATOM      5  O   UNL     1       3.993   2.039  19.577  0.00  0.00    +0.000 OA
BRANCH   3   6
ATOM      6  C   UNL     1       2.846   4.350  19.088  0.00  0.00    +0.000 A 
ATOM      7  C   UNL     1       2.270   4.430  20.358  0.00  0.00    +0.000 A 
ATOM      8  C   UNL     1       1.780   5.662  20.803  0.00  0.00    +0.000 A 
ATOM      9  C   UNL     1       1.858   6.806  19.993  0.00  0.00    +0.000 A 
ATOM     10  C   UNL     1       2.424   6.707  18.707  0.00  0.00    +0.000 A 
ATOM     11  C   UNL     1       2.929   5.475  18.272  0.00  0.00    +0.000 A 
ATOM     12  C   UNL     1       2.574   7.908  17.810  0.00  0.00    +0.000 C 
ATOM     13  C   UNL     1       1.662   9.067  18.197  0.00  0.00    +0.000 C 
ATOM     14  C   UNL     1       1.745   9.327  19.696  0.00  0.00    +0.000 C 
ATOM     15  C   UNL     1       1.259   8.107  20.479  0.00  0.00    +0.000 C 
ENDBRANCH   3   6
ENDBRANCH   1   3
BRANCH   1  16
ATOM     16  C   UNL     1       4.594   3.350  16.077  0.00  0.00    +0.000 C 
BRANCH  16  17
ATOM     17  C   UNL     1       5.480   4.424  15.337  0.00  0.00    +0.000 C 
BRANCH  17  18
ATOM     18  C   UNL     1       6.302   5.241  16.364  0.00  0.00    +0.000 A 
ATOM     19  C   UNL     1       6.104   6.625  16.559  0.00  0.00    +0.000 A 
ATOM     20  C   UNL     1       6.844   7.335  17.506  0.00  0.00    +0.000 A 
ATOM     21  C   UNL     1       7.761   6.663  18.302  0.00  0.00    +0.000 A 
ATOM     22  F   UNL     1       8.429   7.340  19.250  0.00  0.00    +0.000 F 
ATOM     23  C   UNL     1       7.966   5.307  18.159  0.00  0.00    +0.000 A 
ATOM     24  C   UNL     1       7.246   4.608  17.199  0.00  0.00    +0.000 A 
ENDBRANCH  17  18
BRANCH  17  26
ATOM     25  C   UNL     1       5.518   3.509  13.033  0.00  0.00    +0.000 C 
ATOM     26  N   UNL     1       6.315   3.917  14.196  0.00  0.00    +0.000 NA
ATOM     27  C   UNL     1       7.305   4.885  13.731  0.00  0.00    +0.000 C 
ENDBRANCH  17  26
ENDBRANCH  16  17
ENDBRANCH   1  16
TORSDOF 6
ENDMDL
MODEL 7
REMARK VINA RESULT:      -7.3      2.504      3.891
REMARK  Name = 
REMARK  8 active torsions:
REMARK  status: ('A' for Active; 'I' for Inactive)
REMARK    1  A    between atoms: C_1  and  N_2
REMARK    2  A    between atoms: N_2  and  C_3
REMARK    3  A    between atoms: N_2  and  C_4
REMARK    4  A    between atoms: C_4  and  C_5
REMARK    5  A    between atoms: C_4  and  C_20
REMARK    6  A    between atoms: C_5  and  N_6
REMARK    7  A    between atoms: N_6  and  S_7
REMARK    8  A    between atoms: S_7  and  C_10
REMARK                            x       y       z     vdW  Elec       q    Type
REMARK                         _______ _______ _______ _____ _____    ______ ____
ROOT
ATOM      1  N   UNL     1       3.260   5.770  19.920  0.00  0.00    +0.000 NA
ATOM      2  H   UNL     1       3.362   6.329  20.768  0.00  0.00    +0.000 HD
ENDROOT
BRANCH   1   3
ATOM      3  S   UNL     1       2.639   6.786  18.756  0.00  0.00    +0.000 S 
ATOM      4  O   UNL     1       3.755   7.419  18.103  0.00  0.00    +0.000 OA
ATOM      5  O   UNL     1       1.671   5.996  17.995  0.00  0.00    +0.000 OA
BRANCH   3   6
ATOM      6  C   UNL     1       1.748   8.026  19.658  0.00  0.00    +0.000 A 
ATOM      7  C   UNL     1       1.461   7.877  21.017  0.00  0.00    +0.000 A 
ATOM      8  C   UNL     1       0.750   8.887  21.674  0.00  0.00    +0.000 A 
ATOM      9  C   UNL     1       0.325  10.036  20.987  0.00  0.00    +0.000 A 
ATOM     10  C   UNL     1       0.605  10.163  19.613  0.00  0.00    +0.000 A 
ATOM     11  C   UNL     1       1.331   9.158  18.963  0.00  0.00    +0.000 A 
ATOM     12  C   UNL     1       0.212  11.392  18.832  0.00  0.00    +0.000 C 
ATOM     13  C   UNL     1      -0.885  12.209  19.506  0.00  0.00    +0.000 C 
ATOM     14  C   UNL     1      -0.558  12.418  20.980  0.00  0.00    +0.000 C 
ATOM     15  C   UNL     1      -0.498  11.077  21.711  0.00  0.00    +0.000 C 
ENDBRANCH   3   6
ENDBRANCH   1   3
BRANCH   1  16
ATOM     16  C   UNL     1       4.488   5.025  19.549  0.00  0.00    +0.000 C 
BRANCH  16  17
ATOM     17  C   UNL     1       4.295   3.917  18.443  0.00  0.00    +0.000 C 
BRANCH  17  18
ATOM     18  C   UNL     1       5.214   4.203  17.231  0.00  0.00    +0.000 A 
ATOM     19  C   UNL     1       4.731   4.215  15.905  0.00  0.00    +0.000 A 
ATOM     20  C   UNL     1       5.577   4.496  14.830  0.00  0.00    +0.000 A 
ATOM     21  C   UNL     1       6.907   4.810  15.070  0.00  0.00    +0.000 A 
ATOM     22  F   UNL     1       7.702   5.135  14.038  0.00  0.00    +0.000 F 
ATOM     23  C   UNL     1       7.411   4.833  16.354  0.00  0.00    +0.000 A 
ATOM     24  C   UNL     1       6.573   4.530  17.419  0.00  0.00    +0.000 A 
ENDBRANCH  17  18
BRANCH  17  26
ATOM     25  C   UNL     1       4.272   2.360  20.373  0.00  0.00    +0.000 C 
ATOM     26  N   UNL     1       4.379   2.493  18.916  0.00  0.00    +0.000 NA
ATOM     27  C   UNL     1       3.365   1.628  18.321  0.00  0.00    +0.000 C 
ENDBRANCH  17  26
ENDBRANCH  16  17
ENDBRANCH   1  16
TORSDOF 6
ENDMDL
MODEL 8
REMARK VINA RESULT:      -7.2      0.934      1.119
REMARK  Name = 
REMARK  8 active torsions:
REMARK  status: ('A' for Active; 'I' for Inactive)
REMARK    1  A    between atoms: C_1  and  N_2
REMARK    2  A    between atoms: N_2  and  C_3
REMARK    3  A    between atoms: N_2  and  C_4
REMARK    4  A    between atoms: C_4  and  C_5
REMARK    5  A    between atoms: C_4  and  C_20
REMARK    6  A    between atoms: C_5  and  N_6
REMARK    7  A    between atoms: N_6  and  S_7
REMARK    8  A    between atoms: S_7  and  C_10
REMARK                            x       y       z     vdW  Elec       q    Type
REMARK                         _______ _______ _______ _____ _____    ______ ____
ROOT
ATOM      1  N   UNL     1       4.715   3.040  17.317  0.00  0.00    +0.000 NA
ATOM      2  H   UNL     1       5.424   3.504  17.887  0.00  0.00    +0.000 HD
ENDROOT
BRANCH   1   3
ATOM      3  S   UNL     1       3.537   2.508  18.366  0.00  0.00    +0.000 S 
ATOM      4  O   UNL     1       2.493   1.917  17.570  0.00  0.00    +0.000 OA
ATOM      5  O   UNL     1       4.225   1.735  19.399  0.00  0.00    +0.000 OA
BRANCH   3   6
ATOM      6  C   UNL     1       2.893   3.981  19.117  0.00  0.00    +0.000 A 
ATOM      7  C   UNL     1       2.323   3.961  20.393  0.00  0.00    +0.000 A 
ATOM      8  C   UNL     1       1.827   5.153  20.931  0.00  0.00    +0.000 A 
ATOM      9  C   UNL     1       1.894   6.355  20.208  0.00  0.00    +0.000 A 
ATOM     10  C   UNL     1       2.454   6.356  18.916  0.00  0.00    +0.000 A 
ATOM     11  C   UNL     1       2.965   5.164  18.388  0.00  0.00    +0.000 A 
ATOM     12  C   UNL     1       2.592   7.623  18.110  0.00  0.00    +0.000 C 
ATOM     13  C   UNL     1       1.674   8.743  18.587  0.00  0.00    +0.000 C 
ATOM     14  C   UNL     1       1.763   8.890  20.101  0.00  0.00    +0.000 C 
ATOM     15  C   UNL     1       1.289   7.612  20.793  0.00  0.00    +0.000 C 
ENDBRANCH   3   6
ENDBRANCH   1   3
BRANCH   1  16
ATOM     16  C   UNL     1       4.248   3.860  16.171  0.00  0.00    +0.000 C 
BRANCH  16  17
ATOM     17  C   UNL     1       5.366   4.712  15.456  0.00  0.00    +0.000 C 
BRANCH  17  18
ATOM     18  C   UNL     1       6.237   5.445  16.506  0.00  0.00    +0.000 A 
ATOM     19  C   UNL     1       7.125   4.758  17.360  0.00  0.00    +0.000 A 
ATOM     20  C   UNL     1       7.915   5.445  18.285  0.00  0.00    +0.000 A 
ATOM     21  C   UNL     1       7.857   6.831  18.338  0.00  0.00    +0.000 A 
ATOM     22  F   UNL     1       8.660   7.488  19.189  0.00  0.00    +0.000 F 
ATOM     23  C   UNL     1       7.019   7.540  17.503  0.00  0.00    +0.000 A 
ATOM     24  C   UNL     1       6.218   6.852  16.601  0.00  0.00    +0.000 A 
ENDBRANCH  17  18
BRANCH  17  26
ATOM     25  C   UNL     1       5.387   3.507  13.289  0.00  0.00    +0.000 C 
ATOM     26  N   UNL     1       6.184   3.991  14.421  0.00  0.00    +0.000 NA
ATOM     27  C   UNL     1       7.270   4.802  13.879  0.00  0.00    +0.000 C 
ENDBRANCH  17  26
ENDBRANCH  16  17
ENDBRANCH   1  16
TORSDOF 6
ENDMDL
MODEL 9
REMARK VINA RESULT:      -7.2      2.192      3.586
REMARK  Name = 
REMARK  8 active torsions:
REMARK  status: ('A' for Active; 'I' for Inactive)
REMARK    1  A    between atoms: C_1  and  N_2
REMARK    2  A    between atoms: N_2  and  C_3
REMARK    3  A    between atoms: N_2  and  C_4
REMARK    4  A    between atoms: C_4  and  C_5
REMARK    5  A    between atoms: C_4  and  C_20
REMARK    6  A    between atoms: C_5  and  N_6
REMARK    7  A    between atoms: N_6  and  S_7
REMARK    8  A    between atoms: S_7  and  C_10
REMARK                            x       y       z     vdW  Elec       q    Type
REMARK                         _______ _______ _______ _____ _____    ______ ____
ROOT
ATOM      1  N   UNL     1       4.405   4.646  19.634  0.00  0.00    +0.000 NA
ATOM      2  H   UNL     1       4.748   5.591  19.816  0.00  0.00    +0.000 HD
ENDROOT
BRANCH   1   3
ATOM      3  S   UNL     1       2.748   4.705  19.790  0.00  0.00    +0.000 S 
ATOM      4  O   UNL     1       2.193   3.856  18.768  0.00  0.00    +0.000 OA
ATOM      5  O   UNL     1       2.460   4.468  21.203  0.00  0.00    +0.000 OA
BRANCH   3   6
ATOM      6  C   UNL     1       2.312   6.383  19.413  0.00  0.00    +0.000 A 
ATOM      7  C   UNL     1       2.534   6.929  18.147  0.00  0.00    +0.000 A 
ATOM      8  C   UNL     1       2.174   8.260  17.911  0.00  0.00    +0.000 A 
ATOM      9  C   UNL     1       1.600   9.044  18.925  0.00  0.00    +0.000 A 
ATOM     10  C   UNL     1       1.399   8.485  20.202  0.00  0.00    +0.000 A 
ATOM     11  C   UNL     1       1.745   7.148  20.429  0.00  0.00    +0.000 A 
ATOM     12  C   UNL     1       0.748   9.264  21.317  0.00  0.00    +0.000 C 
ATOM     13  C   UNL     1       0.781  10.773  21.098  0.00  0.00    +0.000 C 
ATOM     14  C   UNL     1       0.331  11.111  19.682  0.00  0.00    +0.000 C 
ATOM     15  C   UNL     1       1.284  10.498  18.655  0.00  0.00    +0.000 C 
ENDBRANCH   3   6
ENDBRANCH   1   3
BRANCH   1  16
ATOM     16  C   UNL     1       4.922   4.062  18.372  0.00  0.00    +0.000 C 
BRANCH  16  17
ATOM     17  C   UNL     1       6.217   4.751  17.794  0.00  0.00    +0.000 C 
BRANCH  17  18
ATOM     18  C   UNL     1       6.272   4.586  16.255  0.00  0.00    +0.000 A 
ATOM     19  C   UNL     1       7.429   4.884  15.505  0.00  0.00    +0.000 A 
ATOM     20  C   UNL     1       7.459   4.707  14.121  0.00  0.00    +0.000 A 
ATOM     21  C   UNL     1       6.345   4.190  13.473  0.00  0.00    +0.000 A 
ATOM     22  F   UNL     1       6.400   3.969  12.150  0.00  0.00    +0.000 F 
ATOM     23  C   UNL     1       5.204   3.864  14.174  0.00  0.00    +0.000 A 
ATOM     24  C   UNL     1       5.169   4.063  15.547  0.00  0.00    +0.000 A 
ENDBRANCH  17  18
BRANCH  17  26
ATOM     25  C   UNL     1       7.852   6.408  18.649  0.00  0.00    +0.000 C 
ATOM     26  N   UNL     1       6.465   6.166  18.237  0.00  0.00    +0.000 NA
ATOM     27  C   UNL     1       6.131   7.155  17.217  0.00  0.00    +0.000 C 
ENDBRANCH  17  26
ENDBRANCH  16  17
ENDBRANCH   1  16
TORSDOF 6
ENDMDL
