MODEL 1
REMARK VINA RESULT:      -8.6      0.000      0.000
REMARK  Name = 
REMARK  8 active torsions:
REMARK  status: ('A' for Active; 'I' for Inactive)
REMARK    1  A    between atoms: C_1  and  C_2
REMARK    2  A    between atoms: C_6  and  C_7
REMARK    3  A    between atoms: C_8  and  N_9
REMARK    4  A    between atoms: C_10  and  C_12
REMARK    5  A    between atoms: C_12  and  S_13
REMARK    6  A    between atoms: S_13  and  C_14
REMARK    7  A    between atoms: C_17  and  C_18
REMARK    8  A    between atoms: C_18  and  C_19
REMARK                            x       y       z     vdW  Elec       q    Type
REMARK                         _______ _______ _______ _____ _____    ______ ____
ROOT
ATOM      1  C   UNL     1       5.178   5.865  16.638  0.00  0.00    +0.000 C 
ENDROOT
BRANCH   1   3
ATOM      2  N   UNL     1       3.198   4.974  17.755  0.00  0.00    +0.000 N 
ATOM      3  C   UNL     1       4.585   5.043  17.781  0.00  0.00    +0.000 C 
ATOM      4  O   UNL     1       5.304   4.595  18.671  0.00  0.00    +0.000 OA
ATOM      5  H   UNL     1       2.745   5.707  17.225  0.00  0.00    +0.000 HD
BRANCH   2  13
ATOM      6  C   UNL     1       2.177   6.505  20.138  0.00  0.00    +0.000 C 
ATOM      7  C   UNL     1       1.911   5.047  19.876  0.00  0.00    +0.000 A 
ATOM      8  C   UNL     1       1.187   4.337  20.854  0.00  0.00    +0.000 A 
ATOM      9  C   UNL     1       0.967   2.968  20.735  0.00  0.00    +0.000 A 
ATOM     10  C   UNL     1       1.464   2.281  19.632  0.00  0.00    +0.000 A 
ATOM     11  C   UNL     1       2.185   2.957  18.635  0.00  0.00    +0.000 A 
ATOM     12  C   UNL     1       2.640   2.175  17.432  0.00  0.00    +0.000 C 
ATOM     13  C   UNL     1       2.401   4.352  18.749  0.00  0.00    +0.000 A 
ENDBRANCH   2  13
ENDBRANCH   1   3
BRANCH   1  14
ATOM     14  S   UNL     1       6.956   5.557  16.518  0.00  0.00    +0.000 S 
BRANCH  14  15
ATOM     15  C   UNL     1       7.614   6.923  17.366  0.00  0.00    +0.000 A 
ATOM     16  N   UNL     1       8.162   6.818  18.560  0.00  0.00    +0.000 NA
ATOM     17  N   UNL     1       8.522   8.089  18.951  0.00  0.00    +0.000 NA
ATOM     18  C   UNL     1       8.172   8.889  17.967  0.00  0.00    +0.000 A 
ATOM     19  O   UNL     1       7.593   8.219  16.916  0.00  0.00    +0.000 OA
BRANCH  18  20
ATOM     20  C   UNL     1       8.259  10.369  17.894  0.00  0.00    +0.000 C 
BRANCH  20  21
ATOM     21  C   UNL     1       9.478  10.936  18.582  0.00  0.00    +0.000 A 
ATOM     22  C   UNL     1      10.628  11.250  17.842  0.00  0.00    +0.000 A 
ATOM     23  C   UNL     1      11.753  11.781  18.474  0.00  0.00    +0.000 A 
ATOM     24  C   UNL     1      11.744  11.999  19.850  0.00  0.00    +0.000 A 
ATOM     25  C   UNL     1      10.611  11.683  20.597  0.00  0.00    +0.000 A 
ATOM     26  C   UNL     1       9.486  11.148  19.969  0.00  0.00    +0.000 A 
ENDBRANCH  20  21
ENDBRANCH  18  20
ENDBRANCH  14  15
ENDBRANCH   1  14
TORSDOF 6
ENDMDL
MODEL 2
REMARK VINA RESULT:      -8.4      1.212      1.268
REMARK  Name = 
REMARK  8 active torsions:
REMARK  status: ('A' for Active; 'I' for Inactive)
REMARK    1  A    between atoms: C_1  and  C_2
REMARK    2  A    between atoms: C_6  and  C_7
REMARK    3  A    between atoms: C_8  and  N_9
REMARK    4  A    between atoms: C_10  and  C_12
REMARK    5  A    between atoms: C_12  and  S_13
REMARK    6  A    between atoms: S_13  and  C_14
REMARK    7  A    between atoms: C_17  and  C_18
REMARK    8  A    between atoms: C_18  and  C_19
REMARK                            x       y       z     vdW  Elec       q    Type
REMARK                         _______ _______ _______ _____ _____    ______ ____
ROOT
ATOM      1  C   UNL     1       6.748   4.551  17.667  0.00  0.00    +0.000 C 
ENDROOT
BRANCH   1   3
ATOM      2  N   UNL     1       4.889   4.470  19.248  0.00  0.00    +0.000 N 
ATOM      3  C   UNL     1       5.283   4.212  17.942  0.00  0.00    +0.000 C 
ATOM      4  O   UNL     1       4.593   3.668  17.084  0.00  0.00    +0.000 OA
ATOM      5  H   UNL     1       5.644   4.523  19.919  0.00  0.00    +0.000 HD
BRANCH   2  13
ATOM      6  C   UNL     1       2.674   6.508  19.306  0.00  0.00    +0.000 C 
ATOM      7  C   UNL     1       2.558   5.099  19.823  0.00  0.00    +0.000 A 
ATOM      8  C   UNL     1       1.343   4.734  20.437  0.00  0.00    +0.000 A 
ATOM      9  C   UNL     1       1.177   3.480  21.018  0.00  0.00    +0.000 A 
ATOM     10  C   UNL     1       2.223   2.562  20.992  0.00  0.00    +0.000 A 
ATOM     11  C   UNL     1       3.445   2.889  20.383  0.00  0.00    +0.000 A 
ATOM     12  C   UNL     1       4.516   1.833  20.326  0.00  0.00    +0.000 C 
ATOM     13  C   UNL     1       3.613   4.161  19.783  0.00  0.00    +0.000 A 
ENDBRANCH   2  13
ENDBRANCH   1   3
BRANCH   1  14
ATOM     14  S   UNL     1       6.852   5.856  16.419  0.00  0.00    +0.000 S 
BRANCH  14  15
ATOM     15  C   UNL     1       7.572   7.155  17.319  0.00  0.00    +0.000 A 
ATOM     16  N   UNL     1       8.179   6.966  18.474  0.00  0.00    +0.000 NA
ATOM     17  N   UNL     1       8.577   8.204  18.927  0.00  0.00    +0.000 NA
ATOM     18  C   UNL     1       8.189   9.071  18.016  0.00  0.00    +0.000 A 
ATOM     19  O   UNL     1       7.548   8.478  16.955  0.00  0.00    +0.000 OA
BRANCH  18  20
ATOM     20  C   UNL     1       8.295  10.551  18.034  0.00  0.00    +0.000 C 
BRANCH  20  21
ATOM     21  C   UNL     1       9.584  11.057  18.639  0.00  0.00    +0.000 A 
ATOM     22  C   UNL     1      10.708  11.275  17.829  0.00  0.00    +0.000 A 
ATOM     23  C   UNL     1      11.897  11.749  18.383  0.00  0.00    +0.000 A 
ATOM     24  C   UNL     1      11.979  12.005  19.751  0.00  0.00    +0.000 A 
ATOM     25  C   UNL     1      10.871  11.784  20.567  0.00  0.00    +0.000 A 
ATOM     26  C   UNL     1       9.681  11.306  20.016  0.00  0.00    +0.000 A 
ENDBRANCH  20  21
ENDBRANCH  18  20
ENDBRANCH  14  15
ENDBRANCH   1  14
TORSDOF 6
ENDMDL
MODEL 3
REMARK VINA RESULT:      -8.3      0.912      1.912
REMARK  Name = 
REMARK  8 active torsions:
REMARK  status: ('A' for Active; 'I' for Inactive)
REMARK    1  A    between atoms: C_1  and  C_2
REMARK    2  A    between atoms: C_6  and  C_7
REMARK    3  A    between atoms: C_8  and  N_9
REMARK    4  A    between atoms: C_10  and  C_12
REMARK    5  A    between atoms: C_12  and  S_13
REMARK    6  A    between atoms: S_13  and  C_14
REMARK    7  A    between atoms: C_17  and  C_18
REMARK    8  A    between atoms: C_18  and  C_19
REMARK                            x       y       z     vdW  Elec       q    Type
REMARK                         _______ _______ _______ _____ _____    ______ ____
ROOT
ATOM      1  C   UNL     1       6.597   4.887  17.425  0.00  0.00    +0.000 C 
ENDROOT
BRANCH   1   3
ATOM      2  N   UNL     1       4.318   4.359  18.127  0.00  0.00    +0.000 N 
ATOM      3  C   UNL     1       5.650   4.397  18.520  0.00  0.00    +0.000 C 
ATOM      4  O   UNL     1       6.065   4.171  19.653  0.00  0.00    +0.000 OA
ATOM      5  H   UNL     1       4.091   4.945  17.334  0.00  0.00    +0.000 HD
BRANCH   2  13
ATOM      6  C   UNL     1       3.449   1.505  18.530  0.00  0.00    +0.000 C 
ATOM      7  C   UNL     1       2.806   2.699  19.183  0.00  0.00    +0.000 A 
ATOM      8  C   UNL     1       1.674   2.462  19.988  0.00  0.00    +0.000 A 
ATOM      9  C   UNL     1       0.966   3.514  20.563  0.00  0.00    +0.000 A 
ATOM     10  C   UNL     1       1.379   4.825  20.347  0.00  0.00    +0.000 A 
ATOM     11  C   UNL     1       2.507   5.098  19.555  0.00  0.00    +0.000 A 
ATOM     12  C   UNL     1       2.945   6.530  19.413  0.00  0.00    +0.000 C 
ATOM     13  C   UNL     1       3.234   4.029  18.978  0.00  0.00    +0.000 A 
ENDBRANCH   2  13
ENDBRANCH   1   3
BRANCH   1  14
ATOM     14  S   UNL     1       5.972   6.430  16.717  0.00  0.00    +0.000 S 
BRANCH  14  15
ATOM     15  C   UNL     1       7.068   7.600  17.383  0.00  0.00    +0.000 A 
ATOM     16  N   UNL     1       7.960   7.293  18.304  0.00  0.00    +0.000 NA
ATOM     17  N   UNL     1       8.612   8.458  18.638  0.00  0.00    +0.000 NA
ATOM     18  C   UNL     1       8.078   9.404  17.896  0.00  0.00    +0.000 A 
ATOM     19  O   UNL     1       7.091   8.935  17.064  0.00  0.00    +0.000 OA
BRANCH  18  20
ATOM     20  C   UNL     1       8.354  10.863  17.906  0.00  0.00    +0.000 C 
BRANCH  20  21
ATOM     21  C   UNL     1       9.608  11.235  18.661  0.00  0.00    +0.000 A 
ATOM     22  C   UNL     1      10.846  11.273  18.002  0.00  0.00    +0.000 A 
ATOM     23  C   UNL     1      12.005  11.623  18.695  0.00  0.00    +0.000 A 
ATOM     24  C   UNL     1      11.942  11.934  20.053  0.00  0.00    +0.000 A 
ATOM     25  C   UNL     1      10.720  11.890  20.720  0.00  0.00    +0.000 A 
ATOM     26  C   UNL     1       9.559  11.536  20.030  0.00  0.00    +0.000 A 
ENDBRANCH  20  21
ENDBRANCH  18  20
ENDBRANCH  14  15
ENDBRANCH   1  14
TORSDOF 6
ENDMDL
MODEL 4
REMARK VINA RESULT:      -8.2      0.591      1.126
REMARK  Name = 
REMARK  8 active torsions:
REMARK  status: ('A' for Active; 'I' for Inactive)
REMARK    1  A    between atoms: C_1  and  C_2
REMARK    2  A    between atoms: C_6  and  C_7
REMARK    3  A    between atoms: C_8  and  N_9
REMARK    4  A    between atoms: C_10  and  C_12
REMARK    5  A    between atoms: C_12  and  S_13
REMARK    6  A    between atoms: S_13  and  C_14
REMARK    7  A    between atoms: C_17  and  C_18
REMARK    8  A    between atoms: C_18  and  C_19
REMARK                            x       y       z     vdW  Elec       q    Type
REMARK                         _______ _______ _______ _____ _____    ______ ____
ROOT
ATOM      1  C   UNL     1       5.087   6.606  17.089  0.00  0.00    +0.000 C 
ENDROOT
BRANCH   1   3
ATOM      2  N   UNL     1       3.251   5.262  17.976  0.00  0.00    +0.000 N 
ATOM      3  C   UNL     1       4.577   5.636  18.154  0.00  0.00    +0.000 C 
ATOM      4  O   UNL     1       5.281   5.330  19.112  0.00  0.00    +0.000 OA
ATOM      5  H   UNL     1       2.704   5.892  17.406  0.00  0.00    +0.000 HD
BRANCH   2  13
ATOM      6  C   UNL     1       1.781   6.436  20.326  0.00  0.00    +0.000 C 
ATOM      7  C   UNL     1       1.818   4.971  19.982  0.00  0.00    +0.000 A 
ATOM      8  C   UNL     1       1.171   4.084  20.864  0.00  0.00    +0.000 A 
ATOM      9  C   UNL     1       1.226   2.707  20.670  0.00  0.00    +0.000 A 
ATOM     10  C   UNL     1       1.926   2.189  19.585  0.00  0.00    +0.000 A 
ATOM     11  C   UNL     1       2.578   3.044  18.681  0.00  0.00    +0.000 A 
ATOM     12  C   UNL     1       3.263   2.430  17.490  0.00  0.00    +0.000 C 
ATOM     13  C   UNL     1       2.515   4.446  18.872  0.00  0.00    +0.000 A 
ENDBRANCH   2  13
ENDBRANCH   1   3
BRANCH   1  14
ATOM     14  S   UNL     1       6.821   6.254  16.717  0.00  0.00    +0.000 S 
BRANCH  14  15
ATOM     15  C   UNL     1       7.635   7.541  17.553  0.00  0.00    +0.000 A 
ATOM     16  N   UNL     1       8.281   7.353  18.687  0.00  0.00    +0.000 NA
ATOM     17  N   UNL     1       8.751   8.583  19.091  0.00  0.00    +0.000 NA
ATOM     18  C   UNL     1       8.364   9.444  18.174  0.00  0.00    +0.000 A 
ATOM     19  O   UNL     1       7.654   8.855  17.156  0.00  0.00    +0.000 OA
BRANCH  18  20
ATOM     20  C   UNL     1       8.535  10.918  18.151  0.00  0.00    +0.000 C 
BRANCH  20  21
ATOM     21  C   UNL     1       9.864  11.380  18.700  0.00  0.00    +0.000 A 
ATOM     22  C   UNL     1       9.985  11.744  20.049  0.00  0.00    +0.000 A 
ATOM     23  C   UNL     1      11.212  12.165  20.561  0.00  0.00    +0.000 A 
ATOM     24  C   UNL     1      12.331  12.232  19.732  0.00  0.00    +0.000 A 
ATOM     25  C   UNL     1      12.221  11.881  18.388  0.00  0.00    +0.000 A 
ATOM     26  C   UNL     1      10.993  11.464  17.872  0.00  0.00    +0.000 A 
ENDBRANCH  20  21
ENDBRANCH  18  20
ENDBRANCH  14  15
ENDBRANCH   1  14
TORSDOF 6
ENDMDL
MODEL 5
REMARK VINA RESULT:      -8.1      3.770      5.992
REMARK  Name = 
REMARK  8 active torsions:
REMARK  status: ('A' for Active; 'I' for Inactive)
REMARK    1  A    between atoms: C_1  and  C_2
REMARK    2  A    between atoms: C_6  and  C_7
REMARK    3  A    between atoms: C_8  and  N_9
REMARK    4  A    between atoms: C_10  and  C_12
REMARK    5  A    between atoms: C_12  and  S_13
REMARK    6  A    between atoms: S_13  and  C_14
REMARK    7  A    between atoms: C_17  and  C_18
REMARK    8  A    between atoms: C_18  and  C_19
REMARK                            x       y       z     vdW  Elec       q    Type
REMARK                         _______ _______ _______ _____ _____    ______ ____
ROOT
ATOM      1  C   UNL     1       2.537   4.312  21.436  0.00  0.00    +0.000 C 
ENDROOT
BRANCH   1   3
ATOM      2  N   UNL     1       2.500   6.547  20.452  0.00  0.00    +0.000 N 
ATOM      3  C   UNL     1       1.818   5.342  20.566  0.00  0.00    +0.000 C 
ATOM      4  O   UNL     1       0.697   5.113  20.120  0.00  0.00    +0.000 OA
ATOM      5  H   UNL     1       3.176   6.724  21.183  0.00  0.00    +0.000 HD
BRANCH   2  13
ATOM      6  C   UNL     1       3.249   7.133  17.596  0.00  0.00    +0.000 C 
ATOM      7  C   UNL     1       2.345   7.991  18.440  0.00  0.00    +0.000 A 
ATOM      8  C   UNL     1       1.872   9.188  17.867  0.00  0.00    +0.000 A 
ATOM      9  C   UNL     1       1.100  10.083  18.603  0.00  0.00    +0.000 A 
ATOM     10  C   UNL     1       0.781   9.796  19.926  0.00  0.00    +0.000 A 
ATOM     11  C   UNL     1       1.230   8.608  20.528  0.00  0.00    +0.000 A 
ATOM     12  C   UNL     1       0.798   8.320  21.940  0.00  0.00    +0.000 C 
ATOM     13  C   UNL     1       2.008   7.693  19.778  0.00  0.00    +0.000 A 
ENDBRANCH   2  13
ENDBRANCH   1   3
BRANCH   1  14
ATOM     14  S   UNL     1       2.622   2.727  20.569  0.00  0.00    +0.000 S 
BRANCH  14  15
ATOM     15  C   UNL     1       3.280   3.195  19.032  0.00  0.00    +0.000 A 
ATOM     16  N   UNL     1       2.543   3.281  17.942  0.00  0.00    +0.000 NA
ATOM     17  N   UNL     1       3.388   3.619  16.909  0.00  0.00    +0.000 NA
ATOM     18  C   UNL     1       4.590   3.720  17.436  0.00  0.00    +0.000 A 
ATOM     19  O   UNL     1       4.602   3.472  18.787  0.00  0.00    +0.000 OA
BRANCH  18  20
ATOM     20  C   UNL     1       5.884   3.988  16.760  0.00  0.00    +0.000 C 
BRANCH  20  21
ATOM     21  C   UNL     1       6.650   5.143  17.358  0.00  0.00    +0.000 A 
ATOM     22  C   UNL     1       6.650   6.396  16.728  0.00  0.00    +0.000 A 
ATOM     23  C   UNL     1       7.351   7.467  17.282  0.00  0.00    +0.000 A 
ATOM     24  C   UNL     1       8.064   7.298  18.468  0.00  0.00    +0.000 A 
ATOM     25  C   UNL     1       8.079   6.055  19.099  0.00  0.00    +0.000 A 
ATOM     26  C   UNL     1       7.382   4.981  18.544  0.00  0.00    +0.000 A 
ENDBRANCH  20  21
ENDBRANCH  18  20
ENDBRANCH  14  15
ENDBRANCH   1  14
TORSDOF 6
ENDMDL
MODEL 6
REMARK VINA RESULT:      -8.0      3.840      7.250
REMARK  Name = 
REMARK  8 active torsions:
REMARK  status: ('A' for Active; 'I' for Inactive)
REMARK    1  A    between atoms: C_1  and  C_2
REMARK    2  A    between atoms: C_6  and  C_7
REMARK    3  A    between atoms: C_8  and  N_9
REMARK    4  A    between atoms: C_10  and  C_12
REMARK    5  A    between atoms: C_12  and  S_13
REMARK    6  A    between atoms: S_13  and  C_14
REMARK    7  A    between atoms: C_17  and  C_18
REMARK    8  A    between atoms: C_18  and  C_19
REMARK                            x       y       z     vdW  Elec       q    Type
REMARK                         _______ _______ _______ _____ _____    ______ ____
ROOT
ATOM      1  C   UNL     1       7.676   6.469  17.711  0.00  0.00    +0.000 C 
ENDROOT
BRANCH   1   3
ATOM      2  N   UNL     1       7.018   5.813  15.452  0.00  0.00    +0.000 N 
ATOM      3  C   UNL     1       7.635   5.395  16.624  0.00  0.00    +0.000 C 
ATOM      4  O   UNL     1       8.030   4.255  16.854  0.00  0.00    +0.000 OA
ATOM      5  H   UNL     1       6.400   6.607  15.556  0.00  0.00    +0.000 HD
BRANCH   2  13
ATOM      6  C   UNL     1       8.776   5.911  13.011  0.00  0.00    +0.000 C 
ATOM      7  C   UNL     1       7.580   5.011  13.171  0.00  0.00    +0.000 A 
ATOM      8  C   UNL     1       7.224   4.208  12.071  0.00  0.00    +0.000 A 
ATOM      9  C   UNL     1       6.085   3.409  12.101  0.00  0.00    +0.000 A 
ATOM     10  C   UNL     1       5.280   3.394  13.235  0.00  0.00    +0.000 A 
ATOM     11  C   UNL     1       5.608   4.178  14.354  0.00  0.00    +0.000 A 
ATOM     12  C   UNL     1       4.738   4.070  15.577  0.00  0.00    +0.000 C 
ATOM     13  C   UNL     1       6.772   4.984  14.329  0.00  0.00    +0.000 A 
ENDBRANCH   2  13
ENDBRANCH   1   3
BRANCH   1  14
ATOM     14  S   UNL     1       7.495   5.703  19.339  0.00  0.00    +0.000 S 
BRANCH  14  15
ATOM     15  C   UNL     1       5.873   5.087  19.268  0.00  0.00    +0.000 A 
ATOM     16  N   UNL     1       5.584   3.823  19.505  0.00  0.00    +0.000 NA
ATOM     17  N   UNL     1       4.228   3.676  19.308  0.00  0.00    +0.000 NA
ATOM     18  C   UNL     1       3.776   4.863  18.966  0.00  0.00    +0.000 A 
ATOM     19  O   UNL     1       4.763   5.818  18.926  0.00  0.00    +0.000 OA
BRANCH  18  20
ATOM     20  C   UNL     1       2.402   5.256  18.567  0.00  0.00    +0.000 C 
BRANCH  20  21
ATOM     21  C   UNL     1       2.069   6.695  18.884  0.00  0.00    +0.000 A 
ATOM     22  C   UNL     1       2.067   7.662  17.868  0.00  0.00    +0.000 A 
ATOM     23  C   UNL     1       1.753   8.991  18.156  0.00  0.00    +0.000 A 
ATOM     24  C   UNL     1       1.444   9.369  19.461  0.00  0.00    +0.000 A 
ATOM     25  C   UNL     1       1.452   8.419  20.481  0.00  0.00    +0.000 A 
ATOM     26  C   UNL     1       1.769   7.090  20.196  0.00  0.00    +0.000 A 
ENDBRANCH  20  21
ENDBRANCH  18  20
ENDBRANCH  14  15
ENDBRANCH   1  14
TORSDOF 6
ENDMDL
MODEL 7
REMARK VINA RESULT:      -7.8      3.973      6.895
REMARK  Name = 
REMARK  8 active torsions:
REMARK  status: ('A' for Active; 'I' for Inactive)
REMARK    1  A    between atoms: C_1  and  C_2
REMARK    2  A    between atoms: C_6  and  C_7
REMARK    3  A    between atoms: C_8  and  N_9
REMARK    4  A    between atoms: C_10  and  C_12
REMARK    5  A    between atoms: C_12  and  S_13
REMARK    6  A    between atoms: S_13  and  C_14
REMARK    7  A    between atoms: C_17  and  C_18
REMARK    8  A    between atoms: C_18  and  C_19
REMARK                            x       y       z     vdW  Elec       q    Type
REMARK                         _______ _______ _______ _____ _____    ______ ____
ROOT
ATOM      1  C   UNL     1       5.515   6.972  18.061  0.00  0.00    +0.000 C 
ENDROOT
BRANCH   1   3
ATOM      2  N   UNL     1       3.439   5.706  18.294  0.00  0.00    +0.000 N 
ATOM      3  C   UNL     1       4.748   5.838  18.741  0.00  0.00    +0.000 C 
ATOM      4  O   UNL     1       5.254   5.202  19.661  0.00  0.00    +0.000 OA
ATOM      5  H   UNL     1       3.055   6.531  17.854  0.00  0.00    +0.000 HD
BRANCH   2  13
ATOM      6  C   UNL     1       1.793   6.385  20.721  0.00  0.00    +0.000 C 
ATOM      7  C   UNL     1       1.709   5.087  19.962  0.00  0.00    +0.000 A 
ATOM      8  C   UNL     1       0.843   4.098  20.469  0.00  0.00    +0.000 A 
ATOM      9  C   UNL     1       0.766   2.839  19.880  0.00  0.00    +0.000 A 
ATOM     10  C   UNL     1       1.550   2.545  18.769  0.00  0.00    +0.000 A 
ATOM     11  C   UNL     1       2.419   3.510  18.233  0.00  0.00    +0.000 A 
ATOM     12  C   UNL     1       3.193   3.158  16.991  0.00  0.00    +0.000 C 
ATOM     13  C   UNL     1       2.493   4.794  18.825  0.00  0.00    +0.000 A 
ENDBRANCH   2  13
ENDBRANCH   1   3
BRANCH   1  14
ATOM     14  S   UNL     1       7.208   6.445  17.711  0.00  0.00    +0.000 S 
BRANCH  14  15
ATOM     15  C   UNL     1       6.990   5.449  16.305  0.00  0.00    +0.000 A 
ATOM     16  N   UNL     1       6.415   4.264  16.358  0.00  0.00    +0.000 NA
ATOM     17  N   UNL     1       6.459   3.737  15.087  0.00  0.00    +0.000 NA
ATOM     18  C   UNL     1       7.057   4.638  14.336  0.00  0.00    +0.000 A 
ATOM     19  O   UNL     1       7.419   5.762  15.039  0.00  0.00    +0.000 OA
BRANCH  18  20
ATOM     20  C   UNL     1       7.433   4.554  12.903  0.00  0.00    +0.000 C 
BRANCH  20  21
ATOM     21  C   UNL     1       6.706   3.465  12.151  0.00  0.00    +0.000 A 
ATOM     22  C   UNL     1       5.310   3.502  12.025  0.00  0.00    +0.000 A 
ATOM     23  C   UNL     1       4.636   2.501  11.324  0.00  0.00    +0.000 A 
ATOM     24  C   UNL     1       5.347   1.451  10.747  0.00  0.00    +0.000 A 
ATOM     25  C   UNL     1       6.734   1.398  10.873  0.00  0.00    +0.000 A 
ATOM     26  C   UNL     1       7.411   2.396  11.577  0.00  0.00    +0.000 A 
ENDBRANCH  20  21
ENDBRANCH  18  20
ENDBRANCH  14  15
ENDBRANCH   1  14
TORSDOF 6
ENDMDL
MODEL 8
REMARK VINA RESULT:      -7.7      4.065      6.832
REMARK  Name = 
REMARK  8 active torsions:
REMARK  status: ('A' for Active; 'I' for Inactive)
REMARK    1  A    between atoms: C_1  and  C_2
REMARK    2  A    between atoms: C_6  and  C_7
REMARK    3  A    between atoms: C_8  and  N_9
REMARK    4  A    between atoms: C_10  and  C_12
REMARK    5  A    between atoms: C_12  and  S_13
REMARK    6  A    between atoms: S_13  and  C_14
REMARK    7  A    between atoms: C_17  and  C_18
REMARK    8  A    between atoms: C_18  and  C_19
REMARK                            x       y       z     vdW  Elec       q    Type
REMARK                         _______ _______ _______ _____ _____    ______ ____
ROOT
ATOM      1  C   UNL     1       6.042   6.214  18.686  0.00  0.00    +0.000 C 
ENDROOT
BRANCH   1   3
ATOM      2  N   UNL     1       3.823   5.202  18.551  0.00  0.00    +0.000 N 
ATOM      3  C   UNL     1       5.082   5.110  19.129  0.00  0.00    +0.000 C 
ATOM      4  O   UNL     1       5.411   4.304  19.996  0.00  0.00    +0.000 OA
ATOM      5  H   UNL     1       3.584   6.118  18.195  0.00  0.00    +0.000 HD
BRANCH   2  13
ATOM      6  C   UNL     1       1.828   5.938  20.682  0.00  0.00    +0.000 C 
ATOM      7  C   UNL     1       1.778   4.679  19.857  0.00  0.00    +0.000 A 
ATOM      8  C   UNL     1       0.760   3.752  20.155  0.00  0.00    +0.000 A 
ATOM      9  C   UNL     1       0.689   2.526  19.500  0.00  0.00    +0.000 A 
ATOM     10  C   UNL     1       1.634   2.203  18.531  0.00  0.00    +0.000 A 
ATOM     11  C   UNL     1       2.659   3.106  18.204  0.00  0.00    +0.000 A 
ATOM     12  C   UNL     1       3.612   2.731  17.101  0.00  0.00    +0.000 C 
ATOM     13  C   UNL     1       2.727   4.358  18.862  0.00  0.00    +0.000 A 
ENDBRANCH   2  13
ENDBRANCH   1   3
BRANCH   1  14
ATOM     14  S   UNL     1       7.484   5.485  17.875  0.00  0.00    +0.000 S 
BRANCH  14  15
ATOM     15  C   UNL     1       6.935   5.335  16.234  0.00  0.00    +0.000 A 
ATOM     16  N   UNL     1       5.656   5.287  15.916  0.00  0.00    +0.000 NA
ATOM     17  N   UNL     1       5.586   5.112  14.552  0.00  0.00    +0.000 NA
ATOM     18  C   UNL     1       6.829   5.067  14.123  0.00  0.00    +0.000 A 
ATOM     19  O   UNL     1       7.748   5.209  15.135  0.00  0.00    +0.000 OA
BRANCH  18  20
ATOM     20  C   UNL     1       7.332   4.818  12.749  0.00  0.00    +0.000 C 
BRANCH  20  21
ATOM     21  C   UNL     1       6.757   3.575  12.112  0.00  0.00    +0.000 A 
ATOM     22  C   UNL     1       7.606   2.577  11.613  0.00  0.00    +0.000 A 
ATOM     23  C   UNL     1       7.079   1.424  11.030  0.00  0.00    +0.000 A 
ATOM     24  C   UNL     1       5.698   1.258  10.936  0.00  0.00    +0.000 A 
ATOM     25  C   UNL     1       4.844   2.246  11.420  0.00  0.00    +0.000 A 
ATOM     26  C   UNL     1       5.369   3.402  12.000  0.00  0.00    +0.000 A 
ENDBRANCH  20  21
ENDBRANCH  18  20
ENDBRANCH  14  15
ENDBRANCH   1  14
TORSDOF 6
ENDMDL
MODEL 9
REMARK VINA RESULT:      -7.7      4.098      6.396
REMARK  Name = 
REMARK  8 active torsions:
REMARK  status: ('A' for Active; 'I' for Inactive)
REMARK    1  A    between atoms: C_1  and  C_2
REMARK    2  A    between atoms: C_6  and  C_7
REMARK    3  A    between atoms: C_8  and  N_9
REMARK    4  A    between atoms: C_10  and  C_12
REMARK    5  A    between atoms: C_12  and  S_13
REMARK    6  A    between atoms: S_13  and  C_14
REMARK    7  A    between atoms: C_17  and  C_18
REMARK    8  A    between atoms: C_18  and  C_19
REMARK                            x       y       z     vdW  Elec       q    Type
REMARK                         _______ _______ _______ _____ _____    ______ ____
ROOT
ATOM      1  C   UNL     1       2.643   4.630  21.417  0.00  0.00    +0.000 C 
ENDROOT
BRANCH   1   3
ATOM      2  N   UNL     1       2.401   6.882  20.503  0.00  0.00    +0.000 N 
ATOM      3  C   UNL     1       1.834   5.616  20.575  0.00  0.00    +0.000 C 
ATOM      4  O   UNL     1       0.741   5.298  20.114  0.00  0.00    +0.000 OA
ATOM      5  H   UNL     1       3.056   7.098  21.243  0.00  0.00    +0.000 HD
BRANCH   2  13
ATOM      6  C   UNL     1       2.812   7.413  17.569  0.00  0.00    +0.000 C 
ATOM      7  C   UNL     1       1.985   8.271  18.489  0.00  0.00    +0.000 A 
ATOM      8  C   UNL     1       1.419   9.441  17.946  0.00  0.00    +0.000 A 
ATOM      9  C   UNL     1       0.710  10.335  18.742  0.00  0.00    +0.000 A 
ATOM     10  C   UNL     1       0.549  10.074  20.100  0.00  0.00    +0.000 A 
ATOM     11  C   UNL     1       1.094   8.914  20.674  0.00  0.00    +0.000 A 
ATOM     12  C   UNL     1       0.829   8.651  22.132  0.00  0.00    +0.000 C 
ATOM     13  C   UNL     1       1.807   7.999  19.863  0.00  0.00    +0.000 A 
ENDBRANCH   2  13
ENDBRANCH   1   3
BRANCH   1  14
ATOM     14  S   UNL     1       2.264   2.936  20.912  0.00  0.00    +0.000 S 
BRANCH  14  15
ATOM     15  C   UNL     1       3.047   2.839  19.365  0.00  0.00    +0.000 A 
ATOM     16  N   UNL     1       3.318   1.690  18.778  0.00  0.00    +0.000 NA
ATOM     17  N   UNL     1       3.982   1.982  17.608  0.00  0.00    +0.000 NA
ATOM     18  C   UNL     1       4.071   3.293  17.553  0.00  0.00    +0.000 A 
ATOM     19  O   UNL     1       3.491   3.912  18.634  0.00  0.00    +0.000 OA
BRANCH  18  20
ATOM     20  C   UNL     1       4.757   4.138  16.544  0.00  0.00    +0.000 C 
BRANCH  20  21
ATOM     21  C   UNL     1       5.805   5.052  17.134  0.00  0.00    +0.000 A 
ATOM     22  C   UNL     1       6.709   4.569  18.092  0.00  0.00    +0.000 A 
ATOM     23  C   UNL     1       7.682   5.408  18.634  0.00  0.00    +0.000 A 
ATOM     24  C   UNL     1       7.761   6.740  18.229  0.00  0.00    +0.000 A 
ATOM     25  C   UNL     1       6.863   7.234  17.285  0.00  0.00    +0.000 A 
ATOM     26  C   UNL     1       5.886   6.397  16.744  0.00  0.00    +0.000 A 
ENDBRANCH  20  21
ENDBRANCH  18  20
ENDBRANCH  14  15
ENDBRANCH   1  14
TORSDOF 6
ENDMDL
