MODEL 1
REMARK VINA RESULT:      -7.8      0.000      0.000
REMARK  Name = 
REMARK  10 active torsions:
REMARK  status: ('A' for Active; 'I' for Inactive)
REMARK    1  A    between atoms: C_2  and  C_3
REMARK    2  A    between atoms: N_5  and  C_6
REMARK    3  A    between atoms: C_6  and  C_7
REMARK    4  A    between atoms: C_7  and  C_8
REMARK    5  A    between atoms: C_8  and  C_9
REMARK    6  A    between atoms: C_9  and  N_10
REMARK    7  A    between atoms: C_9  and  C_22
REMARK    8  A    between atoms: C_11  and  C_13
REMARK    9  A    between atoms: C_18  and  C_19
REMARK   10  A    between atoms: C_19  and  O_21
REMARK                            x       y       z     vdW  Elec       q    Type
REMARK                         _______ _______ _______ _____ _____    ______ ____
ROOT
ATOM      1  C   UNL     1       6.909   5.555  17.140  0.00  0.00    +0.000 C 
ENDROOT
BRANCH   1   2
ATOM      2  C   UNL     1       6.920   4.753  15.828  0.00  0.00    +0.000 C 
ATOM      3  N   UNL     1       6.169   3.613  15.814  0.00  0.00    +0.000 N 
ATOM      4  O   UNL     1       7.544   5.099  14.826  0.00  0.00    +0.000 OA
ATOM      5  H   UNL     1       5.636   3.277  16.605  0.00  0.00    +0.000 HD
ATOM      6  H   UNL     1       6.130   3.086  14.950  0.00  0.00    +0.000 HD
ENDBRANCH   1   2
BRANCH   1   7
ATOM      7  N   UNL     1       5.597   5.410  17.764  0.00  0.00    +0.000 N 
ATOM      8  C   UNL     1       5.452   5.055  19.082  0.00  0.00    +0.000 C 
ATOM      9  O   UNL     1       6.392   4.940  19.859  0.00  0.00    +0.000 OA
ATOM     10  H   UNL     1       4.811   5.345  17.127  0.00  0.00    +0.000 HD
BRANCH   8  11
ATOM     11  C   UNL     1       4.075   4.811  19.561  0.00  0.00    +0.000 A 
ATOM     12  C   UNL     1       3.237   5.933  19.733  0.00  0.00    +0.000 A 
ATOM     13  C   UNL     1       1.936   5.791  20.211  0.00  0.00    +0.000 A 
ATOM     14  C   UNL     1       1.445   4.524  20.500  0.00  0.00    +0.000 A 
ATOM     15  C   UNL     1       2.258   3.404  20.313  0.00  0.00    +0.000 A 
ATOM     16  C   UNL     1       3.582   3.523  19.840  0.00  0.00    +0.000 A 
BRANCH  16  17
ATOM     17  C   UNL     1       4.347   2.242  19.808  0.00  0.00    +0.000 C 
ATOM     18  O   UNL     1       5.072   1.930  20.746  0.00  0.00    +0.000 OA
BRANCH  17  19
ATOM     19  O   UNL     1       4.165   1.399  18.778  0.00  0.00    +0.000 OA
ATOM     20  H   UNL     1       3.286   0.945  18.731  0.00  0.00    +0.000 HD
ENDBRANCH  17  19
ENDBRANCH  16  17
ENDBRANCH   8  11
ENDBRANCH   1   7
BRANCH   1  21
ATOM     21  C   UNL     1       7.210   7.040  16.913  0.00  0.00    +0.000 C 
BRANCH  21  22
ATOM     22  C   UNL     1       7.961   7.691  18.082  0.00  0.00    +0.000 C 
BRANCH  22  23
ATOM     23  C   UNL     1       8.058   9.211  17.951  0.00  0.00    +0.000 C 
BRANCH  23  26
ATOM     24  N   UNL     1       9.121  11.847  17.894  0.00  0.00    +0.000 NA
ATOM     25  C   UNL     1       9.528  11.009  18.799  0.00  0.00    +0.000 C 
ATOM     26  N   UNL     1       9.056   9.726  18.856  0.00  0.00    +0.000 N 
ATOM     27  H   UNL     1       9.614  12.742  18.039  0.00  0.00    +0.000 HD
ATOM     28  H   UNL     1       9.300   9.131  19.642  0.00  0.00    +0.000 HD
BRANCH  25  29
ATOM     29  C   UNL     1      10.563  11.450  19.828  0.00  0.00    +0.000 C 
ATOM     30  F   UNL     1      11.832  11.215  19.390  0.00  0.00    +0.000 F 
ENDBRANCH  25  29
ENDBRANCH  23  26
ENDBRANCH  22  23
ENDBRANCH  21  22
ENDBRANCH   1  21
TORSDOF 10
ENDMDL
MODEL 2
REMARK VINA RESULT:      -7.7      3.925      5.877
REMARK  Name = 
REMARK  10 active torsions:
REMARK  status: ('A' for Active; 'I' for Inactive)
REMARK    1  A    between atoms: C_2  and  C_3
REMARK    2  A    between atoms: N_5  and  C_6
REMARK    3  A    between atoms: C_6  and  C_7
REMARK    4  A    between atoms: C_7  and  C_8
REMARK    5  A    between atoms: C_8  and  C_9
REMARK    6  A    between atoms: C_9  and  N_10
REMARK    7  A    between atoms: C_9  and  C_22
REMARK    8  A    between atoms: C_11  and  C_13
REMARK    9  A    between atoms: C_18  and  C_19
REMARK   10  A    between atoms: C_19  and  O_21
REMARK                            x       y       z     vdW  Elec       q    Type
REMARK                         _______ _______ _______ _____ _____    ______ ____
ROOT
ATOM      1  C   UNL     1       6.518   5.533  17.638  0.00  0.00    +0.000 C 
ENDROOT
BRANCH   1   2
ATOM      2  C   UNL     1       7.592   6.163  18.541  0.00  0.00    +0.000 C 
ATOM      3  N   UNL     1       8.019   5.398  19.589  0.00  0.00    +0.000 N 
ATOM      4  O   UNL     1       8.073   7.279  18.349  0.00  0.00    +0.000 OA
ATOM      5  H   UNL     1       7.662   4.476  19.798  0.00  0.00    +0.000 HD
ATOM      6  H   UNL     1       8.752   5.774  20.178  0.00  0.00    +0.000 HD
ENDBRANCH   1   2
BRANCH   1   7
ATOM      7  N   UNL     1       5.523   4.880  18.482  0.00  0.00    +0.000 N 
ATOM      8  C   UNL     1       4.185   4.896  18.177  0.00  0.00    +0.000 C 
ATOM      9  O   UNL     1       3.733   5.357  17.135  0.00  0.00    +0.000 OA
ATOM     10  H   UNL     1       5.832   4.628  19.413  0.00  0.00    +0.000 HD
BRANCH   8  11
ATOM     11  C   UNL     1       3.264   4.314  19.176  0.00  0.00    +0.000 A 
ATOM     12  C   UNL     1       2.918   5.114  20.286  0.00  0.00    +0.000 A 
ATOM     13  C   UNL     1       2.080   4.627  21.287  0.00  0.00    +0.000 A 
ATOM     14  C   UNL     1       1.556   3.345  21.182  0.00  0.00    +0.000 A 
ATOM     15  C   UNL     1       1.874   2.552  20.076  0.00  0.00    +0.000 A 
ATOM     16  C   UNL     1       2.729   3.019  19.055  0.00  0.00    +0.000 A 
BRANCH  16  17
ATOM     17  C   UNL     1       3.055   2.006  18.009  0.00  0.00    +0.000 C 
ATOM     18  O   UNL     1       2.432   1.983  16.953  0.00  0.00    +0.000 OA
BRANCH  17  19
ATOM     19  O   UNL     1       4.094   1.177  18.205  0.00  0.00    +0.000 OA
ATOM     20  H   UNL     1       4.626   1.325  19.028  0.00  0.00    +0.000 HD
ENDBRANCH  17  19
ENDBRANCH  16  17
ENDBRANCH   8  11
ENDBRANCH   1   7
BRANCH   1  21
ATOM     21  C   UNL     1       7.111   4.516  16.657  0.00  0.00    +0.000 C 
BRANCH  21  22
ATOM     22  C   UNL     1       7.018   4.963  15.192  0.00  0.00    +0.000 C 
BRANCH  22  23
ATOM     23  C   UNL     1       5.853   4.311  14.447  0.00  0.00    +0.000 C 
BRANCH  23  26
ATOM     24  N   UNL     1       4.710   3.653  11.929  0.00  0.00    +0.000 NA
ATOM     25  C   UNL     1       5.766   3.020  12.340  0.00  0.00    +0.000 C 
ATOM     26  N   UNL     1       6.343   3.292  13.551  0.00  0.00    +0.000 N 
ATOM     27  H   UNL     1       4.451   3.279  11.002  0.00  0.00    +0.000 HD
ATOM     28  H   UNL     1       7.233   2.869  13.795  0.00  0.00    +0.000 HD
BRANCH  25  29
ATOM     29  C   UNL     1       6.390   1.939  11.464  0.00  0.00    +0.000 C 
ATOM     30  F   UNL     1       7.674   2.249  11.131  0.00  0.00    +0.000 F 
ENDBRANCH  25  29
ENDBRANCH  23  26
ENDBRANCH  22  23
ENDBRANCH  21  22
ENDBRANCH   1  21
TORSDOF 10
ENDMDL
MODEL 3
REMARK VINA RESULT:      -7.7      3.896      6.026
REMARK  Name = 
REMARK  10 active torsions:
REMARK  status: ('A' for Active; 'I' for Inactive)
REMARK    1  A    between atoms: C_2  and  C_3
REMARK    2  A    between atoms: N_5  and  C_6
REMARK    3  A    between atoms: C_6  and  C_7
REMARK    4  A    between atoms: C_7  and  C_8
REMARK    5  A    between atoms: C_8  and  C_9
REMARK    6  A    between atoms: C_9  and  N_10
REMARK    7  A    between atoms: C_9  and  C_22
REMARK    8  A    between atoms: C_11  and  C_13
REMARK    9  A    between atoms: C_18  and  C_19
REMARK   10  A    between atoms: C_19  and  O_21
REMARK                            x       y       z     vdW  Elec       q    Type
REMARK                         _______ _______ _______ _____ _____    ______ ____
ROOT
ATOM      1  C   UNL     1       6.564   5.789  17.841  0.00  0.00    +0.000 C 
ENDROOT
BRANCH   1   2
ATOM      2  C   UNL     1       7.563   6.051  18.980  0.00  0.00    +0.000 C 
ATOM      3  N   UNL     1       8.390   7.125  18.819  0.00  0.00    +0.000 N 
ATOM      4  O   UNL     1       7.627   5.364  19.999  0.00  0.00    +0.000 OA
ATOM      5  H   UNL     1       8.385   7.725  18.005  0.00  0.00    +0.000 HD
ATOM      6  H   UNL     1       9.033   7.342  19.571  0.00  0.00    +0.000 HD
ENDBRANCH   1   2
BRANCH   1   7
ATOM      7  N   UNL     1       5.365   5.173  18.404  0.00  0.00    +0.000 N 
ATOM      8  C   UNL     1       4.120   5.730  18.254  0.00  0.00    +0.000 C 
ATOM      9  O   UNL     1       3.898   6.713  17.555  0.00  0.00    +0.000 OA
ATOM     10  H   UNL     1       5.525   4.460  19.106  0.00  0.00    +0.000 HD
BRANCH   8  11
ATOM     11  C   UNL     1       3.006   5.085  18.980  0.00  0.00    +0.000 A 
ATOM     12  C   UNL     1       2.457   5.780  20.078  0.00  0.00    +0.000 A 
ATOM     13  C   UNL     1       1.425   5.226  20.834  0.00  0.00    +0.000 A 
ATOM     14  C   UNL     1       0.912   3.983  20.488  0.00  0.00    +0.000 A 
ATOM     15  C   UNL     1       1.433   3.296  19.389  0.00  0.00    +0.000 A 
ATOM     16  C   UNL     1       2.485   3.831  18.616  0.00  0.00    +0.000 A 
BRANCH  16  17
ATOM     17  C   UNL     1       2.998   2.918  17.553  0.00  0.00    +0.000 C 
ATOM     18  O   UNL     1       2.407   2.818  16.483  0.00  0.00    +0.000 OA
BRANCH  17  19
ATOM     19  O   UNL     1       4.161   2.274  17.752  0.00  0.00    +0.000 OA
ATOM     20  H   UNL     1       4.509   2.270  18.680  0.00  0.00    +0.000 HD
ENDBRANCH  17  19
ENDBRANCH  16  17
ENDBRANCH   8  11
ENDBRANCH   1   7
BRANCH   1  21
ATOM     21  C   UNL     1       7.148   4.880  16.755  0.00  0.00    +0.000 C 
BRANCH  21  22
ATOM     22  C   UNL     1       6.113   4.440  15.711  0.00  0.00    +0.000 C 
BRANCH  22  23
ATOM     23  C   UNL     1       6.716   4.265  14.318  0.00  0.00    +0.000 C 
BRANCH  23  26
ATOM     24  N   UNL     1       7.167   2.816  11.914  0.00  0.00    +0.000 NA
ATOM     25  C   UNL     1       5.958   3.159  12.240  0.00  0.00    +0.000 C 
ATOM     26  N   UNL     1       5.694   3.869  13.380  0.00  0.00    +0.000 N 
ATOM     27  H   UNL     1       7.125   2.301  11.020  0.00  0.00    +0.000 HD
ATOM     28  H   UNL     1       4.733   4.021  13.671  0.00  0.00    +0.000 HD
BRANCH  25  29
ATOM     29  C   UNL     1       4.791   2.772  11.338  0.00  0.00    +0.000 C 
ATOM     30  F   UNL     1       3.747   3.636  11.477  0.00  0.00    +0.000 F 
ENDBRANCH  25  29
ENDBRANCH  23  26
ENDBRANCH  22  23
ENDBRANCH  21  22
ENDBRANCH   1  21
TORSDOF 10
ENDMDL
MODEL 4
REMARK VINA RESULT:      -7.6      4.146      5.718
REMARK  Name = 
REMARK  10 active torsions:
REMARK  status: ('A' for Active; 'I' for Inactive)
REMARK    1  A    between atoms: C_2  and  C_3
REMARK    2  A    between atoms: N_5  and  C_6
REMARK    3  A    between atoms: C_6  and  C_7
REMARK    4  A    between atoms: C_7  and  C_8
REMARK    5  A    between atoms: C_8  and  C_9
REMARK    6  A    between atoms: C_9  and  N_10
REMARK    7  A    between atoms: C_9  and  C_22
REMARK    8  A    between atoms: C_11  and  C_13
REMARK    9  A    between atoms: C_18  and  C_19
REMARK   10  A    between atoms: C_19  and  O_21
REMARK                            x       y       z     vdW  Elec       q    Type
REMARK                         _______ _______ _______ _____ _____    ______ ____
ROOT
ATOM      1  C   UNL     1       6.224   5.982  17.794  0.00  0.00    +0.000 C 
ENDROOT
BRANCH   1   2
ATOM      2  C   UNL     1       7.334   5.178  18.491  0.00  0.00    +0.000 C 
ATOM      3  N   UNL     1       7.637   5.554  19.769  0.00  0.00    +0.000 N 
ATOM      4  O   UNL     1       7.922   4.234  17.965  0.00  0.00    +0.000 OA
ATOM      5  H   UNL     1       7.190   6.320  20.253  0.00  0.00    +0.000 HD
ATOM      6  H   UNL     1       8.338   5.017  20.264  0.00  0.00    +0.000 HD
ENDBRANCH   1   2
BRANCH   1   7
ATOM      7  N   UNL     1       5.002   5.185  17.790  0.00  0.00    +0.000 N 
ATOM      8  C   UNL     1       4.254   4.991  18.925  0.00  0.00    +0.000 C 
ATOM      9  O   UNL     1       4.483   5.551  19.990  0.00  0.00    +0.000 OA
ATOM     10  H   UNL     1       4.867   4.590  16.981  0.00  0.00    +0.000 HD
BRANCH   8  11
ATOM     11  C   UNL     1       3.112   4.057  18.823  0.00  0.00    +0.000 A 
ATOM     12  C   UNL     1       2.014   4.456  18.031  0.00  0.00    +0.000 A 
ATOM     13  C   UNL     1       0.887   3.646  17.909  0.00  0.00    +0.000 A 
ATOM     14  C   UNL     1       0.851   2.417  18.555  0.00  0.00    +0.000 A 
ATOM     15  C   UNL     1       1.941   2.003  19.324  0.00  0.00    +0.000 A 
ATOM     16  C   UNL     1       3.089   2.809  19.471  0.00  0.00    +0.000 A 
BRANCH  16  17
ATOM     17  C   UNL     1       4.109   2.269  20.417  0.00  0.00    +0.000 C 
ATOM     18  O   UNL     1       3.845   2.145  21.608  0.00  0.00    +0.000 OA
BRANCH  17  19
ATOM     19  O   UNL     1       5.288   1.843  19.932  0.00  0.00    +0.000 OA
ATOM     20  H   UNL     1       5.275   0.987  19.435  0.00  0.00    +0.000 HD
ENDBRANCH  17  19
ENDBRANCH  16  17
ENDBRANCH   8  11
ENDBRANCH   1   7
BRANCH   1  21
ATOM     21  C   UNL     1       6.598   6.359  16.357  0.00  0.00    +0.000 C 
BRANCH  21  22
ATOM     22  C   UNL     1       5.907   5.485  15.302  0.00  0.00    +0.000 C 
BRANCH  22  23
ATOM     23  C   UNL     1       6.876   4.545  14.585  0.00  0.00    +0.000 C 
BRANCH  23  26
ATOM     24  N   UNL     1       7.158   4.174  11.781  0.00  0.00    +0.000 NA
ATOM     25  C   UNL     1       6.325   3.434  12.446  0.00  0.00    +0.000 C 
ATOM     26  N   UNL     1       6.145   3.585  13.794  0.00  0.00    +0.000 N 
ATOM     27  H   UNL     1       7.121   3.889  10.790  0.00  0.00    +0.000 HD
ATOM     28  H   UNL     1       5.578   2.918  14.308  0.00  0.00    +0.000 HD
BRANCH  25  29
ATOM     29  C   UNL     1       5.515   2.365  11.720  0.00  0.00    +0.000 C 
ATOM     30  F   UNL     1       6.326   1.475  11.082  0.00  0.00    +0.000 F 
ENDBRANCH  25  29
ENDBRANCH  23  26
ENDBRANCH  22  23
ENDBRANCH  21  22
ENDBRANCH   1  21
TORSDOF 10
ENDMDL
MODEL 5
REMARK VINA RESULT:      -7.5      0.932      1.126
REMARK  Name = 
REMARK  10 active torsions:
REMARK  status: ('A' for Active; 'I' for Inactive)
REMARK    1  A    between atoms: C_2  and  C_3
REMARK    2  A    between atoms: N_5  and  C_6
REMARK    3  A    between atoms: C_6  and  C_7
REMARK    4  A    between atoms: C_7  and  C_8
REMARK    5  A    between atoms: C_8  and  C_9
REMARK    6  A    between atoms: C_9  and  N_10
REMARK    7  A    between atoms: C_9  and  C_22
REMARK    8  A    between atoms: C_11  and  C_13
REMARK    9  A    between atoms: C_18  and  C_19
REMARK   10  A    between atoms: C_19  and  O_21
REMARK                            x       y       z     vdW  Elec       q    Type
REMARK                         _______ _______ _______ _____ _____    ______ ____
ROOT
ATOM      1  C   UNL     1       6.790   6.282  17.617  0.00  0.00    +0.000 C 
ENDROOT
BRANCH   1   2
ATOM      2  C   UNL     1       6.853   5.538  16.273  0.00  0.00    +0.000 C 
ATOM      3  N   UNL     1       7.604   4.398  16.251  0.00  0.00    +0.000 N 
ATOM      4  O   UNL     1       6.258   5.910  15.262  0.00  0.00    +0.000 OA
ATOM      5  H   UNL     1       8.116   4.043  17.048  0.00  0.00    +0.000 HD
ATOM      6  H   UNL     1       7.632   3.869  15.389  0.00  0.00    +0.000 HD
ENDBRANCH   1   2
BRANCH   1   7
ATOM      7  N   UNL     1       5.494   6.020  18.236  0.00  0.00    +0.000 N 
ATOM      8  C   UNL     1       5.267   4.909  19.009  0.00  0.00    +0.000 C 
ATOM      9  O   UNL     1       6.145   4.117  19.331  0.00  0.00    +0.000 OA
ATOM     10  H   UNL     1       4.716   6.558  17.873  0.00  0.00    +0.000 HD
BRANCH   8  11
ATOM     11  C   UNL     1       3.880   4.687  19.470  0.00  0.00    +0.000 A 
ATOM     12  C   UNL     1       3.146   5.815  19.894  0.00  0.00    +0.000 A 
ATOM     13  C   UNL     1       1.844   5.685  20.372  0.00  0.00    +0.000 A 
ATOM     14  C   UNL     1       1.247   4.431  20.409  0.00  0.00    +0.000 A 
ATOM     15  C   UNL     1       1.956   3.310  19.971  0.00  0.00    +0.000 A 
ATOM     16  C   UNL     1       3.280   3.415  19.493  0.00  0.00    +0.000 A 
BRANCH  16  17
ATOM     17  C   UNL     1       3.929   2.109  19.175  0.00  0.00    +0.000 C 
ATOM     18  O   UNL     1       3.584   1.471  18.186  0.00  0.00    +0.000 OA
BRANCH  17  19
ATOM     19  O   UNL     1       4.950   1.685  19.937  0.00  0.00    +0.000 OA
ATOM     20  H   UNL     1       4.726   1.036  20.651  0.00  0.00    +0.000 HD
ENDBRANCH  17  19
ENDBRANCH  16  17
ENDBRANCH   8  11
ENDBRANCH   1   7
BRANCH   1  21
ATOM     21  C   UNL     1       6.986   7.793  17.452  0.00  0.00    +0.000 C 
BRANCH  21  22
ATOM     22  C   UNL     1       8.284   8.308  18.088  0.00  0.00    +0.000 C 
BRANCH  22  23
ATOM     23  C   UNL     1       8.349   9.834  18.147  0.00  0.00    +0.000 C 
BRANCH  23  26
ATOM     24  N   UNL     1      10.142  12.008  17.770  0.00  0.00    +0.000 NA
ATOM     25  C   UNL     1      10.192  11.317  18.868  0.00  0.00    +0.000 C 
ATOM     26  N   UNL     1       9.359  10.253  19.087  0.00  0.00    +0.000 N 
ATOM     27  H   UNL     1      10.861  12.747  17.822  0.00  0.00    +0.000 HD
ATOM     28  H   UNL     1       9.338   9.806  19.999  0.00  0.00    +0.000 HD
BRANCH  25  29
ATOM     29  C   UNL     1      11.203  11.684  19.949  0.00  0.00    +0.000 C 
ATOM     30  F   UNL     1      10.590  11.921  21.142  0.00  0.00    +0.000 F 
ENDBRANCH  25  29
ENDBRANCH  23  26
ENDBRANCH  22  23
ENDBRANCH  21  22
ENDBRANCH   1  21
TORSDOF 10
ENDMDL
MODEL 6
REMARK VINA RESULT:      -7.4      3.907      6.153
REMARK  Name = 
REMARK  10 active torsions:
REMARK  status: ('A' for Active; 'I' for Inactive)
REMARK    1  A    between atoms: C_2  and  C_3
REMARK    2  A    between atoms: N_5  and  C_6
REMARK    3  A    between atoms: C_6  and  C_7
REMARK    4  A    between atoms: C_7  and  C_8
REMARK    5  A    between atoms: C_8  and  C_9
REMARK    6  A    between atoms: C_9  and  N_10
REMARK    7  A    between atoms: C_9  and  C_22
REMARK    8  A    between atoms: C_11  and  C_13
REMARK    9  A    between atoms: C_18  and  C_19
REMARK   10  A    between atoms: C_19  and  O_21
REMARK                            x       y       z     vdW  Elec       q    Type
REMARK                         _______ _______ _______ _____ _____    ______ ____
ROOT
ATOM      1  C   UNL     1       6.114   5.346  17.151  0.00  0.00    +0.000 C 
ENDROOT
BRANCH   1   2
ATOM      2  C   UNL     1       7.210   6.129  17.894  0.00  0.00    +0.000 C 
ATOM      3  N   UNL     1       7.759   7.182  17.220  0.00  0.00    +0.000 N 
ATOM      4  O   UNL     1       7.580   5.861  19.036  0.00  0.00    +0.000 OA
ATOM      5  H   UNL     1       7.497   7.451  16.281  0.00  0.00    +0.000 HD
ATOM      6  H   UNL     1       8.456   7.737  17.701  0.00  0.00    +0.000 HD
ENDBRANCH   1   2
BRANCH   1   7
ATOM      7  N   UNL     1       5.253   4.700  18.136  0.00  0.00    +0.000 N 
ATOM      8  C   UNL     1       3.889   4.854  18.126  0.00  0.00    +0.000 C 
ATOM      9  O   UNL     1       3.282   5.447  17.241  0.00  0.00    +0.000 OA
ATOM     10  H   UNL     1       5.720   4.337  18.959  0.00  0.00    +0.000 HD
BRANCH   8  11
ATOM     11  C   UNL     1       3.139   4.258  19.252  0.00  0.00    +0.000 A 
ATOM     12  C   UNL     1       2.865   5.086  20.361  0.00  0.00    +0.000 A 
ATOM     13  C   UNL     1       2.190   4.590  21.475  0.00  0.00    +0.000 A 
ATOM     14  C   UNL     1       1.759   3.270  21.486  0.00  0.00    +0.000 A 
ATOM     15  C   UNL     1       2.006   2.448  20.384  0.00  0.00    +0.000 A 
ATOM     16  C   UNL     1       2.696   2.923  19.249  0.00  0.00    +0.000 A 
BRANCH  16  17
ATOM     17  C   UNL     1       2.976   1.885  18.214  0.00  0.00    +0.000 C 
ATOM     18  O   UNL     1       3.883   1.077  18.377  0.00  0.00    +0.000 OA
BRANCH  17  19
ATOM     19  O   UNL     1       2.168   1.796  17.145  0.00  0.00    +0.000 OA
ATOM     20  H   UNL     1       1.196   1.742  17.330  0.00  0.00    +0.000 HD
ENDBRANCH  17  19
ENDBRANCH  16  17
ENDBRANCH   8  11
ENDBRANCH   1   7
BRANCH   1  21
ATOM     21  C   UNL     1       6.697   4.292  16.205  0.00  0.00    +0.000 C 
BRANCH  21  22
ATOM     22  C   UNL     1       5.776   3.964  15.022  0.00  0.00    +0.000 C 
BRANCH  22  23
ATOM     23  C   UNL     1       6.398   4.318  13.672  0.00  0.00    +0.000 C 
BRANCH  23  26
ATOM     24  N   UNL     1       4.565   3.327  11.737  0.00  0.00    +0.000 NA
ATOM     25  C   UNL     1       5.678   2.694  11.951  0.00  0.00    +0.000 C 
ATOM     26  N   UNL     1       6.584   3.125  12.881  0.00  0.00    +0.000 N 
ATOM     27  H   UNL     1       4.042   2.820  11.006  0.00  0.00    +0.000 HD
ATOM     28  H   UNL     1       7.496   2.682  12.945  0.00  0.00    +0.000 HD
BRANCH  25  29
ATOM     29  C   UNL     1       5.997   1.433  11.155  0.00  0.00    +0.000 C 
ATOM     30  F   UNL     1       7.330   1.337  10.890  0.00  0.00    +0.000 F 
ENDBRANCH  25  29
ENDBRANCH  23  26
ENDBRANCH  22  23
ENDBRANCH  21  22
ENDBRANCH   1  21
TORSDOF 10
ENDMDL
MODEL 7
REMARK VINA RESULT:      -7.4      3.533      5.889
REMARK  Name = 
REMARK  10 active torsions:
REMARK  status: ('A' for Active; 'I' for Inactive)
REMARK    1  A    between atoms: C_2  and  C_3
REMARK    2  A    between atoms: N_5  and  C_6
REMARK    3  A    between atoms: C_6  and  C_7
REMARK    4  A    between atoms: C_7  and  C_8
REMARK    5  A    between atoms: C_8  and  C_9
REMARK    6  A    between atoms: C_9  and  N_10
REMARK    7  A    between atoms: C_9  and  C_22
REMARK    8  A    between atoms: C_11  and  C_13
REMARK    9  A    between atoms: C_18  and  C_19
REMARK   10  A    between atoms: C_19  and  O_21
REMARK                            x       y       z     vdW  Elec       q    Type
REMARK                         _______ _______ _______ _____ _____    ______ ____
ROOT
ATOM      1  C   UNL     1       6.309   5.933  16.823  0.00  0.00    +0.000 C 
ENDROOT
BRANCH   1   2
ATOM      2  C   UNL     1       7.305   6.812  17.597  0.00  0.00    +0.000 C 
ATOM      3  N   UNL     1       7.339   8.133  17.248  0.00  0.00    +0.000 N 
ATOM      4  O   UNL     1       8.030   6.388  18.495  0.00  0.00    +0.000 OA
ATOM      5  H   UNL     1       6.769   8.539  16.519  0.00  0.00    +0.000 HD
ATOM      6  H   UNL     1       7.959   8.741  17.767  0.00  0.00    +0.000 HD
ENDBRANCH   1   2
BRANCH   1   7
ATOM      7  N   UNL     1       5.144   5.693  17.668  0.00  0.00    +0.000 N 
ATOM      8  C   UNL     1       5.187   4.844  18.746  0.00  0.00    +0.000 C 
ATOM      9  O   UNL     1       6.216   4.313  19.148  0.00  0.00    +0.000 OA
ATOM     10  H   UNL     1       4.253   5.986  17.284  0.00  0.00    +0.000 HD
BRANCH   8  11
ATOM     11  C   UNL     1       3.911   4.582  19.444  0.00  0.00    +0.000 A 
ATOM     12  C   UNL     1       3.077   5.689  19.713  0.00  0.00    +0.000 A 
ATOM     13  C   UNL     1       1.872   5.529  20.394  0.00  0.00    +0.000 A 
ATOM     14  C   UNL     1       1.471   4.261  20.794  0.00  0.00    +0.000 A 
ATOM     15  C   UNL     1       2.278   3.156  20.513  0.00  0.00    +0.000 A 
ATOM     16  C   UNL     1       3.507   3.292  19.834  0.00  0.00    +0.000 A 
BRANCH  16  17
ATOM     17  C   UNL     1       4.295   2.031  19.719  0.00  0.00    +0.000 C 
ATOM     18  O   UNL     1       5.040   1.680  20.628  0.00  0.00    +0.000 OA
BRANCH  17  19
ATOM     19  O   UNL     1       4.115   1.244  18.645  0.00  0.00    +0.000 OA
ATOM     20  H   UNL     1       3.181   1.136  18.331  0.00  0.00    +0.000 HD
ENDBRANCH  17  19
ENDBRANCH  16  17
ENDBRANCH   8  11
ENDBRANCH   1   7
BRANCH   1  21
ATOM     21  C   UNL     1       6.925   4.595  16.401  0.00  0.00    +0.000 C 
BRANCH  21  22
ATOM     22  C   UNL     1       6.034   3.794  15.442  0.00  0.00    +0.000 C 
BRANCH  22  23
ATOM     23  C   UNL     1       6.113   4.297  14.001  0.00  0.00    +0.000 C 
BRANCH  23  26
ATOM     24  N   UNL     1       4.536   3.387  11.818  0.00  0.00    +0.000 NA
ATOM     25  C   UNL     1       5.677   2.819  12.066  0.00  0.00    +0.000 C 
ATOM     26  N   UNL     1       6.464   3.214  13.114  0.00  0.00    +0.000 N 
ATOM     27  H   UNL     1       4.120   2.924  10.994  0.00  0.00    +0.000 HD
ATOM     28  H   UNL     1       7.401   2.836  13.215  0.00  0.00    +0.000 HD
BRANCH  25  29
ATOM     29  C   UNL     1       6.166   1.680  11.179  0.00  0.00    +0.000 C 
ATOM     30  F   UNL     1       7.527   1.634  11.133  0.00  0.00    +0.000 F 
ENDBRANCH  25  29
ENDBRANCH  23  26
ENDBRANCH  22  23
ENDBRANCH  21  22
ENDBRANCH   1  21
TORSDOF 10
ENDMDL
MODEL 8
REMARK VINA RESULT:      -7.4      1.645      2.413
REMARK  Name = 
REMARK  10 active torsions:
REMARK  status: ('A' for Active; 'I' for Inactive)
REMARK    1  A    between atoms: C_2  and  C_3
REMARK    2  A    between atoms: N_5  and  C_6
REMARK    3  A    between atoms: C_6  and  C_7
REMARK    4  A    between atoms: C_7  and  C_8
REMARK    5  A    between atoms: C_8  and  C_9
REMARK    6  A    between atoms: C_9  and  N_10
REMARK    7  A    between atoms: C_9  and  C_22
REMARK    8  A    between atoms: C_11  and  C_13
REMARK    9  A    between atoms: C_18  and  C_19
REMARK   10  A    between atoms: C_19  and  O_21
REMARK                            x       y       z     vdW  Elec       q    Type
REMARK                         _______ _______ _______ _____ _____    ______ ____
ROOT
ATOM      1  C   UNL     1       6.401   5.478  17.076  0.00  0.00    +0.000 C 
ENDROOT
BRANCH   1   2
ATOM      2  C   UNL     1       6.603   5.086  15.603  0.00  0.00    +0.000 C 
ATOM      3  N   UNL     1       5.467   4.855  14.881  0.00  0.00    +0.000 N 
ATOM      4  O   UNL     1       7.707   4.996  15.070  0.00  0.00    +0.000 OA
ATOM      5  H   UNL     1       4.533   4.912  15.264  0.00  0.00    +0.000 HD
ATOM      6  H   UNL     1       5.570   4.631  13.899  0.00  0.00    +0.000 HD
ENDBRANCH   1   2
BRANCH   1   7
ATOM      7  N   UNL     1       5.075   5.036  17.499  0.00  0.00    +0.000 N 
ATOM      8  C   UNL     1       4.878   4.321  18.654  0.00  0.00    +0.000 C 
ATOM      9  O   UNL     1       5.766   4.093  19.468  0.00  0.00    +0.000 OA
ATOM     10  H   UNL     1       4.353   5.069  16.789  0.00  0.00    +0.000 HD
BRANCH   8  11
ATOM     11  C   UNL     1       3.511   3.819  18.905  0.00  0.00    +0.000 A 
ATOM     12  C   UNL     1       3.269   2.448  18.677  0.00  0.00    +0.000 A 
ATOM     13  C   UNL     1       2.000   1.903  18.860  0.00  0.00    +0.000 A 
ATOM     14  C   UNL     1       0.961   2.714  19.299  0.00  0.00    +0.000 A 
ATOM     15  C   UNL     1       1.194   4.068  19.550  0.00  0.00    +0.000 A 
ATOM     16  C   UNL     1       2.468   4.645  19.361  0.00  0.00    +0.000 A 
BRANCH  16  17
ATOM     17  C   UNL     1       2.515   6.123  19.563  0.00  0.00    +0.000 C 
ATOM     18  O   UNL     1       2.765   6.869  18.623  0.00  0.00    +0.000 OA
BRANCH  17  19
ATOM     19  O   UNL     1       2.196   6.627  20.767  0.00  0.00    +0.000 OA
ATOM     20  H   UNL     1       1.534   6.115  21.297  0.00  0.00    +0.000 HD
ENDBRANCH  17  19
ENDBRANCH  16  17
ENDBRANCH   8  11
ENDBRANCH   1   7
BRANCH   1  21
ATOM     21  C   UNL     1       6.536   6.987  17.298  0.00  0.00    +0.000 C 
BRANCH  21  22
ATOM     22  C   UNL     1       7.818   7.377  18.045  0.00  0.00    +0.000 C 
BRANCH  22  23
ATOM     23  C   UNL     1       8.197   8.844  17.845  0.00  0.00    +0.000 C 
BRANCH  23  26
ATOM     24  N   UNL     1       9.153  11.502  18.172  0.00  0.00    +0.000 NA
ATOM     25  C   UNL     1       9.279  10.650  19.143  0.00  0.00    +0.000 C 
ATOM     26  N   UNL     1       8.847   9.356  19.027  0.00  0.00    +0.000 N 
ATOM     27  H   UNL     1       9.553  12.402  18.480  0.00  0.00    +0.000 HD
ATOM     28  H   UNL     1       8.849   8.746  19.839  0.00  0.00    +0.000 HD
BRANCH  25  29
ATOM     29  C   UNL     1       9.927  11.085  20.453  0.00  0.00    +0.000 C 
ATOM     30  F   UNL     1      11.186  11.564  20.250  0.00  0.00    +0.000 F 
ENDBRANCH  25  29
ENDBRANCH  23  26
ENDBRANCH  22  23
ENDBRANCH  21  22
ENDBRANCH   1  21
TORSDOF 10
ENDMDL
MODEL 9
REMARK VINA RESULT:      -7.3      4.138      6.133
REMARK  Name = 
REMARK  10 active torsions:
REMARK  status: ('A' for Active; 'I' for Inactive)
REMARK    1  A    between atoms: C_2  and  C_3
REMARK    2  A    between atoms: N_5  and  C_6
REMARK    3  A    between atoms: C_6  and  C_7
REMARK    4  A    between atoms: C_7  and  C_8
REMARK    5  A    between atoms: C_8  and  C_9
REMARK    6  A    between atoms: C_9  and  N_10
REMARK    7  A    between atoms: C_9  and  C_22
REMARK    8  A    between atoms: C_11  and  C_13
REMARK    9  A    between atoms: C_18  and  C_19
REMARK   10  A    between atoms: C_19  and  O_21
REMARK                            x       y       z     vdW  Elec       q    Type
REMARK                         _______ _______ _______ _____ _____    ______ ____
ROOT
ATOM      1  C   UNL     1       5.370   5.838  17.069  0.00  0.00    +0.000 C 
ENDROOT
BRANCH   1   2
ATOM      2  C   UNL     1       6.847   5.612  17.432  0.00  0.00    +0.000 C 
ATOM      3  N   UNL     1       7.734   6.528  16.942  0.00  0.00    +0.000 N 
ATOM      4  O   UNL     1       7.240   4.683  18.137  0.00  0.00    +0.000 OA
ATOM      5  H   UNL     1       7.472   7.311  16.358  0.00  0.00    +0.000 HD
ATOM      6  H   UNL     1       8.708   6.424  17.197  0.00  0.00    +0.000 HD
ENDBRANCH   1   2
BRANCH   1   7
ATOM      7  N   UNL     1       4.550   4.927  17.863  0.00  0.00    +0.000 N 
ATOM      8  C   UNL     1       3.507   5.371  18.635  0.00  0.00    +0.000 C 
ATOM      9  O   UNL     1       3.113   6.532  18.638  0.00  0.00    +0.000 OA
ATOM     10  H   UNL     1       4.934   4.001  18.006  0.00  0.00    +0.000 HD
BRANCH   8  11
ATOM     11  C   UNL     1       2.837   4.372  19.495  0.00  0.00    +0.000 A 
ATOM     12  C   UNL     1       2.495   4.766  20.806  0.00  0.00    +0.000 A 
ATOM     13  C   UNL     1       1.890   3.873  21.688  0.00  0.00    +0.000 A 
ATOM     14  C   UNL     1       1.595   2.583  21.265  0.00  0.00    +0.000 A 
ATOM     15  C   UNL     1       1.909   2.189  19.962  0.00  0.00    +0.000 A 
ATOM     16  C   UNL     1       2.531   3.072  19.054  0.00  0.00    +0.000 A 
BRANCH  16  17
ATOM     17  C   UNL     1       2.900   2.456  17.745  0.00  0.00    +0.000 C 
ATOM     18  O   UNL     1       2.303   2.772  16.722  0.00  0.00    +0.000 OA
BRANCH  17  19
ATOM     19  O   UNL     1       3.947   1.617  17.691  0.00  0.00    +0.000 OA
ATOM     20  H   UNL     1       4.658   1.842  17.038  0.00  0.00    +0.000 HD
ENDBRANCH  17  19
ENDBRANCH  16  17
ENDBRANCH   8  11
ENDBRANCH   1   7
BRANCH   1  21
ATOM     21  C   UNL     1       5.099   5.609  15.579  0.00  0.00    +0.000 C 
BRANCH  21  22
ATOM     22  C   UNL     1       5.692   4.296  15.050  0.00  0.00    +0.000 C 
BRANCH  22  23
ATOM     23  C   UNL     1       6.405   4.466  13.709  0.00  0.00    +0.000 C 
BRANCH  23  26
ATOM     24  N   UNL     1       4.651   3.544  11.670  0.00  0.00    +0.000 NA
ATOM     25  C   UNL     1       5.645   2.799  12.047  0.00  0.00    +0.000 C 
ATOM     26  N   UNL     1       6.506   3.194  13.035  0.00  0.00    +0.000 N 
ATOM     27  H   UNL     1       4.139   3.044  10.926  0.00  0.00    +0.000 HD
ATOM     28  H   UNL     1       7.341   2.648  13.228  0.00  0.00    +0.000 HD
BRANCH  25  29
ATOM     29  C   UNL     1       5.869   1.443  11.386  0.00  0.00    +0.000 C 
ATOM     30  F   UNL     1       7.109   1.363  10.825  0.00  0.00    +0.000 F 
ENDBRANCH  25  29
ENDBRANCH  23  26
ENDBRANCH  22  23
ENDBRANCH  21  22
ENDBRANCH   1  21
TORSDOF 10
ENDMDL
