MODEL 1
REMARK VINA RESULT:      -8.6      0.000      0.000
REMARK  Name = 
REMARK  4 active torsions:
REMARK  status: ('A' for Active; 'I' for Inactive)
REMARK    1  A    between atoms: N_4  and  N_5
REMARK    2  A    between atoms: N_5  and  C_6
REMARK    3  A    between atoms: C_18  and  C_19
REMARK    4  A    between atoms: N_26  and  C_27
REMARK                            x       y       z     vdW  Elec       q    Type
REMARK                         _______ _______ _______ _____ _____    ______ ____
ROOT
ATOM      1  O   UNL     1       0.461  10.772  21.784  0.00  0.00    +0.000 OA
ATOM      2  C   UNL     1      -0.414  11.176  21.047  0.00  0.00    +0.000 C 
ATOM      3  C   UNL     1      -0.669  10.623  19.689  0.00  0.00    +0.000 C 
ATOM      4  N   UNL     1       0.051   9.789  19.005  0.00  0.00    +0.000 NA
ATOM      5  C   UNL     1      -1.909  11.287  19.203  0.00  0.00    +0.000 C 
ATOM      6  N   UNL     1      -2.290  12.189  20.071  0.00  0.00    +0.000 NA
ATOM      7  N   UNL     1      -1.395  12.142  21.159  0.00  0.00    +0.000 N 
ENDROOT
BRANCH   5   8
ATOM      8  C   UNL     1      -2.571  10.991  17.924  0.00  0.00    +0.000 A 
ATOM      9  C   UNL     1      -1.953  10.187  16.958  0.00  0.00    +0.000 A 
ATOM     10  C   UNL     1      -2.575   9.957  15.729  0.00  0.00    +0.000 A 
ATOM     11  C   UNL     1      -3.821  10.520  15.464  0.00  0.00    +0.000 A 
ATOM     12  C   UNL     1      -4.454  11.301  16.432  0.00  0.00    +0.000 A 
ATOM     13  C   UNL     1      -3.835  11.533  17.663  0.00  0.00    +0.000 A 
ENDBRANCH   5   8
BRANCH   7  14
ATOM     14  C   UNL     1      -1.539  13.050  22.235  0.00  0.00    +0.000 A 
ATOM     15  C   UNL     1      -0.599  14.076  22.447  0.00  0.00    +0.000 A 
ATOM     16  C   UNL     1      -0.746  14.989  23.491  0.00  0.00    +0.000 A 
ATOM     17  C   UNL     1      -1.834  14.891  24.350  0.00  0.00    +0.000 A 
ATOM     18  C   UNL     1      -2.773  13.880  24.159  0.00  0.00    +0.000 A 
ATOM     19  C   UNL     1      -2.630  12.968  23.107  0.00  0.00    +0.000 A 
ENDBRANCH   7  14
BRANCH   4  20
ATOM     20  N   UNL     1       1.202   9.375  19.589  0.00  0.00    +0.000 N 
ATOM     21  H   UNL     1       1.395   9.513  20.601  0.00  0.00    +0.000 HD
BRANCH  20  22
ATOM     22  C   UNL     1       2.019   8.418  18.953  0.00  0.00    +0.000 A 
ATOM     23  C   UNL     1       2.623   8.712  17.717  0.00  0.00    +0.000 A 
ATOM     24  C   UNL     1       3.473   7.805  17.089  0.00  0.00    +0.000 A 
ATOM     25  C   UNL     1       3.763   6.594  17.704  0.00  0.00    +0.000 A 
ATOM     26  C   UNL     1       3.184   6.280  18.940  0.00  0.00    +0.000 A 
ATOM     27  C   UNL     1       3.519   4.989  19.575  0.00  0.00    +0.000 A 
ATOM     28  O   UNL     1       4.352   4.234  19.091  0.00  0.00    +0.000 OA
ATOM     29  N   UNL     1       2.851   4.675  20.728  0.00  0.00    +0.000 N 
ATOM     30  N   UNL     1       1.956   5.532  21.332  0.00  0.00    +0.000 N 
ATOM     31  C   UNL     1       1.680   6.787  20.850  0.00  0.00    +0.000 A 
ATOM     32  O   UNL     1       0.922   7.532  21.461  0.00  0.00    +0.000 OA
ATOM     33  C   UNL     1       2.310   7.177  19.562  0.00  0.00    +0.000 A 
ATOM     34  H   UNL     1       3.094   3.802  21.190  0.00  0.00    +0.000 HD
ATOM     35  H   UNL     1       1.501   5.253  22.197  0.00  0.00    +0.000 HD
ENDBRANCH  20  22
ENDBRANCH   4  20
TORSDOF 4
ENDMDL
MODEL 2
REMARK VINA RESULT:      -8.5      0.503      1.003
REMARK  Name = 
REMARK  4 active torsions:
REMARK  status: ('A' for Active; 'I' for Inactive)
REMARK    1  A    between atoms: N_4  and  N_5
REMARK    2  A    between atoms: N_5  and  C_6
REMARK    3  A    between atoms: C_18  and  C_19
REMARK    4  A    between atoms: N_26  and  C_27
REMARK                            x       y       z     vdW  Elec       q    Type
REMARK                         _______ _______ _______ _____ _____    ______ ____
ROOT
ATOM      1  O   UNL     1       0.980  10.871  21.566  0.00  0.00    +0.000 OA
ATOM      2  C   UNL     1       0.079  11.266  20.856  0.00  0.00    +0.000 C 
ATOM      3  C   UNL     1      -0.315  10.606  19.581  0.00  0.00    +0.000 C 
ATOM      4  N   UNL     1       0.294   9.661  18.936  0.00  0.00    +0.000 NA
ATOM      5  C   UNL     1      -1.542  11.310  19.118  0.00  0.00    +0.000 C 
ATOM      6  N   UNL     1      -1.796  12.316  19.917  0.00  0.00    +0.000 NA
ATOM      7  N   UNL     1      -0.825  12.308  20.938  0.00  0.00    +0.000 N 
ENDROOT
BRANCH   5   8
ATOM      8  C   UNL     1      -2.318  10.943  17.925  0.00  0.00    +0.000 A 
ATOM      9  C   UNL     1      -1.820  10.025  16.991  0.00  0.00    +0.000 A 
ATOM     10  C   UNL     1      -2.549   9.726  15.839  0.00  0.00    +0.000 A 
ATOM     11  C   UNL     1      -3.782  10.333  15.619  0.00  0.00    +0.000 A 
ATOM     12  C   UNL     1      -4.297  11.229  16.557  0.00  0.00    +0.000 A 
ATOM     13  C   UNL     1      -3.571  11.530  17.712  0.00  0.00    +0.000 A 
ENDBRANCH   5   8
BRANCH   7  14
ATOM     14  C   UNL     1      -0.826  13.322  21.925  0.00  0.00    +0.000 A 
ATOM     15  C   UNL     1      -1.674  13.239  23.046  0.00  0.00    +0.000 A 
ATOM     16  C   UNL     1      -1.666  14.223  24.035  0.00  0.00    +0.000 A 
ATOM     17  C   UNL     1      -0.812  15.313  23.921  0.00  0.00    +0.000 A 
ATOM     18  C   UNL     1       0.032  15.415  22.818  0.00  0.00    +0.000 A 
ATOM     19  C   UNL     1       0.029  14.425  21.829  0.00  0.00    +0.000 A 
ENDBRANCH   7  14
BRANCH   4  20
ATOM     20  N   UNL     1       1.457   9.222  19.477  0.00  0.00    +0.000 N 
ATOM     21  H   UNL     1       1.708   9.388  20.471  0.00  0.00    +0.000 HD
BRANCH  20  22
ATOM     22  C   UNL     1       2.202   8.209  18.837  0.00  0.00    +0.000 A 
ATOM     23  C   UNL     1       2.830   8.465  17.604  0.00  0.00    +0.000 A 
ATOM     24  C   UNL     1       3.612   7.500  16.974  0.00  0.00    +0.000 A 
ATOM     25  C   UNL     1       3.809   6.267  17.583  0.00  0.00    +0.000 A 
ATOM     26  C   UNL     1       3.203   5.990  18.815  0.00  0.00    +0.000 A 
ATOM     27  C   UNL     1       3.438   4.675  19.443  0.00  0.00    +0.000 A 
ATOM     28  O   UNL     1       4.214   3.861  18.957  0.00  0.00    +0.000 OA
ATOM     29  N   UNL     1       2.744   4.405  20.592  0.00  0.00    +0.000 N 
ATOM     30  N   UNL     1       1.914   5.323  21.199  0.00  0.00    +0.000 N 
ATOM     31  C   UNL     1       1.735   6.598  20.724  0.00  0.00    +0.000 A 
ATOM     32  O   UNL     1       1.033   7.394  21.337  0.00  0.00    +0.000 OA
ATOM     33  C   UNL     1       2.397   6.947  19.440  0.00  0.00    +0.000 A 
ATOM     34  H   UNL     1       2.919   3.513  21.049  0.00  0.00    +0.000 HD
ATOM     35  H   UNL     1       1.437   5.074  22.061  0.00  0.00    +0.000 HD
ENDBRANCH  20  22
ENDBRANCH   4  20
TORSDOF 4
ENDMDL
MODEL 3
REMARK VINA RESULT:      -8.3      0.212      1.220
REMARK  Name = 
REMARK  4 active torsions:
REMARK  status: ('A' for Active; 'I' for Inactive)
REMARK    1  A    between atoms: N_4  and  N_5
REMARK    2  A    between atoms: N_5  and  C_6
REMARK    3  A    between atoms: C_18  and  C_19
REMARK    4  A    between atoms: N_26  and  C_27
REMARK                            x       y       z     vdW  Elec       q    Type
REMARK                         _______ _______ _______ _____ _____    ______ ____
ROOT
ATOM      1  O   UNL     1       0.311  10.811  21.920  0.00  0.00    +0.000 OA
ATOM      2  C   UNL     1      -0.538  11.258  21.178  0.00  0.00    +0.000 C 
ATOM      3  C   UNL     1      -0.793  10.736  19.808  0.00  0.00    +0.000 C 
ATOM      4  N   UNL     1      -0.093   9.888  19.120  0.00  0.00    +0.000 NA
ATOM      5  C   UNL     1      -2.001  11.452  19.315  0.00  0.00    +0.000 C 
ATOM      6  N   UNL     1      -2.362  12.353  20.193  0.00  0.00    +0.000 NA
ATOM      7  N   UNL     1      -1.485  12.257  21.292  0.00  0.00    +0.000 N 
ENDROOT
BRANCH   5   8
ATOM      8  C   UNL     1      -2.654  11.200  18.022  0.00  0.00    +0.000 A 
ATOM      9  C   UNL     1      -3.987  11.566  17.800  0.00  0.00    +0.000 A 
ATOM     10  C   UNL     1      -4.606  11.273  16.583  0.00  0.00    +0.000 A 
ATOM     11  C   UNL     1      -3.892  10.624  15.579  0.00  0.00    +0.000 A 
ATOM     12  C   UNL     1      -2.555  10.279  15.784  0.00  0.00    +0.000 A 
ATOM     13  C   UNL     1      -1.933  10.571  17.000  0.00  0.00    +0.000 A 
ENDBRANCH   5   8
BRANCH   7  14
ATOM     14  C   UNL     1      -1.613  13.152  22.380  0.00  0.00    +0.000 A 
ATOM     15  C   UNL     1      -2.704  13.064  23.265  0.00  0.00    +0.000 A 
ATOM     16  C   UNL     1      -2.826  13.928  24.354  0.00  0.00    +0.000 A 
ATOM     17  C   UNL     1      -1.861  14.901  24.577  0.00  0.00    +0.000 A 
ATOM     18  C   UNL     1      -0.775  15.007  23.711  0.00  0.00    +0.000 A 
ATOM     19  C   UNL     1      -0.649  14.137  22.622  0.00  0.00    +0.000 A 
ENDBRANCH   7  14
BRANCH   4  20
ATOM     20  N   UNL     1       1.034   9.423  19.714  0.00  0.00    +0.000 N 
ATOM     21  H   UNL     1       1.185   9.473  20.741  0.00  0.00    +0.000 HD
BRANCH  20  22
ATOM     22  C   UNL     1       1.879   8.523  19.032  0.00  0.00    +0.000 A 
ATOM     23  C   UNL     1       2.448   8.884  17.797  0.00  0.00    +0.000 A 
ATOM     24  C   UNL     1       3.324   8.035  17.124  0.00  0.00    +0.000 A 
ATOM     25  C   UNL     1       3.675   6.817  17.694  0.00  0.00    +0.000 A 
ATOM     26  C   UNL     1       3.131   6.438  18.927  0.00  0.00    +0.000 A 
ATOM     27  C   UNL     1       3.530   5.142  19.511  0.00  0.00    +0.000 A 
ATOM     28  O   UNL     1       4.386   4.439  18.989  0.00  0.00    +0.000 OA
ATOM     29  N   UNL     1       2.896   4.761  20.664  0.00  0.00    +0.000 N 
ATOM     30  N   UNL     1       1.977   5.559  21.311  0.00  0.00    +0.000 N 
ATOM     31  C   UNL     1       1.641   6.817  20.878  0.00  0.00    +0.000 A 
ATOM     32  O   UNL     1       0.864   7.508  21.526  0.00  0.00    +0.000 OA
ATOM     33  C   UNL     1       2.232   7.276  19.593  0.00  0.00    +0.000 A 
ATOM     34  H   UNL     1       3.183   3.884  21.091  0.00  0.00    +0.000 HD
ATOM     35  H   UNL     1       1.550   5.232  22.174  0.00  0.00    +0.000 HD
ENDBRANCH  20  22
ENDBRANCH   4  20
TORSDOF 4
ENDMDL
MODEL 4
REMARK VINA RESULT:      -8.3      3.606      8.327
REMARK  Name = 
REMARK  4 active torsions:
REMARK  status: ('A' for Active; 'I' for Inactive)
REMARK    1  A    between atoms: N_4  and  N_5
REMARK    2  A    between atoms: N_5  and  C_6
REMARK    3  A    between atoms: C_18  and  C_19
REMARK    4  A    between atoms: N_26  and  C_27
REMARK                            x       y       z     vdW  Elec       q    Type
REMARK                         _______ _______ _______ _____ _____    ______ ____
ROOT
ATOM      1  O   UNL     1      -1.249   9.948  19.043  0.00  0.00    +0.000 OA
ATOM      2  C   UNL     1      -0.246  10.612  18.896  0.00  0.00    +0.000 C 
ATOM      3  C   UNL     1      -0.255  12.087  18.690  0.00  0.00    +0.000 C 
ATOM      4  N   UNL     1      -1.266  12.867  18.464  0.00  0.00    +0.000 NA
ATOM      5  C   UNL     1       1.171  12.513  18.711  0.00  0.00    +0.000 C 
ATOM      6  N   UNL     1       1.940  11.458  18.798  0.00  0.00    +0.000 NA
ATOM      7  N   UNL     1       1.106  10.325  18.887  0.00  0.00    +0.000 N 
ENDROOT
BRANCH   5   8
ATOM      8  C   UNL     1       1.629  13.906  18.612  0.00  0.00    +0.000 A 
ATOM      9  C   UNL     1       2.809  14.234  17.931  0.00  0.00    +0.000 A 
ATOM     10  C   UNL     1       3.254  15.556  17.890  0.00  0.00    +0.000 A 
ATOM     11  C   UNL     1       2.519  16.558  18.518  0.00  0.00    +0.000 A 
ATOM     12  C   UNL     1       1.330  16.242  19.177  0.00  0.00    +0.000 A 
ATOM     13  C   UNL     1       0.880  14.921  19.219  0.00  0.00    +0.000 A 
ENDBRANCH   5   8
BRANCH   7  14
ATOM     14  C   UNL     1       1.673   9.030  18.944  0.00  0.00    +0.000 A 
ATOM     15  C   UNL     1       1.586   8.253  20.115  0.00  0.00    +0.000 A 
ATOM     16  C   UNL     1       2.122   6.966  20.172  0.00  0.00    +0.000 A 
ATOM     17  C   UNL     1       2.763   6.432  19.061  0.00  0.00    +0.000 A 
ATOM     18  C   UNL     1       2.864   7.187  17.895  0.00  0.00    +0.000 A 
ATOM     19  C   UNL     1       2.319   8.475  17.834  0.00  0.00    +0.000 A 
ENDBRANCH   7  14
BRANCH   4  20
ATOM     20  N   UNL     1      -2.479  12.265  18.383  0.00  0.00    +0.000 N 
ATOM     21  H   UNL     1      -2.680  11.506  17.703  0.00  0.00    +0.000 HD
BRANCH  20  22
ATOM     22  C   UNL     1      -3.398  12.369  19.447  0.00  0.00    +0.000 A 
ATOM     23  C   UNL     1      -2.981  12.860  20.697  0.00  0.00    +0.000 A 
ATOM     24  C   UNL     1      -3.877  13.019  21.752  0.00  0.00    +0.000 A 
ATOM     25  C   UNL     1      -5.220  12.719  21.564  0.00  0.00    +0.000 A 
ATOM     26  C   UNL     1      -5.664  12.239  20.327  0.00  0.00    +0.000 A 
ATOM     27  C   UNL     1      -7.099  11.937  20.154  0.00  0.00    +0.000 A 
ATOM     28  O   UNL     1      -7.916  12.181  21.034  0.00  0.00    +0.000 OA
ATOM     29  N   UNL     1      -7.475  11.370  18.966  0.00  0.00    +0.000 N 
ATOM     30  N   UNL     1      -6.591  11.144  17.932  0.00  0.00    +0.000 N 
ATOM     31  C   UNL     1      -5.266  11.498  17.990  0.00  0.00    +0.000 A 
ATOM     32  O   UNL     1      -4.538  11.330  17.018  0.00  0.00    +0.000 OA
ATOM     33  C   UNL     1      -4.764  12.054  19.273  0.00  0.00    +0.000 A 
ATOM     34  H   UNL     1      -8.465  11.185  18.825  0.00  0.00    +0.000 HD
ATOM     35  H   UNL     1      -6.929  10.735  17.065  0.00  0.00    +0.000 HD
ENDBRANCH  20  22
ENDBRANCH   4  20
TORSDOF 4
ENDMDL
MODEL 5
REMARK VINA RESULT:      -8.2      1.548      2.098
REMARK  Name = 
REMARK  4 active torsions:
REMARK  status: ('A' for Active; 'I' for Inactive)
REMARK    1  A    between atoms: N_4  and  N_5
REMARK    2  A    between atoms: N_5  and  C_6
REMARK    3  A    between atoms: C_18  and  C_19
REMARK    4  A    between atoms: N_26  and  C_27
REMARK                            x       y       z     vdW  Elec       q    Type
REMARK                         _______ _______ _______ _____ _____    ______ ____
ROOT
ATOM      1  O   UNL     1       1.032  10.858  21.640  0.00  0.00    +0.000 OA
ATOM      2  C   UNL     1       0.119  11.231  20.934  0.00  0.00    +0.000 C 
ATOM      3  C   UNL     1      -0.253  10.574  19.651  0.00  0.00    +0.000 C 
ATOM      4  N   UNL     1       0.387   9.657  18.995  0.00  0.00    +0.000 NA
ATOM      5  C   UNL     1      -1.503  11.242  19.196  0.00  0.00    +0.000 C 
ATOM      6  N   UNL     1      -1.790  12.229  20.005  0.00  0.00    +0.000 NA
ATOM      7  N   UNL     1      -0.819  12.241  21.027  0.00  0.00    +0.000 N 
ENDROOT
BRANCH   5   8
ATOM      8  C   UNL     1      -2.265  10.862  17.998  0.00  0.00    +0.000 A 
ATOM      9  C   UNL     1      -1.754   9.942  17.074  0.00  0.00    +0.000 A 
ATOM     10  C   UNL     1      -2.470   9.631  15.917  0.00  0.00    +0.000 A 
ATOM     11  C   UNL     1      -3.705  10.230  15.682  0.00  0.00    +0.000 A 
ATOM     12  C   UNL     1      -4.233  11.130  16.610  0.00  0.00    +0.000 A 
ATOM     13  C   UNL     1      -3.519  11.442  17.769  0.00  0.00    +0.000 A 
ENDBRANCH   5   8
BRANCH   7  14
ATOM     14  C   UNL     1      -0.855  13.243  22.026  0.00  0.00    +0.000 A 
ATOM     15  C   UNL     1       0.003  14.357  21.964  0.00  0.00    +0.000 A 
ATOM     16  C   UNL     1      -0.042  15.361  22.932  0.00  0.00    +0.000 A 
ATOM     17  C   UNL     1      -0.941  15.268  23.986  0.00  0.00    +0.000 A 
ATOM     18  C   UNL     1      -1.796  14.171  24.068  0.00  0.00    +0.000 A 
ATOM     19  C   UNL     1      -1.757  13.167  23.093  0.00  0.00    +0.000 A 
ENDBRANCH   7  14
BRANCH   4  20
ATOM     20  N   UNL     1       1.564   9.250  19.532  0.00  0.00    +0.000 N 
ATOM     21  H   UNL     1       2.192   9.893  20.052  0.00  0.00    +0.000 HD
BRANCH  20  22
ATOM     22  C   UNL     1       1.817   7.878  19.737  0.00  0.00    +0.000 A 
ATOM     23  C   UNL     1       1.229   7.206  20.825  0.00  0.00    +0.000 A 
ATOM     24  C   UNL     1       1.422   5.840  21.026  0.00  0.00    +0.000 A 
ATOM     25  C   UNL     1       2.183   5.112  20.120  0.00  0.00    +0.000 A 
ATOM     26  C   UNL     1       2.771   5.755  19.023  0.00  0.00    +0.000 A 
ATOM     27  C   UNL     1       3.566   4.953  18.072  0.00  0.00    +0.000 A 
ATOM     28  O   UNL     1       3.649   3.736  18.172  0.00  0.00    +0.000 OA
ATOM     29  N   UNL     1       4.211   5.636  17.075  0.00  0.00    +0.000 N 
ATOM     30  N   UNL     1       4.086   6.997  16.897  0.00  0.00    +0.000 N 
ATOM     31  C   UNL     1       3.279   7.783  17.682  0.00  0.00    +0.000 A 
ATOM     32  O   UNL     1       3.156   8.978  17.441  0.00  0.00    +0.000 OA
ATOM     33  C   UNL     1       2.600   7.130  18.832  0.00  0.00    +0.000 A 
ATOM     34  H   UNL     1       4.739   5.091  16.397  0.00  0.00    +0.000 HD
ATOM     35  H   UNL     1       4.574   7.449  16.129  0.00  0.00    +0.000 HD
ENDBRANCH  20  22
ENDBRANCH   4  20
TORSDOF 4
ENDMDL
MODEL 6
REMARK VINA RESULT:      -8.1      3.412      9.539
REMARK  Name = 
REMARK  4 active torsions:
REMARK  status: ('A' for Active; 'I' for Inactive)
REMARK    1  A    between atoms: N_4  and  N_5
REMARK    2  A    between atoms: N_5  and  C_6
REMARK    3  A    between atoms: C_18  and  C_19
REMARK    4  A    between atoms: N_26  and  C_27
REMARK                            x       y       z     vdW  Elec       q    Type
REMARK                         _______ _______ _______ _____ _____    ______ ____
ROOT
ATOM      1  O   UNL     1       3.607   7.479  16.956  0.00  0.00    +0.000 OA
ATOM      2  C   UNL     1       3.702   6.375  17.449  0.00  0.00    +0.000 C 
ATOM      3  C   UNL     1       2.962   5.949  18.668  0.00  0.00    +0.000 C 
ATOM      4  N   UNL     1       2.262   6.674  19.485  0.00  0.00    +0.000 NA
ATOM      5  C   UNL     1       3.245   4.498  18.833  0.00  0.00    +0.000 C 
ATOM      6  N   UNL     1       4.113   4.116  17.931  0.00  0.00    +0.000 NA
ATOM      7  N   UNL     1       4.404   5.231  17.119  0.00  0.00    +0.000 N 
ENDROOT
BRANCH   5   8
ATOM      8  C   UNL     1       2.660   3.645  19.878  0.00  0.00    +0.000 A 
ATOM      9  C   UNL     1       1.278   3.622  20.105  0.00  0.00    +0.000 A 
ATOM     10  C   UNL     1       0.745   2.843  21.134  0.00  0.00    +0.000 A 
ATOM     11  C   UNL     1       1.589   2.078  21.935  0.00  0.00    +0.000 A 
ATOM     12  C   UNL     1       2.964   2.076  21.699  0.00  0.00    +0.000 A 
ATOM     13  C   UNL     1       3.501   2.853  20.669  0.00  0.00    +0.000 A 
ENDBRANCH   5   8
BRANCH   7  14
ATOM     14  C   UNL     1       5.358   5.120  16.080  0.00  0.00    +0.000 A 
ATOM     15  C   UNL     1       6.638   5.694  16.208  0.00  0.00    +0.000 A 
ATOM     16  C   UNL     1       7.592   5.570  15.198  0.00  0.00    +0.000 A 
ATOM     17  C   UNL     1       7.284   4.874  14.035  0.00  0.00    +0.000 A 
ATOM     18  C   UNL     1       6.022   4.303  13.888  0.00  0.00    +0.000 A 
ATOM     19  C   UNL     1       5.067   4.421  14.904  0.00  0.00    +0.000 A 
ENDBRANCH   7  14
BRANCH   4  20
ATOM     20  N   UNL     1       2.209   8.000  19.211  0.00  0.00    +0.000 N 
ATOM     21  H   UNL     1       2.477   8.390  18.286  0.00  0.00    +0.000 HD
BRANCH  20  22
ATOM     22  C   UNL     1       1.443   8.864  20.021  0.00  0.00    +0.000 A 
ATOM     23  C   UNL     1       0.958   8.423  21.266  0.00  0.00    +0.000 A 
ATOM     24  C   UNL     1       0.240   9.269  22.108  0.00  0.00    +0.000 A 
ATOM     25  C   UNL     1       0.022  10.589  21.734  0.00  0.00    +0.000 A 
ATOM     26  C   UNL     1       0.504  11.057  20.505  0.00  0.00    +0.000 A 
ATOM     27  C   UNL     1       0.265  12.468  20.139  0.00  0.00    +0.000 A 
ATOM     28  O   UNL     1      -0.262  13.252  20.918  0.00  0.00    +0.000 OA
ATOM     29  N   UNL     1       0.658  12.857  18.887  0.00  0.00    +0.000 N 
ATOM     30  N   UNL     1       1.312  12.017  18.012  0.00  0.00    +0.000 N 
ATOM     31  C   UNL     1       1.657  10.727  18.331  0.00  0.00    +0.000 A 
ATOM     32  O   UNL     1       2.293  10.042  17.538  0.00  0.00    +0.000 OA
ATOM     33  C   UNL     1       1.203  10.204  19.646  0.00  0.00    +0.000 A 
ATOM     34  H   UNL     1       0.524  13.834  18.634  0.00  0.00    +0.000 HD
ATOM     35  H   UNL     1       1.595  12.365  17.100  0.00  0.00    +0.000 HD
ENDBRANCH  20  22
ENDBRANCH   4  20
TORSDOF 4
ENDMDL
MODEL 7
REMARK VINA RESULT:      -8.1      1.460      2.221
REMARK  Name = 
REMARK  4 active torsions:
REMARK  status: ('A' for Active; 'I' for Inactive)
REMARK    1  A    between atoms: N_4  and  N_5
REMARK    2  A    between atoms: N_5  and  C_6
REMARK    3  A    between atoms: C_18  and  C_19
REMARK    4  A    between atoms: N_26  and  C_27
REMARK                            x       y       z     vdW  Elec       q    Type
REMARK                         _______ _______ _______ _____ _____    ______ ____
ROOT
ATOM      1  O   UNL     1       0.396  10.758  21.897  0.00  0.00    +0.000 OA
ATOM      2  C   UNL     1      -0.471  11.133  21.136  0.00  0.00    +0.000 C 
ATOM      3  C   UNL     1      -0.634  10.614  19.750  0.00  0.00    +0.000 C 
ATOM      4  N   UNL     1       0.165   9.851  19.072  0.00  0.00    +0.000 NA
ATOM      5  C   UNL     1      -1.892  11.217  19.232  0.00  0.00    +0.000 C 
ATOM      6  N   UNL     1      -2.365  12.063  20.112  0.00  0.00    +0.000 NA
ATOM      7  N   UNL     1      -1.515  12.033  21.235  0.00  0.00    +0.000 N 
ENDROOT
BRANCH   5   8
ATOM      8  C   UNL     1      -2.479  10.926  17.917  0.00  0.00    +0.000 A 
ATOM      9  C   UNL     1      -3.669  11.538  17.502  0.00  0.00    +0.000 A 
ATOM     10  C   UNL     1      -4.239  11.211  16.270  0.00  0.00    +0.000 A 
ATOM     11  C   UNL     1      -3.617  10.280  15.442  0.00  0.00    +0.000 A 
ATOM     12  C   UNL     1      -2.417   9.685  15.837  0.00  0.00    +0.000 A 
ATOM     13  C   UNL     1      -1.844  10.011  17.068  0.00  0.00    +0.000 A 
ENDBRANCH   5   8
BRANCH   7  14
ATOM     14  C   UNL     1      -1.761  12.891  22.333  0.00  0.00    +0.000 A 
ATOM     15  C   UNL     1      -0.838  13.892  22.690  0.00  0.00    +0.000 A 
ATOM     16  C   UNL     1      -1.084  14.758  23.757  0.00  0.00    +0.000 A 
ATOM     17  C   UNL     1      -2.256  14.636  24.492  0.00  0.00    +0.000 A 
ATOM     18  C   UNL     1      -3.180  13.649  24.157  0.00  0.00    +0.000 A 
ATOM     19  C   UNL     1      -2.938  12.785  23.083  0.00  0.00    +0.000 A 
ENDBRANCH   7  14
BRANCH   4  20
ATOM     20  N   UNL     1       1.315   9.488  19.693  0.00  0.00    +0.000 N 
ATOM     21  H   UNL     1       1.849  10.138  20.301  0.00  0.00    +0.000 HD
BRANCH  20  22
ATOM     22  C   UNL     1       1.640   8.125  19.850  0.00  0.00    +0.000 A 
ATOM     23  C   UNL     1       1.116   7.392  20.931  0.00  0.00    +0.000 A 
ATOM     24  C   UNL     1       1.382   6.033  21.085  0.00  0.00    +0.000 A 
ATOM     25  C   UNL     1       2.152   5.371  20.137  0.00  0.00    +0.000 A 
ATOM     26  C   UNL     1       2.677   6.074  19.046  0.00  0.00    +0.000 A 
ATOM     27  C   UNL     1       3.485   5.342  18.051  0.00  0.00    +0.000 A 
ATOM     28  O   UNL     1       3.630   4.127  18.110  0.00  0.00    +0.000 OA
ATOM     29  N   UNL     1       4.067   6.084  17.058  0.00  0.00    +0.000 N 
ATOM     30  N   UNL     1       3.871   7.442  16.926  0.00  0.00    +0.000 N 
ATOM     31  C   UNL     1       3.048   8.163  17.755  0.00  0.00    +0.000 A 
ATOM     32  O   UNL     1       2.860   9.357  17.554  0.00  0.00    +0.000 OA
ATOM     33  C   UNL     1       2.434   7.444  18.901  0.00  0.00    +0.000 A 
ATOM     34  H   UNL     1       4.602   5.587  16.350  0.00  0.00    +0.000 HD
ATOM     35  H   UNL     1       4.315   7.940  16.159  0.00  0.00    +0.000 HD
ENDBRANCH  20  22
ENDBRANCH   4  20
TORSDOF 4
ENDMDL
MODEL 8
REMARK VINA RESULT:      -8.0      4.164      7.243
REMARK  Name = 
REMARK  4 active torsions:
REMARK  status: ('A' for Active; 'I' for Inactive)
REMARK    1  A    between atoms: N_4  and  N_5
REMARK    2  A    between atoms: N_5  and  C_6
REMARK    3  A    between atoms: C_18  and  C_19
REMARK    4  A    between atoms: N_26  and  C_27
REMARK                            x       y       z     vdW  Elec       q    Type
REMARK                         _______ _______ _______ _____ _____    ______ ____
ROOT
ATOM      1  O   UNL     1      -0.973  13.674  20.227  0.00  0.00    +0.000 OA
ATOM      2  C   UNL     1      -0.855  12.563  19.755  0.00  0.00    +0.000 C 
ATOM      3  C   UNL     1       0.434  11.821  19.703  0.00  0.00    +0.000 C 
ATOM      4  N   UNL     1       1.628  12.252  19.967  0.00  0.00    +0.000 NA
ATOM      5  C   UNL     1       0.104  10.461  19.196  0.00  0.00    +0.000 C 
ATOM      6  N   UNL     1      -1.164  10.411  18.876  0.00  0.00    +0.000 NA
ATOM      7  N   UNL     1      -1.735  11.662  19.185  0.00  0.00    +0.000 N 
ENDROOT
BRANCH   5   8
ATOM      8  C   UNL     1       1.072   9.366  19.048  0.00  0.00    +0.000 A 
ATOM      9  C   UNL     1       1.790   9.188  17.859  0.00  0.00    +0.000 A 
ATOM     10  C   UNL     1       2.669   8.113  17.719  0.00  0.00    +0.000 A 
ATOM     11  C   UNL     1       2.842   7.215  18.770  0.00  0.00    +0.000 A 
ATOM     12  C   UNL     1       2.149   7.400  19.967  0.00  0.00    +0.000 A 
ATOM     13  C   UNL     1       1.270   8.476  20.111  0.00  0.00    +0.000 A 
ENDBRANCH   5   8
BRANCH   7  14
ATOM     14  C   UNL     1      -3.097  11.910  18.897  0.00  0.00    +0.000 A 
ATOM     15  C   UNL     1      -3.651  11.552  17.653  0.00  0.00    +0.000 A 
ATOM     16  C   UNL     1      -4.999  11.772  17.369  0.00  0.00    +0.000 A 
ATOM     17  C   UNL     1      -5.820  12.362  18.321  0.00  0.00    +0.000 A 
ATOM     18  C   UNL     1      -5.291  12.727  19.557  0.00  0.00    +0.000 A 
ATOM     19  C   UNL     1      -3.941  12.500  19.845  0.00  0.00    +0.000 A 
ENDBRANCH   7  14
BRANCH   4  20
ATOM     20  N   UNL     1       1.728  13.557  20.319  0.00  0.00    +0.000 N 
ATOM     21  H   UNL     1       1.413  13.912  21.243  0.00  0.00    +0.000 HD
BRANCH  20  22
ATOM     22  C   UNL     1       2.593  14.421  19.615  0.00  0.00    +0.000 A 
ATOM     23  C   UNL     1       2.597  14.426  18.208  0.00  0.00    +0.000 A 
ATOM     24  C   UNL     1       3.406  15.302  17.487  0.00  0.00    +0.000 A 
ATOM     25  C   UNL     1       4.204  16.216  18.163  0.00  0.00    +0.000 A 
ATOM     26  C   UNL     1       4.211  16.239  19.563  0.00  0.00    +0.000 A 
ATOM     27  C   UNL     1       5.063  17.228  20.253  0.00  0.00    +0.000 A 
ATOM     28  O   UNL     1       5.690  18.078  19.634  0.00  0.00    +0.000 OA
ATOM     29  N   UNL     1       5.123  17.147  21.619  0.00  0.00    +0.000 N 
ATOM     30  N   UNL     1       4.380  16.244  22.349  0.00  0.00    +0.000 N 
ATOM     31  C   UNL     1       3.491  15.370  21.775  0.00  0.00    +0.000 A 
ATOM     32  O   UNL     1       2.810  14.631  22.476  0.00  0.00    +0.000 OA
ATOM     33  C   UNL     1       3.420  15.345  20.291  0.00  0.00    +0.000 A 
ATOM     34  H   UNL     1       5.684  17.841  22.107  0.00  0.00    +0.000 HD
ATOM     35  H   UNL     1       4.451  16.240  23.363  0.00  0.00    +0.000 HD
ENDBRANCH  20  22
ENDBRANCH   4  20
TORSDOF 4
ENDMDL
MODEL 9
REMARK VINA RESULT:      -8.0      2.361      4.481
REMARK  Name = 
REMARK  4 active torsions:
REMARK  status: ('A' for Active; 'I' for Inactive)
REMARK    1  A    between atoms: N_4  and  N_5
REMARK    2  A    between atoms: N_5  and  C_6
REMARK    3  A    between atoms: C_18  and  C_19
REMARK    4  A    between atoms: N_26  and  C_27
REMARK                            x       y       z     vdW  Elec       q    Type
REMARK                         _______ _______ _______ _____ _____    ______ ____
ROOT
ATOM      1  O   UNL     1      -1.170   9.287  18.472  0.00  0.00    +0.000 OA
ATOM      2  C   UNL     1      -0.849  10.443  18.647  0.00  0.00    +0.000 C 
ATOM      3  C   UNL     1       0.537  10.873  18.976  0.00  0.00    +0.000 C 
ATOM      4  N   UNL     1       1.559  10.140  19.294  0.00  0.00    +0.000 NA
ATOM      5  C   UNL     1       0.521  12.361  18.953  0.00  0.00    +0.000 C 
ATOM      6  N   UNL     1      -0.703  12.781  18.757  0.00  0.00    +0.000 NA
ATOM      7  N   UNL     1      -1.524  11.648  18.596  0.00  0.00    +0.000 N 
ENDROOT
BRANCH   5   8
ATOM      8  C   UNL     1       1.701  13.214  19.157  0.00  0.00    +0.000 A 
ATOM      9  C   UNL     1       2.474  13.653  18.074  0.00  0.00    +0.000 A 
ATOM     10  C   UNL     1       3.619  14.421  18.291  0.00  0.00    +0.000 A 
ATOM     11  C   UNL     1       3.992  14.763  19.589  0.00  0.00    +0.000 A 
ATOM     12  C   UNL     1       3.213  14.350  20.671  0.00  0.00    +0.000 A 
ATOM     13  C   UNL     1       2.065  13.582  20.458  0.00  0.00    +0.000 A 
ENDBRANCH   5   8
BRANCH   7  14
ATOM     14  C   UNL     1      -2.919  11.803  18.415  0.00  0.00    +0.000 A 
ATOM     15  C   UNL     1      -3.533  11.463  17.194  0.00  0.00    +0.000 A 
ATOM     16  C   UNL     1      -4.910  11.592  17.015  0.00  0.00    +0.000 A 
ATOM     17  C   UNL     1      -5.702  12.070  18.051  0.00  0.00    +0.000 A 
ATOM     18  C   UNL     1      -5.114  12.416  19.265  0.00  0.00    +0.000 A 
ATOM     19  C   UNL     1      -3.733  12.280  19.448  0.00  0.00    +0.000 A 
ENDBRANCH   7  14
BRANCH   4  20
ATOM     20  N   UNL     1       1.340   8.804  19.357  0.00  0.00    +0.000 N 
ATOM     21  H   UNL     1       0.404   8.401  19.562  0.00  0.00    +0.000 HD
BRANCH  20  22
ATOM     22  C   UNL     1       2.262   7.903  18.786  0.00  0.00    +0.000 A 
ATOM     23  C   UNL     1       2.961   8.253  17.616  0.00  0.00    +0.000 A 
ATOM     24  C   UNL     1       3.913   7.403  17.056  0.00  0.00    +0.000 A 
ATOM     25  C   UNL     1       4.208   6.196  17.678  0.00  0.00    +0.000 A 
ATOM     26  C   UNL     1       3.534   5.829  18.848  0.00  0.00    +0.000 A 
ATOM     27  C   UNL     1       3.875   4.544  19.491  0.00  0.00    +0.000 A 
ATOM     28  O   UNL     1       4.789   3.842  19.077  0.00  0.00    +0.000 OA
ATOM     29  N   UNL     1       3.121   4.172  20.572  0.00  0.00    +0.000 N 
ATOM     30  N   UNL     1       2.130   4.970  21.103  0.00  0.00    +0.000 N 
ATOM     31  C   UNL     1       1.834   6.219  20.617  0.00  0.00    +0.000 A 
ATOM     32  O   UNL     1       0.985   6.912  21.165  0.00  0.00    +0.000 OA
ATOM     33  C   UNL     1       2.560   6.667  19.400  0.00  0.00    +0.000 A 
ATOM     34  H   UNL     1       3.366   3.303  21.041  0.00  0.00    +0.000 HD
ATOM     35  H   UNL     1       1.612   4.650  21.917  0.00  0.00    +0.000 HD
ENDBRANCH  20  22
ENDBRANCH   4  20
TORSDOF 4
ENDMDL
