MODEL 1
REMARK VINA RESULT:      -7.1      0.000      0.000
REMARK  Name = 
REMARK  9 active torsions:
REMARK  status: ('A' for Active; 'I' for Inactive)
REMARK    1  A    between atoms: C_1  and  O_2
REMARK    2  A    between atoms: O_2  and  C_3
REMARK    3  A    between atoms: C_3  and  C_5
REMARK    4  A    between atoms: C_5  and  N_6
REMARK    5  A    between atoms: C_7  and  C_9
REMARK    6  A    between atoms: C_9  and  N_10
REMARK    7  A    between atoms: N_13  and  C_14
REMARK    8  A    between atoms: C_18  and  S_19
REMARK    9  A    between atoms: S_19  and  N_20
REMARK                            x       y       z     vdW  Elec       q    Type
REMARK                         _______ _______ _______ _____ _____    ______ ____
ROOT
ATOM      1  N   UNL     1       1.568   9.031  19.073  0.00  0.00    +0.000 N 
ATOM      2  C   UNL     1       2.260   8.193  18.237  0.00  0.00    +0.000 C 
ATOM      3  O   UNL     1       2.545   8.552  17.098  0.00  0.00    +0.000 OA
ATOM      4  N   UNL     1       2.551   6.974  18.813  0.00  0.00    +0.000 N 
ATOM      5  H   UNL     1       1.745   8.957  20.065  0.00  0.00    +0.000 HD
ATOM      6  H   UNL     1       2.040   6.743  19.652  0.00  0.00    +0.000 HD
ENDROOT
BRANCH   4   7
ATOM      7  C   UNL     1       3.258   5.926  18.170  0.00  0.00    +0.000 A 
ATOM      8  C   UNL     1       2.627   4.744  17.762  0.00  0.00    +0.000 A 
ATOM      9  C   UNL     1       3.341   3.702  17.171  0.00  0.00    +0.000 A 
ATOM     10  C   UNL     1       4.706   3.830  16.969  0.00  0.00    +0.000 A 
ATOM     11  C   UNL     1       5.343   5.011  17.353  0.00  0.00    +0.000 A 
ATOM     12  C   UNL     1       4.632   6.069  17.945  0.00  0.00    +0.000 A 
BRANCH  11  13
ATOM     13  S   UNL     1       7.095   5.116  17.138  0.00  0.00    +0.000 S 
ATOM     14  O   UNL     1       7.750   4.703  18.358  0.00  0.00    +0.000 OA
ATOM     15  O   UNL     1       7.450   4.582  15.848  0.00  0.00    +0.000 OA
BRANCH  13  16
ATOM     16  N   UNL     1       7.315   6.776  17.028  0.00  0.00    +0.000 NA
ATOM     17  H   UNL     1       7.831   7.004  16.178  0.00  0.00    +0.000 HD
ATOM     18  H   UNL     1       6.418   7.253  17.110  0.00  0.00    +0.000 HD
ENDBRANCH  13  16
ENDBRANCH  11  13
ENDBRANCH   4   7
BRANCH   1  19
ATOM     19  C   UNL     1       1.127  10.331  18.574  0.00  0.00    +0.000 C 
BRANCH  19  21
ATOM     20  N   UNL     1      -0.989  11.241  17.733  0.00  0.00    +0.000 N 
ATOM     21  C   UNL     1      -0.375  10.570  18.760  0.00  0.00    +0.000 C 
ATOM     22  O   UNL     1      -0.991  10.140  19.733  0.00  0.00    +0.000 OA
ATOM     23  H   UNL     1      -0.448  11.475  16.897  0.00  0.00    +0.000 HD
BRANCH  20  24
ATOM     24  C   UNL     1      -2.420  11.510  17.725  0.00  0.00    +0.000 C 
BRANCH  24  25
ATOM     25  C   UNL     1      -3.127  10.991  16.476  0.00  0.00    +0.000 C 
ATOM     26  O   UNL     1      -2.567  10.778  15.406  0.00  0.00    +0.000 OA
BRANCH  25  28
ATOM     27  C   UNL     1      -5.167  11.972  17.113  0.00  0.00    +0.000 C 
ATOM     28  O   UNL     1      -4.457  10.799  16.711  0.00  0.00    +0.000 OA
ENDBRANCH  25  28
ENDBRANCH  24  25
ENDBRANCH  20  24
ENDBRANCH  19  21
ENDBRANCH   1  19
TORSDOF 8
ENDMDL
MODEL 2
REMARK VINA RESULT:      -7.0      2.126      3.470
REMARK  Name = 
REMARK  9 active torsions:
REMARK  status: ('A' for Active; 'I' for Inactive)
REMARK    1  A    between atoms: C_1  and  O_2
REMARK    2  A    between atoms: O_2  and  C_3
REMARK    3  A    between atoms: C_3  and  C_5
REMARK    4  A    between atoms: C_5  and  N_6
REMARK    5  A    between atoms: C_7  and  C_9
REMARK    6  A    between atoms: C_9  and  N_10
REMARK    7  A    between atoms: N_13  and  C_14
REMARK    8  A    between atoms: C_18  and  S_19
REMARK    9  A    between atoms: S_19  and  N_20
REMARK                            x       y       z     vdW  Elec       q    Type
REMARK                         _______ _______ _______ _____ _____    ______ ____
ROOT
ATOM      1  N   UNL     1       1.509   9.091  19.101  0.00  0.00    +0.000 N 
ATOM      2  C   UNL     1       2.227   8.303  18.239  0.00  0.00    +0.000 C 
ATOM      3  O   UNL     1       2.485   8.700  17.106  0.00  0.00    +0.000 OA
ATOM      4  N   UNL     1       2.575   7.084  18.783  0.00  0.00    +0.000 N 
ATOM      5  H   UNL     1       1.699   9.002  20.089  0.00  0.00    +0.000 HD
ATOM      6  H   UNL     1       2.083   6.813  19.622  0.00  0.00    +0.000 HD
ENDROOT
BRANCH   4   7
ATOM      7  C   UNL     1       3.320   6.083  18.110  0.00  0.00    +0.000 A 
ATOM      8  C   UNL     1       2.771   4.832  17.796  0.00  0.00    +0.000 A 
ATOM      9  C   UNL     1       3.526   3.839  17.173  0.00  0.00    +0.000 A 
ATOM     10  C   UNL     1       4.849   4.085  16.844  0.00  0.00    +0.000 A 
ATOM     11  C   UNL     1       5.402   5.334  17.132  0.00  0.00    +0.000 A 
ATOM     12  C   UNL     1       4.648   6.343  17.755  0.00  0.00    +0.000 A 
BRANCH  11  13
ATOM     13  S   UNL     1       7.110   5.592  16.755  0.00  0.00    +0.000 S 
ATOM     14  O   UNL     1       7.421   6.996  16.890  0.00  0.00    +0.000 OA
ATOM     15  O   UNL     1       7.897   4.559  17.381  0.00  0.00    +0.000 OA
BRANCH  13  16
ATOM     16  N   UNL     1       7.138   5.262  15.111  0.00  0.00    +0.000 NA
ATOM     17  H   UNL     1       6.343   5.708  14.651  0.00  0.00    +0.000 HD
ATOM     18  H   UNL     1       8.044   5.519  14.718  0.00  0.00    +0.000 HD
ENDBRANCH  13  16
ENDBRANCH  11  13
ENDBRANCH   4   7
BRANCH   1  19
ATOM     19  C   UNL     1       1.008  10.382  18.636  0.00  0.00    +0.000 C 
BRANCH  19  21
ATOM     20  N   UNL     1      -0.234  11.349  20.517  0.00  0.00    +0.000 N 
ATOM     21  C   UNL     1      -0.329  10.775  19.274  0.00  0.00    +0.000 C 
ATOM     22  O   UNL     1      -1.400  10.638  18.687  0.00  0.00    +0.000 OA
ATOM     23  H   UNL     1       0.692  11.541  20.907  0.00  0.00    +0.000 HD
BRANCH  20  24
ATOM     24  C   UNL     1      -1.401  11.826  21.245  0.00  0.00    +0.000 C 
BRANCH  24  25
ATOM     25  C   UNL     1      -1.380  11.465  22.727  0.00  0.00    +0.000 C 
ATOM     26  O   UNL     1      -2.313  11.666  23.497  0.00  0.00    +0.000 OA
BRANCH  25  28
ATOM     27  C   UNL     1      -0.254   9.490  23.325  0.00  0.00    +0.000 C 
ATOM     28  O   UNL     1      -0.191  10.895  23.075  0.00  0.00    +0.000 OA
ENDBRANCH  25  28
ENDBRANCH  24  25
ENDBRANCH  20  24
ENDBRANCH  19  21
ENDBRANCH   1  19
TORSDOF 8
ENDMDL
MODEL 3
REMARK VINA RESULT:      -6.9      2.115      3.177
REMARK  Name = 
REMARK  9 active torsions:
REMARK  status: ('A' for Active; 'I' for Inactive)
REMARK    1  A    between atoms: C_1  and  O_2
REMARK    2  A    between atoms: O_2  and  C_3
REMARK    3  A    between atoms: C_3  and  C_5
REMARK    4  A    between atoms: C_5  and  N_6
REMARK    5  A    between atoms: C_7  and  C_9
REMARK    6  A    between atoms: C_9  and  N_10
REMARK    7  A    between atoms: N_13  and  C_14
REMARK    8  A    between atoms: C_18  and  S_19
REMARK    9  A    between atoms: S_19  and  N_20
REMARK                            x       y       z     vdW  Elec       q    Type
REMARK                         _______ _______ _______ _____ _____    ______ ____
ROOT
ATOM      1  N   UNL     1       1.663   8.900  19.205  0.00  0.00    +0.000 N 
ATOM      2  C   UNL     1       2.306   8.074  18.320  0.00  0.00    +0.000 C 
ATOM      3  O   UNL     1       2.451   8.415  17.149  0.00  0.00    +0.000 OA
ATOM      4  N   UNL     1       2.719   6.888  18.889  0.00  0.00    +0.000 N 
ATOM      5  H   UNL     1       1.946   8.863  20.174  0.00  0.00    +0.000 HD
ATOM      6  H   UNL     1       2.312   6.656  19.783  0.00  0.00    +0.000 HD
ENDROOT
BRANCH   4   7
ATOM      7  C   UNL     1       3.410   5.859  18.200  0.00  0.00    +0.000 A 
ATOM      8  C   UNL     1       2.755   4.718  17.718  0.00  0.00    +0.000 A 
ATOM      9  C   UNL     1       3.451   3.692  17.080  0.00  0.00    +0.000 A 
ATOM     10  C   UNL     1       4.822   3.795  16.905  0.00  0.00    +0.000 A 
ATOM     11  C   UNL     1       5.483   4.936  17.362  0.00  0.00    +0.000 A 
ATOM     12  C   UNL     1       4.790   5.978  18.001  0.00  0.00    +0.000 A 
BRANCH  11  13
ATOM     13  S   UNL     1       7.240   5.007  17.178  0.00  0.00    +0.000 S 
ATOM     14  O   UNL     1       7.864   4.702  18.444  0.00  0.00    +0.000 OA
ATOM     15  O   UNL     1       7.617   4.354  15.950  0.00  0.00    +0.000 OA
BRANCH  13  16
ATOM     16  N   UNL     1       7.479   6.648  16.921  0.00  0.00    +0.000 NA
ATOM     17  H   UNL     1       6.677   7.176  17.267  0.00  0.00    +0.000 HD
ATOM     18  H   UNL     1       8.372   6.937  17.320  0.00  0.00    +0.000 HD
ENDBRANCH  13  16
ENDBRANCH  11  13
ENDBRANCH   4   7
BRANCH   1  19
ATOM     19  C   UNL     1       1.104  10.162  18.725  0.00  0.00    +0.000 C 
BRANCH  19  21
ATOM     20  N   UNL     1       0.078  11.449  20.543  0.00  0.00    +0.000 N 
ATOM     21  C   UNL     1      -0.150  10.596  19.493  0.00  0.00    +0.000 C 
ATOM     22  O   UNL     1      -1.278  10.251  19.152  0.00  0.00    +0.000 OA
ATOM     23  H   UNL     1       1.028  11.791  20.709  0.00  0.00    +0.000 HD
BRANCH  20  24
ATOM     24  C   UNL     1      -1.003  11.998  21.349  0.00  0.00    +0.000 C 
BRANCH  24  25
ATOM     25  C   UNL     1      -1.142  11.330  22.714  0.00  0.00    +0.000 C 
ATOM     26  O   UNL     1      -0.268  10.647  23.237  0.00  0.00    +0.000 OA
BRANCH  25  28
ATOM     27  C   UNL     1      -2.615  12.977  23.517  0.00  0.00    +0.000 C 
ATOM     28  O   UNL     1      -2.361  11.594  23.266  0.00  0.00    +0.000 OA
ENDBRANCH  25  28
ENDBRANCH  24  25
ENDBRANCH  20  24
ENDBRANCH  19  21
ENDBRANCH   1  19
TORSDOF 8
ENDMDL
MODEL 4
REMARK VINA RESULT:      -6.9      2.272      3.345
REMARK  Name = 
REMARK  9 active torsions:
REMARK  status: ('A' for Active; 'I' for Inactive)
REMARK    1  A    between atoms: C_1  and  O_2
REMARK    2  A    between atoms: O_2  and  C_3
REMARK    3  A    between atoms: C_3  and  C_5
REMARK    4  A    between atoms: C_5  and  N_6
REMARK    5  A    between atoms: C_7  and  C_9
REMARK    6  A    between atoms: C_9  and  N_10
REMARK    7  A    between atoms: N_13  and  C_14
REMARK    8  A    between atoms: C_18  and  S_19
REMARK    9  A    between atoms: S_19  and  N_20
REMARK                            x       y       z     vdW  Elec       q    Type
REMARK                         _______ _______ _______ _____ _____    ______ ____
ROOT
ATOM      1  N   UNL     1       1.267   9.190  19.090  0.00  0.00    +0.000 N 
ATOM      2  C   UNL     1       2.054   8.421  18.272  0.00  0.00    +0.000 C 
ATOM      3  O   UNL     1       2.390   8.838  17.167  0.00  0.00    +0.000 OA
ATOM      4  N   UNL     1       2.374   7.198  18.824  0.00  0.00    +0.000 N 
ATOM      5  H   UNL     1       1.384   9.089  20.088  0.00  0.00    +0.000 HD
ATOM      6  H   UNL     1       1.824   6.910  19.620  0.00  0.00    +0.000 HD
ENDROOT
BRANCH   4   7
ATOM      7  C   UNL     1       3.177   6.214  18.193  0.00  0.00    +0.000 A 
ATOM      8  C   UNL     1       2.659   4.973  17.800  0.00  0.00    +0.000 A 
ATOM      9  C   UNL     1       3.468   3.995  17.220  0.00  0.00    +0.000 A 
ATOM     10  C   UNL     1       4.815   4.248  17.016  0.00  0.00    +0.000 A 
ATOM     11  C   UNL     1       5.338   5.488  17.385  0.00  0.00    +0.000 A 
ATOM     12  C   UNL     1       4.531   6.482  17.964  0.00  0.00    +0.000 A 
BRANCH  11  13
ATOM     13  S   UNL     1       7.073   5.754  17.167  0.00  0.00    +0.000 S 
ATOM     14  O   UNL     1       7.385   5.730  15.757  0.00  0.00    +0.000 OA
ATOM     15  O   UNL     1       7.505   6.817  18.040  0.00  0.00    +0.000 OA
BRANCH  13  16
ATOM     16  N   UNL     1       7.706   4.341  17.812  0.00  0.00    +0.000 NA
ATOM     17  H   UNL     1       6.958   3.669  17.984  0.00  0.00    +0.000 HD
ATOM     18  H   UNL     1       8.453   3.988  17.214  0.00  0.00    +0.000 HD
ENDBRANCH  13  16
ENDBRANCH  11  13
ENDBRANCH   4   7
BRANCH   1  19
ATOM     19  C   UNL     1       0.787  10.483  18.607  0.00  0.00    +0.000 C 
BRANCH  19  21
ATOM     20  N   UNL     1       0.323  11.573  20.754  0.00  0.00    +0.000 N 
ATOM     21  C   UNL     1      -0.208  11.152  19.562  0.00  0.00    +0.000 C 
ATOM     22  O   UNL     1      -1.381  11.347  19.253  0.00  0.00    +0.000 OA
ATOM     23  H   UNL     1       1.330  11.485  20.909  0.00  0.00    +0.000 HD
BRANCH  20  24
ATOM     24  C   UNL     1      -0.470  12.270  21.756  0.00  0.00    +0.000 C 
BRANCH  24  25
ATOM     25  C   UNL     1      -0.948  11.366  22.889  0.00  0.00    +0.000 C 
ATOM     26  O   UNL     1      -0.296  10.433  23.346  0.00  0.00    +0.000 OA
BRANCH  25  28
ATOM     27  C   UNL     1      -2.958  12.465  22.362  0.00  0.00    +0.000 C 
ATOM     28  O   UNL     1      -2.190  11.733  23.317  0.00  0.00    +0.000 OA
ENDBRANCH  25  28
ENDBRANCH  24  25
ENDBRANCH  20  24
ENDBRANCH  19  21
ENDBRANCH   1  19
TORSDOF 8
ENDMDL
MODEL 5
REMARK VINA RESULT:      -6.9      4.043      8.915
REMARK  Name = 
REMARK  9 active torsions:
REMARK  status: ('A' for Active; 'I' for Inactive)
REMARK    1  A    between atoms: C_1  and  O_2
REMARK    2  A    between atoms: O_2  and  C_3
REMARK    3  A    between atoms: C_3  and  C_5
REMARK    4  A    between atoms: C_5  and  N_6
REMARK    5  A    between atoms: C_7  and  C_9
REMARK    6  A    between atoms: C_9  and  N_10
REMARK    7  A    between atoms: N_13  and  C_14
REMARK    8  A    between atoms: C_18  and  S_19
REMARK    9  A    between atoms: S_19  and  N_20
REMARK                            x       y       z     vdW  Elec       q    Type
REMARK                         _______ _______ _______ _____ _____    ______ ____
ROOT
ATOM      1  N   UNL     1       3.344   5.298  20.153  0.00  0.00    +0.000 N 
ATOM      2  C   UNL     1       2.729   6.352  19.528  0.00  0.00    +0.000 C 
ATOM      3  O   UNL     1       2.645   6.381  18.303  0.00  0.00    +0.000 OA
ATOM      4  N   UNL     1       2.270   7.310  20.408  0.00  0.00    +0.000 N 
ATOM      5  H   UNL     1       3.015   5.040  21.073  0.00  0.00    +0.000 HD
ATOM      6  H   UNL     1       2.632   7.261  21.349  0.00  0.00    +0.000 HD
ENDROOT
BRANCH   4   7
ATOM      7  C   UNL     1       1.596   8.498  20.027  0.00  0.00    +0.000 A 
ATOM      8  C   UNL     1       1.485   8.894  18.688  0.00  0.00    +0.000 A 
ATOM      9  C   UNL     1       0.857  10.086  18.329  0.00  0.00    +0.000 A 
ATOM     10  C   UNL     1       0.320  10.904  19.310  0.00  0.00    +0.000 A 
ATOM     11  C   UNL     1       0.406  10.511  20.646  0.00  0.00    +0.000 A 
ATOM     12  C   UNL     1       1.031   9.308  21.018  0.00  0.00    +0.000 A 
BRANCH  11  13
ATOM     13  S   UNL     1      -0.236  11.607  21.876  0.00  0.00    +0.000 S 
ATOM     14  O   UNL     1      -0.421  10.882  23.111  0.00  0.00    +0.000 OA
ATOM     15  O   UNL     1       0.472  12.861  21.812  0.00  0.00    +0.000 OA
BRANCH  13  16
ATOM     16  N   UNL     1      -1.773  11.913  21.277  0.00  0.00    +0.000 NA
ATOM     17  H   UNL     1      -2.473  11.450  21.858  0.00  0.00    +0.000 HD
ATOM     18  H   UNL     1      -1.915  12.917  21.175  0.00  0.00    +0.000 HD
ENDBRANCH  13  16
ENDBRANCH  11  13
ENDBRANCH   4   7
BRANCH   1  19
ATOM     19  C   UNL     1       3.946   4.241  19.344  0.00  0.00    +0.000 C 
BRANCH  19  21
ATOM     20  N   UNL     1       5.755   4.209  17.689  0.00  0.00    +0.000 N 
ATOM     21  C   UNL     1       5.408   4.519  18.979  0.00  0.00    +0.000 C 
ATOM     22  O   UNL     1       6.193   5.036  19.771  0.00  0.00    +0.000 OA
ATOM     23  H   UNL     1       5.030   3.887  17.042  0.00  0.00    +0.000 HD
BRANCH  20  24
ATOM     24  C   UNL     1       7.089   4.454  17.161  0.00  0.00    +0.000 C 
BRANCH  24  25
ATOM     25  C   UNL     1       7.135   5.569  16.120  0.00  0.00    +0.000 C 
ATOM     26  O   UNL     1       7.576   5.431  14.984  0.00  0.00    +0.000 OA
BRANCH  25  28
ATOM     27  C   UNL     1       7.525   7.469  17.447  0.00  0.00    +0.000 C 
ATOM     28  O   UNL     1       6.624   6.729  16.623  0.00  0.00    +0.000 OA
ENDBRANCH  25  28
ENDBRANCH  24  25
ENDBRANCH  20  24
ENDBRANCH  19  21
ENDBRANCH   1  19
TORSDOF 8
ENDMDL
MODEL 6
REMARK VINA RESULT:      -6.8      6.299      8.692
REMARK  Name = 
REMARK  9 active torsions:
REMARK  status: ('A' for Active; 'I' for Inactive)
REMARK    1  A    between atoms: C_1  and  O_2
REMARK    2  A    between atoms: O_2  and  C_3
REMARK    3  A    between atoms: C_3  and  C_5
REMARK    4  A    between atoms: C_5  and  N_6
REMARK    5  A    between atoms: C_7  and  C_9
REMARK    6  A    between atoms: C_9  and  N_10
REMARK    7  A    between atoms: N_13  and  C_14
REMARK    8  A    between atoms: C_18  and  S_19
REMARK    9  A    between atoms: S_19  and  N_20
REMARK                            x       y       z     vdW  Elec       q    Type
REMARK                         _______ _______ _______ _____ _____    ______ ____
ROOT
ATOM      1  N   UNL     1       8.103   8.999  17.975  0.00  0.00    +0.000 N 
ATOM      2  C   UNL     1       7.758   7.675  17.888  0.00  0.00    +0.000 C 
ATOM      3  O   UNL     1       8.205   6.865  18.695  0.00  0.00    +0.000 OA
ATOM      4  N   UNL     1       6.914   7.404  16.831  0.00  0.00    +0.000 N 
ATOM      5  H   UNL     1       7.427   9.683  17.665  0.00  0.00    +0.000 HD
ATOM      6  H   UNL     1       6.840   8.121  16.124  0.00  0.00    +0.000 HD
ENDROOT
BRANCH   4   7
ATOM      7  C   UNL     1       6.403   6.120  16.515  0.00  0.00    +0.000 A 
ATOM      8  C   UNL     1       6.892   5.370  15.437  0.00  0.00    +0.000 A 
ATOM      9  C   UNL     1       6.352   4.126  15.108  0.00  0.00    +0.000 A 
ATOM     10  C   UNL     1       5.313   3.606  15.863  0.00  0.00    +0.000 A 
ATOM     11  C   UNL     1       4.831   4.334  16.952  0.00  0.00    +0.000 A 
ATOM     12  C   UNL     1       5.371   5.585  17.294  0.00  0.00    +0.000 A 
BRANCH  11  13
ATOM     13  S   UNL     1       3.463   3.669  17.854  0.00  0.00    +0.000 S 
ATOM     14  O   UNL     1       3.320   4.387  19.099  0.00  0.00    +0.000 OA
ATOM     15  O   UNL     1       2.360   3.450  16.954  0.00  0.00    +0.000 OA
BRANCH  13  16
ATOM     16  N   UNL     1       4.042   2.147  18.255  0.00  0.00    +0.000 NA
ATOM     17  H   UNL     1       4.384   1.671  17.419  0.00  0.00    +0.000 HD
ATOM     18  H   UNL     1       4.732   2.221  19.003  0.00  0.00    +0.000 HD
ENDBRANCH  13  16
ENDBRANCH  11  13
ENDBRANCH   4   7
BRANCH   1  19
ATOM     19  C   UNL     1       9.051   9.422  19.003  0.00  0.00    +0.000 C 
BRANCH  19  21
ATOM     20  N   UNL     1       9.450  11.534  17.822  0.00  0.00    +0.000 N 
ATOM     21  C   UNL     1       9.258  10.940  19.044  0.00  0.00    +0.000 C 
ATOM     22  O   UNL     1       9.196  11.581  20.090  0.00  0.00    +0.000 OA
ATOM     23  H   UNL     1       9.378  10.965  16.975  0.00  0.00    +0.000 HD
BRANCH  20  24
ATOM     24  C   UNL     1       9.614  12.973  17.674  0.00  0.00    +0.000 C 
BRANCH  24  25
ATOM     25  C   UNL     1      11.037  13.387  17.309  0.00  0.00    +0.000 C 
ATOM     26  O   UNL     1      12.004  12.634  17.349  0.00  0.00    +0.000 OA
BRANCH  25  28
ATOM     27  C   UNL     1      10.172  15.549  17.631  0.00  0.00    +0.000 C 
ATOM     28  O   UNL     1      11.085  14.698  16.937  0.00  0.00    +0.000 OA
ENDBRANCH  25  28
ENDBRANCH  24  25
ENDBRANCH  20  24
ENDBRANCH  19  21
ENDBRANCH   1  19
TORSDOF 8
ENDMDL
MODEL 7
REMARK VINA RESULT:      -6.8      5.518      8.843
REMARK  Name = 
REMARK  9 active torsions:
REMARK  status: ('A' for Active; 'I' for Inactive)
REMARK    1  A    between atoms: C_1  and  O_2
REMARK    2  A    between atoms: O_2  and  C_3
REMARK    3  A    between atoms: C_3  and  C_5
REMARK    4  A    between atoms: C_5  and  N_6
REMARK    5  A    between atoms: C_7  and  C_9
REMARK    6  A    between atoms: C_9  and  N_10
REMARK    7  A    between atoms: N_13  and  C_14
REMARK    8  A    between atoms: C_18  and  S_19
REMARK    9  A    between atoms: S_19  and  N_20
REMARK                            x       y       z     vdW  Elec       q    Type
REMARK                         _______ _______ _______ _____ _____    ______ ____
ROOT
ATOM      1  N   UNL     1       5.891   5.786  15.839  0.00  0.00    +0.000 N 
ATOM      2  C   UNL     1       5.338   5.469  17.052  0.00  0.00    +0.000 C 
ATOM      3  O   UNL     1       5.963   4.784  17.857  0.00  0.00    +0.000 OA
ATOM      4  N   UNL     1       4.066   5.977  17.217  0.00  0.00    +0.000 N 
ATOM      5  H   UNL     1       5.628   6.665  15.417  0.00  0.00    +0.000 HD
ATOM      6  H   UNL     1       3.603   6.301  16.380  0.00  0.00    +0.000 HD
ENDROOT
BRANCH   4   7
ATOM      7  C   UNL     1       3.270   5.801  18.377  0.00  0.00    +0.000 A 
ATOM      8  C   UNL     1       2.662   6.880  19.032  0.00  0.00    +0.000 A 
ATOM      9  C   UNL     1       1.917   6.701  20.197  0.00  0.00    +0.000 A 
ATOM     10  C   UNL     1       1.761   5.429  20.725  0.00  0.00    +0.000 A 
ATOM     11  C   UNL     1       2.345   4.343  20.071  0.00  0.00    +0.000 A 
ATOM     12  C   UNL     1       3.092   4.513  18.893  0.00  0.00    +0.000 A 
BRANCH  11  13
ATOM     13  S   UNL     1       2.178   2.744  20.806  0.00  0.00    +0.000 S 
ATOM     14  O   UNL     1       3.454   2.330  21.341  0.00  0.00    +0.000 OA
ATOM     15  O   UNL     1       0.962   2.699  21.578  0.00  0.00    +0.000 OA
BRANCH  13  16
ATOM     16  N   UNL     1       1.904   1.787  19.456  0.00  0.00    +0.000 NA
ATOM     17  H   UNL     1       0.941   1.901  19.136  0.00  0.00    +0.000 HD
ATOM     18  H   UNL     1       2.605   1.982  18.741  0.00  0.00    +0.000 HD
ENDBRANCH  13  16
ENDBRANCH  11  13
ENDBRANCH   4   7
BRANCH   1  19
ATOM     19  C   UNL     1       7.207   5.253  15.494  0.00  0.00    +0.000 C 
BRANCH  19  21
ATOM     20  N   UNL     1       6.528   3.998  13.499  0.00  0.00    +0.000 N 
ATOM     21  C   UNL     1       7.367   4.963  13.998  0.00  0.00    +0.000 C 
ATOM     22  O   UNL     1       8.149   5.592  13.289  0.00  0.00    +0.000 OA
ATOM     23  H   UNL     1       5.819   3.590  14.113  0.00  0.00    +0.000 HD
BRANCH  20  24
ATOM     24  C   UNL     1       6.513   3.632  12.090  0.00  0.00    +0.000 C 
BRANCH  24  25
ATOM     25  C   UNL     1       5.273   2.842  11.682  0.00  0.00    +0.000 C 
ATOM     26  O   UNL     1       4.156   3.333  11.556  0.00  0.00    +0.000 OA
BRANCH  25  28
ATOM     27  C   UNL     1       6.872   1.291  10.932  0.00  0.00    +0.000 C 
ATOM     28  O   UNL     1       5.575   1.528  11.480  0.00  0.00    +0.000 OA
ENDBRANCH  25  28
ENDBRANCH  24  25
ENDBRANCH  20  24
ENDBRANCH  19  21
ENDBRANCH   1  19
TORSDOF 8
ENDMDL
MODEL 8
REMARK VINA RESULT:      -6.8      3.471      3.791
REMARK  Name = 
REMARK  9 active torsions:
REMARK  status: ('A' for Active; 'I' for Inactive)
REMARK    1  A    between atoms: C_1  and  O_2
REMARK    2  A    between atoms: O_2  and  C_3
REMARK    3  A    between atoms: C_3  and  C_5
REMARK    4  A    between atoms: C_5  and  N_6
REMARK    5  A    between atoms: C_7  and  C_9
REMARK    6  A    between atoms: C_9  and  N_10
REMARK    7  A    between atoms: N_13  and  C_14
REMARK    8  A    between atoms: C_18  and  S_19
REMARK    9  A    between atoms: S_19  and  N_20
REMARK                            x       y       z     vdW  Elec       q    Type
REMARK                         _______ _______ _______ _____ _____    ______ ____
ROOT
ATOM      1  N   UNL     1       1.592   8.316  20.035  0.00  0.00    +0.000 N 
ATOM      2  C   UNL     1       2.207   7.139  19.698  0.00  0.00    +0.000 C 
ATOM      3  O   UNL     1       2.203   6.192  20.480  0.00  0.00    +0.000 OA
ATOM      4  N   UNL     1       2.803   7.176  18.455  0.00  0.00    +0.000 N 
ATOM      5  H   UNL     1       1.195   8.870  19.289  0.00  0.00    +0.000 HD
ATOM      6  H   UNL     1       2.932   8.092  18.049  0.00  0.00    +0.000 HD
ENDROOT
BRANCH   4   7
ATOM      7  C   UNL     1       3.504   6.095  17.862  0.00  0.00    +0.000 A 
ATOM      8  C   UNL     1       2.912   4.839  17.674  0.00  0.00    +0.000 A 
ATOM      9  C   UNL     1       3.624   3.771  17.130  0.00  0.00    +0.000 A 
ATOM     10  C   UNL     1       4.946   3.945  16.755  0.00  0.00    +0.000 A 
ATOM     11  C   UNL     1       5.542   5.196  16.918  0.00  0.00    +0.000 A 
ATOM     12  C   UNL     1       4.831   6.281  17.460  0.00  0.00    +0.000 A 
BRANCH  11  13
ATOM     13  S   UNL     1       7.248   5.366  16.487  0.00  0.00    +0.000 S 
ATOM     14  O   UNL     1       7.648   6.743  16.658  0.00  0.00    +0.000 OA
ATOM     15  O   UNL     1       7.992   4.267  17.048  0.00  0.00    +0.000 OA
BRANCH  13  16
ATOM     16  N   UNL     1       7.199   5.094  14.832  0.00  0.00    +0.000 NA
ATOM     17  H   UNL     1       6.424   4.470  14.604  0.00  0.00    +0.000 HD
ATOM     18  H   UNL     1       7.179   5.983  14.333  0.00  0.00    +0.000 HD
ENDBRANCH  13  16
ENDBRANCH  11  13
ENDBRANCH   4   7
BRANCH   1  19
ATOM     19  C   UNL     1       0.980   8.448  21.355  0.00  0.00    +0.000 C 
BRANCH  19  21
ATOM     20  N   UNL     1       0.685  10.794  20.706  0.00  0.00    +0.000 N 
ATOM     21  C   UNL     1       0.703   9.903  21.749  0.00  0.00    +0.000 C 
ATOM     22  O   UNL     1       0.459  10.233  22.907  0.00  0.00    +0.000 OA
ATOM     23  H   UNL     1       0.783  10.444  19.750  0.00  0.00    +0.000 HD
BRANCH  20  24
ATOM     24  C   UNL     1       0.389  12.207  20.896  0.00  0.00    +0.000 C 
BRANCH  24  25
ATOM     25  C   UNL     1       1.619  13.104  20.787  0.00  0.00    +0.000 C 
ATOM     26  O   UNL     1       1.967  13.902  21.652  0.00  0.00    +0.000 OA
BRANCH  25  28
ATOM     27  C   UNL     1       1.781  13.670  18.512  0.00  0.00    +0.000 C 
ATOM     28  O   UNL     1       2.273  12.898  19.608  0.00  0.00    +0.000 OA
ENDBRANCH  25  28
ENDBRANCH  24  25
ENDBRANCH  20  24
ENDBRANCH  19  21
ENDBRANCH   1  19
TORSDOF 8
ENDMDL
MODEL 9
REMARK VINA RESULT:      -6.8      4.035      9.157
REMARK  Name = 
REMARK  9 active torsions:
REMARK  status: ('A' for Active; 'I' for Inactive)
REMARK    1  A    between atoms: C_1  and  O_2
REMARK    2  A    between atoms: O_2  and  C_3
REMARK    3  A    between atoms: C_3  and  C_5
REMARK    4  A    between atoms: C_5  and  N_6
REMARK    5  A    between atoms: C_7  and  C_9
REMARK    6  A    between atoms: C_9  and  N_10
REMARK    7  A    between atoms: N_13  and  C_14
REMARK    8  A    between atoms: C_18  and  S_19
REMARK    9  A    between atoms: S_19  and  N_20
REMARK                            x       y       z     vdW  Elec       q    Type
REMARK                         _______ _______ _______ _____ _____    ______ ____
ROOT
ATOM      1  N   UNL     1       3.169   5.656  20.226  0.00  0.00    +0.000 N 
ATOM      2  C   UNL     1       2.542   6.720  19.632  0.00  0.00    +0.000 C 
ATOM      3  O   UNL     1       2.532   6.828  18.409  0.00  0.00    +0.000 OA
ATOM      4  N   UNL     1       1.981   7.593  20.541  0.00  0.00    +0.000 N 
ATOM      5  H   UNL     1       2.798   5.320  21.104  0.00  0.00    +0.000 HD
ATOM      6  H   UNL     1       2.286   7.498  21.499  0.00  0.00    +0.000 HD
ENDROOT
BRANCH   4   7
ATOM      7  C   UNL     1       1.272   8.772  20.196  0.00  0.00    +0.000 A 
ATOM      8  C   UNL     1       1.134   9.194  18.867  0.00  0.00    +0.000 A 
ATOM      9  C   UNL     1       0.472  10.378  18.542  0.00  0.00    +0.000 A 
ATOM     10  C   UNL     1      -0.073  11.160  19.548  0.00  0.00    +0.000 A 
ATOM     11  C   UNL     1       0.040  10.739  20.874  0.00  0.00    +0.000 A 
ATOM     12  C   UNL     1       0.700   9.546  21.211  0.00  0.00    +0.000 A 
BRANCH  11  13
ATOM     13  S   UNL     1      -0.613  11.792  22.136  0.00  0.00    +0.000 S 
ATOM     14  O   UNL     1      -0.851  11.014  23.330  0.00  0.00    +0.000 OA
ATOM     15  O   UNL     1       0.123  13.030  22.151  0.00  0.00    +0.000 OA
BRANCH  13  16
ATOM     16  N   UNL     1      -2.125  12.160  21.509  0.00  0.00    +0.000 NA
ATOM     17  H   UNL     1      -2.058  12.312  20.502  0.00  0.00    +0.000 HD
ATOM     18  H   UNL     1      -2.799  11.443  21.778  0.00  0.00    +0.000 HD
ENDBRANCH  13  16
ENDBRANCH  11  13
ENDBRANCH   4   7
BRANCH   1  19
ATOM     19  C   UNL     1       3.873   4.686  19.391  0.00  0.00    +0.000 C 
BRANCH  19  21
ATOM     20  N   UNL     1       5.354   5.618  17.674  0.00  0.00    +0.000 N 
ATOM     21  C   UNL     1       5.267   5.156  18.963  0.00  0.00    +0.000 C 
ATOM     22  O   UNL     1       6.220   5.172  19.739  0.00  0.00    +0.000 OA
ATOM     23  H   UNL     1       4.503   5.688  17.111  0.00  0.00    +0.000 HD
BRANCH  20  24
ATOM     24  C   UNL     1       6.592   6.148  17.120  0.00  0.00    +0.000 C 
BRANCH  24  25
ATOM     25  C   UNL     1       7.448   5.091  16.429  0.00  0.00    +0.000 C 
ATOM     26  O   UNL     1       8.054   4.203  17.019  0.00  0.00    +0.000 OA
BRANCH  25  28
ATOM     27  C   UNL     1       6.527   4.443  14.366  0.00  0.00    +0.000 C 
ATOM     28  O   UNL     1       7.449   5.270  15.076  0.00  0.00    +0.000 OA
ENDBRANCH  25  28
ENDBRANCH  24  25
ENDBRANCH  20  24
ENDBRANCH  19  21
ENDBRANCH   1  19
TORSDOF 8
ENDMDL
