MODEL 1
REMARK VINA RESULT:      -7.5      0.000      0.000
REMARK  Name = 
REMARK  6 active torsions:
REMARK  status: ('A' for Active; 'I' for Inactive)
REMARK    1  A    between atoms: N_1  and  C_2
REMARK    2  A    between atoms: C_8  and  C_9
REMARK    3  A    between atoms: N_15  and  C_16
REMARK    4  A    between atoms: C_18  and  C_19
REMARK    5  A    between atoms: C_19  and  O_20
REMARK    6  A    between atoms: C_21  and  O_22
REMARK                            x       y       z     vdW  Elec       q    Type
REMARK                         _______ _______ _______ _____ _____    ______ ____
ROOT
ATOM      1  C   UNL     1       1.492   3.640  19.683  0.00  0.00    +0.000 A 
ATOM      2  N   UNL     1       1.455   2.316  19.447  0.00  0.00    +0.000 NA
ATOM      3  C   UNL     1       2.390   1.787  18.633  0.00  0.00    +0.000 A 
ATOM      4  N   UNL     1       3.395   2.418  17.999  0.00  0.00    +0.000 NA
ATOM      5  C   UNL     1       3.410   3.732  18.286  0.00  0.00    +0.000 A 
ATOM      6  C   UNL     1       2.516   4.410  19.110  0.00  0.00    +0.000 A 
ATOM      7  C   UNL     1       2.895   5.780  19.077  0.00  0.00    +0.000 A 
ATOM      8  C   UNL     1       4.001   5.893  18.268  0.00  0.00    +0.000 A 
ATOM      9  N   UNL     1       4.299   4.646  17.778  0.00  0.00    +0.000 N 
ENDROOT
BRANCH   7  10
ATOM     10  C   UNL     1       2.258   6.934  19.738  0.00  0.00    +0.000 A 
ATOM     11  C   UNL     1       1.883   8.138  19.194  0.00  0.00    +0.000 A 
ATOM     12  N   UNL     1       1.265   8.895  20.152  0.00  0.00    +0.000 NA
ATOM     13  N   UNL     1       1.278   8.210  21.290  0.00  0.00    +0.000 NA
ATOM     14  N   UNL     1       1.892   7.040  21.046  0.00  0.00    +0.000 N 
ATOM     15  H   UNL     1       2.027   6.374  21.801  0.00  0.00    +0.000 HD
ENDBRANCH   7  10
BRANCH   9  16
ATOM     16  C   UNL     1       5.331   4.336  16.798  0.00  0.00    +0.000 C 
ATOM     17  O   UNL     1       6.643   4.495  17.396  0.00  0.00    +0.000 OA
ATOM     18  C   UNL     1       7.421   5.392  16.572  0.00  0.00    +0.000 C 
ATOM     19  C   UNL     1       6.737   5.396  15.206  0.00  0.00    +0.000 C 
ATOM     20  C   UNL     1       5.274   5.207  15.550  0.00  0.00    +0.000 C 
ATOM     21  F   UNL     1       4.746   6.432  15.822  0.00  0.00    +0.000 F 
BRANCH  19  22
ATOM     22  O   UNL     1       7.196   4.317  14.385  0.00  0.00    +0.000 OA
ATOM     23  H   UNL     1       8.085   4.523  14.048  0.00  0.00    +0.000 HD
ENDBRANCH  19  22
BRANCH  18  24
ATOM     24  C   UNL     1       7.479   6.792  17.206  0.00  0.00    +0.000 C 
BRANCH  24  25
ATOM     25  O   UNL     1       7.874   6.730  18.576  0.00  0.00    +0.000 OA
ATOM     26  H   UNL     1       7.297   7.320  19.088  0.00  0.00    +0.000 HD
ENDBRANCH  24  25
ENDBRANCH  18  24
ENDBRANCH   9  16
BRANCH   1  27
ATOM     27  N   UNL     1       0.444   4.174  20.442  0.00  0.00    +0.000 N 
ATOM     28  H   UNL     1      -0.420   3.886  19.985  0.00  0.00    +0.000 HD
ATOM     29  H   UNL     1       0.517   5.189  20.463  0.00  0.00    +0.000 HD
ENDBRANCH   1  27
TORSDOF 6
ENDMDL
MODEL 2
REMARK VINA RESULT:      -7.1      1.082      1.184
REMARK  Name = 
REMARK  6 active torsions:
REMARK  status: ('A' for Active; 'I' for Inactive)
REMARK    1  A    between atoms: N_1  and  C_2
REMARK    2  A    between atoms: C_8  and  C_9
REMARK    3  A    between atoms: N_15  and  C_16
REMARK    4  A    between atoms: C_18  and  C_19
REMARK    5  A    between atoms: C_19  and  O_20
REMARK    6  A    between atoms: C_21  and  O_22
REMARK                            x       y       z     vdW  Elec       q    Type
REMARK                         _______ _______ _______ _____ _____    ______ ____
ROOT
ATOM      1  C   UNL     1       1.332   3.976  20.055  0.00  0.00    +0.000 A 
ATOM      2  N   UNL     1       1.369   2.640  19.897  0.00  0.00    +0.000 NA
ATOM      3  C   UNL     1       2.505   2.083  19.434  0.00  0.00    +0.000 A 
ATOM      4  N   UNL     1       3.654   2.695  19.095  0.00  0.00    +0.000 NA
ATOM      5  C   UNL     1       3.581   4.023  19.295  0.00  0.00    +0.000 A 
ATOM      6  C   UNL     1       2.481   4.730  19.770  0.00  0.00    +0.000 A 
ATOM      7  C   UNL     1       2.852   6.103  19.771  0.00  0.00    +0.000 A 
ATOM      8  C   UNL     1       4.150   6.190  19.325  0.00  0.00    +0.000 A 
ATOM      9  N   UNL     1       4.582   4.922  19.023  0.00  0.00    +0.000 N 
ENDROOT
BRANCH   7  10
ATOM     10  C   UNL     1       2.045   7.281  20.141  0.00  0.00    +0.000 A 
ATOM     11  C   UNL     1       1.689   8.357  19.365  0.00  0.00    +0.000 A 
ATOM     12  N   UNL     1       0.878   9.188  20.090  0.00  0.00    +0.000 NA
ATOM     13  N   UNL     1       0.749   8.677  21.309  0.00  0.00    +0.000 NA
ATOM     14  N   UNL     1       1.467   7.542  21.346  0.00  0.00    +0.000 N 
ATOM     15  H   UNL     1       1.519   7.005  22.207  0.00  0.00    +0.000 HD
ENDBRANCH   7  10
BRANCH   9  16
ATOM     16  C   UNL     1       5.861   4.576  18.418  0.00  0.00    +0.000 C 
ATOM     17  O   UNL     1       6.877   5.523  18.837  0.00  0.00    +0.000 OA
ATOM     18  C   UNL     1       7.510   6.072  17.659  0.00  0.00    +0.000 C 
ATOM     19  C   UNL     1       7.205   5.090  16.530  0.00  0.00    +0.000 C 
ATOM     20  C   UNL     1       5.835   4.557  16.895  0.00  0.00    +0.000 C 
ATOM     21  F   UNL     1       4.904   5.420  16.402  0.00  0.00    +0.000 F 
BRANCH  19  22
ATOM     22  O   UNL     1       8.157   4.022  16.488  0.00  0.00    +0.000 OA
ATOM     23  H   UNL     1       8.959   4.321  16.026  0.00  0.00    +0.000 HD
ENDBRANCH  19  22
BRANCH  18  24
ATOM     24  C   UNL     1       6.979   7.486  17.372  0.00  0.00    +0.000 C 
BRANCH  24  25
ATOM     25  O   UNL     1       7.938   8.485  17.714  0.00  0.00    +0.000 OA
ATOM     26  H   UNL     1       7.469   9.233  18.119  0.00  0.00    +0.000 HD
ENDBRANCH  24  25
ENDBRANCH  18  24
ENDBRANCH   9  16
BRANCH   1  27
ATOM     27  N   UNL     1       0.104   4.533  20.431  0.00  0.00    +0.000 N 
ATOM     28  H   UNL     1       0.018   5.412  19.923  0.00  0.00    +0.000 HD
ATOM     29  H   UNL     1       0.095   4.697  21.435  0.00  0.00    +0.000 HD
ENDBRANCH   1  27
TORSDOF 6
ENDMDL
MODEL 3
REMARK VINA RESULT:      -7.0      3.599      5.866
REMARK  Name = 
REMARK  6 active torsions:
REMARK  status: ('A' for Active; 'I' for Inactive)
REMARK    1  A    between atoms: N_1  and  C_2
REMARK    2  A    between atoms: C_8  and  C_9
REMARK    3  A    between atoms: N_15  and  C_16
REMARK    4  A    between atoms: C_18  and  C_19
REMARK    5  A    between atoms: C_19  and  O_20
REMARK    6  A    between atoms: C_21  and  O_22
REMARK                            x       y       z     vdW  Elec       q    Type
REMARK                         _______ _______ _______ _____ _____    ______ ____
ROOT
ATOM      1  C   UNL     1       6.963   5.120  14.657  0.00  0.00    +0.000 A 
ATOM      2  N   UNL     1       6.666   4.303  13.631  0.00  0.00    +0.000 NA
ATOM      3  C   UNL     1       5.533   3.576  13.700  0.00  0.00    +0.000 A 
ATOM      4  N   UNL     1       4.620   3.552  14.687  0.00  0.00    +0.000 NA
ATOM      5  C   UNL     1       4.941   4.404  15.677  0.00  0.00    +0.000 A 
ATOM      6  C   UNL     1       6.070   5.216  15.736  0.00  0.00    +0.000 A 
ATOM      7  C   UNL     1       6.009   5.902  16.980  0.00  0.00    +0.000 A 
ATOM      8  C   UNL     1       4.856   5.513  17.622  0.00  0.00    +0.000 A 
ATOM      9  N   UNL     1       4.220   4.589  16.830  0.00  0.00    +0.000 N 
ENDROOT
BRANCH   7  10
ATOM     10  C   UNL     1       6.976   6.851  17.564  0.00  0.00    +0.000 A 
ATOM     11  C   UNL     1       7.839   6.663  18.615  0.00  0.00    +0.000 A 
ATOM     12  N   UNL     1       8.604   7.786  18.778  0.00  0.00    +0.000 NA
ATOM     13  N   UNL     1       8.215   8.683  17.880  0.00  0.00    +0.000 NA
ATOM     14  N   UNL     1       7.223   8.129  17.163  0.00  0.00    +0.000 N 
ATOM     15  H   UNL     1       6.768   8.667  16.432  0.00  0.00    +0.000 HD
ENDBRANCH   7  10
BRANCH   9  16
ATOM     16  C   UNL     1       3.019   3.844  17.182  0.00  0.00    +0.000 C 
ATOM     17  O   UNL     1       2.135   4.677  17.975  0.00  0.00    +0.000 OA
ATOM     18  C   UNL     1       1.819   3.978  19.200  0.00  0.00    +0.000 C 
ATOM     19  C   UNL     1       2.127   2.507  18.929  0.00  0.00    +0.000 C 
ATOM     20  C   UNL     1       3.297   2.570  17.968  0.00  0.00    +0.000 C 
ATOM     21  F   UNL     1       4.438   2.677  18.703  0.00  0.00    +0.000 F 
BRANCH  19  22
ATOM     22  O   UNL     1       1.018   1.841  18.316  0.00  0.00    +0.000 OA
ATOM     23  H   UNL     1       0.200   2.071  18.790  0.00  0.00    +0.000 HD
ENDBRANCH  19  22
BRANCH  18  24
ATOM     24  C   UNL     1       2.638   4.546  20.371  0.00  0.00    +0.000 C 
BRANCH  24  25
ATOM     25  O   UNL     1       2.665   5.972  20.347  0.00  0.00    +0.000 OA
ATOM     26  H   UNL     1       3.120   6.256  19.537  0.00  0.00    +0.000 HD
ENDBRANCH  24  25
ENDBRANCH  18  24
ENDBRANCH   9  16
BRANCH   1  27
ATOM     27  N   UNL     1       8.199   5.775  14.605  0.00  0.00    +0.000 N 
ATOM     28  H   UNL     1       8.911   5.059  14.741  0.00  0.00    +0.000 HD
ATOM     29  H   UNL     1       8.248   6.475  15.343  0.00  0.00    +0.000 HD
ENDBRANCH   1  27
TORSDOF 6
ENDMDL
MODEL 4
REMARK VINA RESULT:      -7.0      3.656      6.734
REMARK  Name = 
REMARK  6 active torsions:
REMARK  status: ('A' for Active; 'I' for Inactive)
REMARK    1  A    between atoms: N_1  and  C_2
REMARK    2  A    between atoms: C_8  and  C_9
REMARK    3  A    between atoms: N_15  and  C_16
REMARK    4  A    between atoms: C_18  and  C_19
REMARK    5  A    between atoms: C_19  and  O_20
REMARK    6  A    between atoms: C_21  and  O_22
REMARK                            x       y       z     vdW  Elec       q    Type
REMARK                         _______ _______ _______ _____ _____    ______ ____
ROOT
ATOM      1  C   UNL     1       7.377   5.891  17.192  0.00  0.00    +0.000 A 
ATOM      2  N   UNL     1       7.870   6.502  18.285  0.00  0.00    +0.000 NA
ATOM      3  C   UNL     1       7.367   6.161  19.488  0.00  0.00    +0.000 A 
ATOM      4  N   UNL     1       6.407   5.260  19.763  0.00  0.00    +0.000 NA
ATOM      5  C   UNL     1       5.964   4.655  18.647  0.00  0.00    +0.000 A 
ATOM      6  C   UNL     1       6.394   4.902  17.346  0.00  0.00    +0.000 A 
ATOM      7  C   UNL     1       5.616   4.065  16.499  0.00  0.00    +0.000 A 
ATOM      8  C   UNL     1       4.766   3.331  17.293  0.00  0.00    +0.000 A 
ATOM      9  N   UNL     1       4.973   3.707  18.598  0.00  0.00    +0.000 N 
ENDROOT
BRANCH   7  10
ATOM     10  C   UNL     1       5.634   3.962  15.027  0.00  0.00    +0.000 A 
ATOM     11  C   UNL     1       4.628   4.233  14.134  0.00  0.00    +0.000 A 
ATOM     12  N   UNL     1       5.098   4.068  12.859  0.00  0.00    +0.000 NA
ATOM     13  N   UNL     1       6.361   3.665  12.935  0.00  0.00    +0.000 NA
ATOM     14  N   UNL     1       6.678   3.583  14.238  0.00  0.00    +0.000 N 
ATOM     15  H   UNL     1       7.602   3.266  14.514  0.00  0.00    +0.000 HD
ENDBRANCH   7  10
BRANCH   9  16
ATOM     16  C   UNL     1       4.207   3.253  19.750  0.00  0.00    +0.000 C 
ATOM     17  O   UNL     1       3.602   1.966  19.465  0.00  0.00    +0.000 OA
ATOM     18  C   UNL     1       2.181   2.059  19.712  0.00  0.00    +0.000 C 
ATOM     19  C   UNL     1       1.998   3.275  20.618  0.00  0.00    +0.000 C 
ATOM     20  C   UNL     1       3.100   4.212  20.167  0.00  0.00    +0.000 C 
ATOM     21  F   UNL     1       2.635   4.927  19.106  0.00  0.00    +0.000 F 
BRANCH  19  22
ATOM     22  O   UNL     1       2.170   2.935  21.998  0.00  0.00    +0.000 OA
ATOM     23  H   UNL     1       3.120   2.894  22.205  0.00  0.00    +0.000 HD
ENDBRANCH  19  22
BRANCH  18  24
ATOM     24  C   UNL     1       1.411   2.189  18.388  0.00  0.00    +0.000 C 
BRANCH  24  25
ATOM     25  O   UNL     1       0.017   2.394  18.611  0.00  0.00    +0.000 OA
ATOM     26  H   UNL     1      -0.465   2.119  17.813  0.00  0.00    +0.000 HD
ENDBRANCH  24  25
ENDBRANCH  18  24
ENDBRANCH   9  16
BRANCH   1  27
ATOM     27  N   UNL     1       7.840   6.346  15.952  0.00  0.00    +0.000 N 
ATOM     28  H   UNL     1       7.401   5.758  15.245  0.00  0.00    +0.000 HD
ATOM     29  H   UNL     1       8.853   6.260  15.911  0.00  0.00    +0.000 HD
ENDBRANCH   1  27
TORSDOF 6
ENDMDL
MODEL 5
REMARK VINA RESULT:      -6.8      1.576      3.543
REMARK  Name = 
REMARK  6 active torsions:
REMARK  status: ('A' for Active; 'I' for Inactive)
REMARK    1  A    between atoms: N_1  and  C_2
REMARK    2  A    between atoms: C_8  and  C_9
REMARK    3  A    between atoms: N_15  and  C_16
REMARK    4  A    between atoms: C_18  and  C_19
REMARK    5  A    between atoms: C_19  and  O_20
REMARK    6  A    between atoms: C_21  and  O_22
REMARK                            x       y       z     vdW  Elec       q    Type
REMARK                         _______ _______ _______ _____ _____    ______ ____
ROOT
ATOM      1  C   UNL     1       2.040   7.019  19.728  0.00  0.00    +0.000 A 
ATOM      2  N   UNL     1       2.048   8.243  19.167  0.00  0.00    +0.000 NA
ATOM      3  C   UNL     1       2.709   8.407  18.004  0.00  0.00    +0.000 A 
ATOM      4  N   UNL     1       3.387   7.486  17.295  0.00  0.00    +0.000 NA
ATOM      5  C   UNL     1       3.328   6.275  17.877  0.00  0.00    +0.000 A 
ATOM      6  C   UNL     1       2.681   5.960  19.068  0.00  0.00    +0.000 A 
ATOM      7  C   UNL     1       2.927   4.580  19.307  0.00  0.00    +0.000 A 
ATOM      8  C   UNL     1       3.684   4.097  18.266  0.00  0.00    +0.000 A 
ATOM      9  N   UNL     1       3.937   5.139  17.407  0.00  0.00    +0.000 N 
ENDROOT
BRANCH   7  10
ATOM     10  C   UNL     1       2.508   3.748  20.452  0.00  0.00    +0.000 A 
ATOM     11  C   UNL     1       1.247   3.563  20.964  0.00  0.00    +0.000 A 
ATOM     12  N   UNL     1       1.304   2.656  21.988  0.00  0.00    +0.000 NA
ATOM     13  N   UNL     1       2.573   2.299  22.152  0.00  0.00    +0.000 NA
ATOM     14  N   UNL     1       3.299   2.970  21.242  0.00  0.00    +0.000 N 
ATOM     15  H   UNL     1       4.307   2.855  21.216  0.00  0.00    +0.000 HD
ENDBRANCH   7  10
BRANCH   9  16
ATOM     16  C   UNL     1       4.793   5.087  16.229  0.00  0.00    +0.000 C 
ATOM     17  O   UNL     1       5.653   3.921  16.295  0.00  0.00    +0.000 OA
ATOM     18  C   UNL     1       7.025   4.350  16.142  0.00  0.00    +0.000 C 
ATOM     19  C   UNL     1       6.957   5.732  15.495  0.00  0.00    +0.000 C 
ATOM     20  C   UNL     1       5.677   6.315  16.060  0.00  0.00    +0.000 C 
ATOM     21  F   UNL     1       5.971   6.887  17.260  0.00  0.00    +0.000 F 
BRANCH  19  22
ATOM     22  O   UNL     1       6.874   5.642  14.069  0.00  0.00    +0.000 OA
ATOM     23  H   UNL     1       7.769   5.556  13.698  0.00  0.00    +0.000 HD
ENDBRANCH  19  22
BRANCH  18  24
ATOM     24  C   UNL     1       7.738   4.370  17.504  0.00  0.00    +0.000 C 
BRANCH  24  25
ATOM     25  O   UNL     1       6.835   4.084  18.572  0.00  0.00    +0.000 OA
ATOM     26  H   UNL     1       6.336   3.283  18.343  0.00  0.00    +0.000 HD
ENDBRANCH  24  25
ENDBRANCH  18  24
ENDBRANCH   9  16
BRANCH   1  27
ATOM     27  N   UNL     1       1.440   6.907  20.988  0.00  0.00    +0.000 N 
ATOM     28  H   UNL     1       0.570   6.395  20.849  0.00  0.00    +0.000 HD
ATOM     29  H   UNL     1       1.254   7.835  21.363  0.00  0.00    +0.000 HD
ENDBRANCH   1  27
TORSDOF 6
ENDMDL
MODEL 6
REMARK VINA RESULT:      -6.7      3.710      6.000
REMARK  Name = 
REMARK  6 active torsions:
REMARK  status: ('A' for Active; 'I' for Inactive)
REMARK    1  A    between atoms: N_1  and  C_2
REMARK    2  A    between atoms: C_8  and  C_9
REMARK    3  A    between atoms: N_15  and  C_16
REMARK    4  A    between atoms: C_18  and  C_19
REMARK    5  A    between atoms: C_19  and  O_20
REMARK    6  A    between atoms: C_21  and  O_22
REMARK                            x       y       z     vdW  Elec       q    Type
REMARK                         _______ _______ _______ _____ _____    ______ ____
ROOT
ATOM      1  C   UNL     1       4.226   4.294  19.234  0.00  0.00    +0.000 A 
ATOM      2  N   UNL     1       3.405   3.667  20.096  0.00  0.00    +0.000 NA
ATOM      3  C   UNL     1       2.218   4.241  20.378  0.00  0.00    +0.000 A 
ATOM      4  N   UNL     1       1.718   5.395  19.902  0.00  0.00    +0.000 NA
ATOM      5  C   UNL     1       2.559   5.972  19.024  0.00  0.00    +0.000 A 
ATOM      6  C   UNL     1       3.807   5.492  18.636  0.00  0.00    +0.000 A 
ATOM      7  C   UNL     1       4.345   6.451  17.734  0.00  0.00    +0.000 A 
ATOM      8  C   UNL     1       3.420   7.457  17.585  0.00  0.00    +0.000 A 
ATOM      9  N   UNL     1       2.342   7.166  18.385  0.00  0.00    +0.000 N 
ENDROOT
BRANCH   7  10
ATOM     10  C   UNL     1       5.657   6.455  17.060  0.00  0.00    +0.000 A 
ATOM     11  C   UNL     1       6.789   7.159  17.388  0.00  0.00    +0.000 A 
ATOM     12  N   UNL     1       7.801   6.813  16.533  0.00  0.00    +0.000 NA
ATOM     13  N   UNL     1       7.318   5.938  15.658  0.00  0.00    +0.000 NA
ATOM     14  N   UNL     1       6.025   5.738  15.962  0.00  0.00    +0.000 N 
ATOM     15  H   UNL     1       5.463   5.114  15.391  0.00  0.00    +0.000 HD
ENDBRANCH   7  10
BRANCH   9  16
ATOM     16  C   UNL     1       1.186   8.023  18.607  0.00  0.00    +0.000 C 
ATOM     17  O   UNL     1       1.147   9.071  17.604  0.00  0.00    +0.000 OA
ATOM     18  C   UNL     1       1.072  10.349  18.274  0.00  0.00    +0.000 C 
ATOM     19  C   UNL     1       0.573  10.047  19.685  0.00  0.00    +0.000 C 
ATOM     20  C   UNL     1       1.166   8.685  19.979  0.00  0.00    +0.000 C 
ATOM     21  F   UNL     1       2.426   8.871  20.460  0.00  0.00    +0.000 F 
BRANCH  19  22
ATOM     22  O   UNL     1      -0.857   9.987  19.737  0.00  0.00    +0.000 OA
ATOM     23  H   UNL     1      -1.131   9.483  20.522  0.00  0.00    +0.000 HD
ENDBRANCH  19  22
BRANCH  18  24
ATOM     24  C   UNL     1       2.445  11.042  18.269  0.00  0.00    +0.000 C 
BRANCH  24  25
ATOM     25  O   UNL     1       2.444  12.200  17.436  0.00  0.00    +0.000 OA
ATOM     26  H   UNL     1       3.225  12.734  17.654  0.00  0.00    +0.000 HD
ENDBRANCH  24  25
ENDBRANCH  18  24
ENDBRANCH   9  16
BRANCH   1  27
ATOM     27  N   UNL     1       5.494   3.729  19.048  0.00  0.00    +0.000 N 
ATOM     28  H   UNL     1       6.076   4.066  19.814  0.00  0.00    +0.000 HD
ATOM     29  H   UNL     1       5.874   4.026  18.152  0.00  0.00    +0.000 HD
ENDBRANCH   1  27
TORSDOF 6
ENDMDL
MODEL 7
REMARK VINA RESULT:      -6.6      1.578      1.999
REMARK  Name = 
REMARK  6 active torsions:
REMARK  status: ('A' for Active; 'I' for Inactive)
REMARK    1  A    between atoms: N_1  and  C_2
REMARK    2  A    between atoms: C_8  and  C_9
REMARK    3  A    between atoms: N_15  and  C_16
REMARK    4  A    between atoms: C_18  and  C_19
REMARK    5  A    between atoms: C_19  and  O_20
REMARK    6  A    between atoms: C_21  and  O_22
REMARK                            x       y       z     vdW  Elec       q    Type
REMARK                         _______ _______ _______ _____ _____    ______ ____
ROOT
ATOM      1  C   UNL     1       1.839   5.746  20.588  0.00  0.00    +0.000 A 
ATOM      2  N   UNL     1       2.115   4.519  21.067  0.00  0.00    +0.000 NA
ATOM      3  C   UNL     1       3.065   3.791  20.447  0.00  0.00    +0.000 A 
ATOM      4  N   UNL     1       3.807   4.130  19.377  0.00  0.00    +0.000 NA
ATOM      5  C   UNL     1       3.517   5.373  18.951  0.00  0.00    +0.000 A 
ATOM      6  C   UNL     1       2.570   6.235  19.495  0.00  0.00    +0.000 A 
ATOM      7  C   UNL     1       2.584   7.409  18.692  0.00  0.00    +0.000 A 
ATOM      8  C   UNL     1       3.536   7.241  17.714  0.00  0.00    +0.000 A 
ATOM      9  N   UNL     1       4.089   5.993  17.868  0.00  0.00    +0.000 N 
ENDROOT
BRANCH   7  10
ATOM     10  C   UNL     1       1.746   8.618  18.803  0.00  0.00    +0.000 A 
ATOM     11  C   UNL     1       1.173   9.361  17.801  0.00  0.00    +0.000 A 
ATOM     12  N   UNL     1       0.420  10.361  18.354  0.00  0.00    +0.000 NA
ATOM     13  N   UNL     1       0.539  10.284  19.674  0.00  0.00    +0.000 NA
ATOM     14  N   UNL     1       1.352   9.248  19.943  0.00  0.00    +0.000 N 
ATOM     15  H   UNL     1       1.592   9.032  20.906  0.00  0.00    +0.000 HD
ENDBRANCH   7  10
BRANCH   9  16
ATOM     16  C   UNL     1       5.060   5.372  16.978  0.00  0.00    +0.000 C 
ATOM     17  O   UNL     1       5.840   4.389  17.706  0.00  0.00    +0.000 OA
ATOM     18  C   UNL     1       7.243   4.690  17.531  0.00  0.00    +0.000 C 
ATOM     19  C   UNL     1       7.323   5.578  16.290  0.00  0.00    +0.000 C 
ATOM     20  C   UNL     1       6.027   6.361  16.340  0.00  0.00    +0.000 C 
ATOM     21  F   UNL     1       6.225   7.448  17.135  0.00  0.00    +0.000 F 
BRANCH  19  22
ATOM     22  O   UNL     1       7.386   4.800  15.089  0.00  0.00    +0.000 OA
ATOM     23  H   UNL     1       8.314   4.589  14.889  0.00  0.00    +0.000 HD
ENDBRANCH  19  22
BRANCH  18  24
ATOM     24  C   UNL     1       7.807   5.378  18.785  0.00  0.00    +0.000 C 
BRANCH  24  25
ATOM     25  O   UNL     1       6.903   5.287  19.884  0.00  0.00    +0.000 OA
ATOM     26  H   UNL     1       6.767   6.179  20.243  0.00  0.00    +0.000 HD
ENDBRANCH  24  25
ENDBRANCH  18  24
ENDBRANCH   9  16
BRANCH   1  27
ATOM     27  N   UNL     1       0.773   6.430  21.185  0.00  0.00    +0.000 N 
ATOM     28  H   UNL     1      -0.062   5.871  21.013  0.00  0.00    +0.000 HD
ATOM     29  H   UNL     1       0.679   7.353  20.765  0.00  0.00    +0.000 HD
ENDBRANCH   1  27
TORSDOF 6
ENDMDL
MODEL 8
REMARK VINA RESULT:      -6.6      3.478      6.535
REMARK  Name = 
REMARK  6 active torsions:
REMARK  status: ('A' for Active; 'I' for Inactive)
REMARK    1  A    between atoms: N_1  and  C_2
REMARK    2  A    between atoms: C_8  and  C_9
REMARK    3  A    between atoms: N_15  and  C_16
REMARK    4  A    between atoms: C_18  and  C_19
REMARK    5  A    between atoms: C_19  and  O_20
REMARK    6  A    between atoms: C_21  and  O_22
REMARK                            x       y       z     vdW  Elec       q    Type
REMARK                         _______ _______ _______ _____ _____    ______ ____
ROOT
ATOM      1  C   UNL     1       6.812   5.810  17.451  0.00  0.00    +0.000 A 
ATOM      2  N   UNL     1       6.648   6.134  18.747  0.00  0.00    +0.000 NA
ATOM      3  C   UNL     1       5.540   5.698  19.378  0.00  0.00    +0.000 A 
ATOM      4  N   UNL     1       4.537   4.954  18.879  0.00  0.00    +0.000 NA
ATOM      5  C   UNL     1       4.756   4.630  17.592  0.00  0.00    +0.000 A 
ATOM      6  C   UNL     1       5.852   5.005  16.820  0.00  0.00    +0.000 A 
ATOM      7  C   UNL     1       5.629   4.473  15.520  0.00  0.00    +0.000 A 
ATOM      8  C   UNL     1       4.439   3.786  15.541  0.00  0.00    +0.000 A 
ATOM      9  N   UNL     1       3.905   3.899  16.802  0.00  0.00    +0.000 N 
ENDROOT
BRANCH   7  10
ATOM     10  C   UNL     1       6.459   4.612  14.308  0.00  0.00    +0.000 A 
ATOM     11  C   UNL     1       6.389   3.905  13.132  0.00  0.00    +0.000 A 
ATOM     12  N   UNL     1       7.305   4.407  12.248  0.00  0.00    +0.000 NA
ATOM     13  N   UNL     1       7.971   5.383  12.854  0.00  0.00    +0.000 NA
ATOM     14  N   UNL     1       7.476   5.493  14.098  0.00  0.00    +0.000 N 
ATOM     15  H   UNL     1       7.870   6.175  14.740  0.00  0.00    +0.000 HD
ENDBRANCH   7  10
BRANCH   9  16
ATOM     16  C   UNL     1       2.601   3.409  17.225  0.00  0.00    +0.000 C 
ATOM     17  O   UNL     1       2.008   4.336  18.171  0.00  0.00    +0.000 OA
ATOM     18  C   UNL     1       1.649   3.608  19.367  0.00  0.00    +0.000 C 
ATOM     19  C   UNL     1       1.582   2.139  18.952  0.00  0.00    +0.000 C 
ATOM     20  C   UNL     1       2.644   2.034  17.877  0.00  0.00    +0.000 C 
ATOM     21  F   UNL     1       3.840   1.811  18.490  0.00  0.00    +0.000 F 
BRANCH  19  22
ATOM     22  O   UNL     1       0.298   1.801  18.416  0.00  0.00    +0.000 OA
ATOM     23  H   UNL     1      -0.052   1.023  18.881  0.00  0.00    +0.000 HD
ENDBRANCH  19  22
BRANCH  18  24
ATOM     24  C   UNL     1       2.678   3.860  20.481  0.00  0.00    +0.000 C 
BRANCH  24  25
ATOM     25  O   UNL     1       2.454   5.113  21.126  0.00  0.00    +0.000 OA
ATOM     26  H   UNL     1       1.953   5.684  20.520  0.00  0.00    +0.000 HD
ENDBRANCH  24  25
ENDBRANCH  18  24
ENDBRANCH   9  16
BRANCH   1  27
ATOM     27  N   UNL     1       7.915   6.371  16.796  0.00  0.00    +0.000 N 
ATOM     28  H   UNL     1       8.744   6.020  17.274  0.00  0.00    +0.000 HD
ATOM     29  H   UNL     1       7.870   7.386  16.855  0.00  0.00    +0.000 HD
ENDBRANCH   1  27
TORSDOF 6
ENDMDL
MODEL 9
REMARK VINA RESULT:      -6.5      3.174      4.786
REMARK  Name = 
REMARK  6 active torsions:
REMARK  status: ('A' for Active; 'I' for Inactive)
REMARK    1  A    between atoms: N_1  and  C_2
REMARK    2  A    between atoms: C_8  and  C_9
REMARK    3  A    between atoms: N_15  and  C_16
REMARK    4  A    between atoms: C_18  and  C_19
REMARK    5  A    between atoms: C_19  and  O_20
REMARK    6  A    between atoms: C_21  and  O_22
REMARK                            x       y       z     vdW  Elec       q    Type
REMARK                         _______ _______ _______ _____ _____    ______ ____
ROOT
ATOM      1  C   UNL     1       2.038   8.819  18.370  0.00  0.00    +0.000 A 
ATOM      2  N   UNL     1       2.592   8.734  17.147  0.00  0.00    +0.000 NA
ATOM      3  C   UNL     1       3.307   7.631  16.846  0.00  0.00    +0.000 A 
ATOM      4  N   UNL     1       3.552   6.561  17.623  0.00  0.00    +0.000 NA
ATOM      5  C   UNL     1       2.957   6.676  18.823  0.00  0.00    +0.000 A 
ATOM      6  C   UNL     1       2.189   7.750  19.266  0.00  0.00    +0.000 A 
ATOM      7  C   UNL     1       1.810   7.449  20.604  0.00  0.00    +0.000 A 
ATOM      8  C   UNL     1       2.329   6.217  20.924  0.00  0.00    +0.000 A 
ATOM      9  N   UNL     1       3.039   5.760  19.841  0.00  0.00    +0.000 N 
ENDROOT
BRANCH   7  10
ATOM     10  C   UNL     1       1.029   8.267  21.551  0.00  0.00    +0.000 A 
ATOM     11  C   UNL     1      -0.334   8.408  21.645  0.00  0.00    +0.000 A 
ATOM     12  N   UNL     1      -0.633   9.212  22.712  0.00  0.00    +0.000 NA
ATOM     13  N   UNL     1       0.509   9.606  23.263  0.00  0.00    +0.000 NA
ATOM     14  N   UNL     1       1.508   9.054  22.554  0.00  0.00    +0.000 N 
ATOM     15  H   UNL     1       2.473   9.253  22.802  0.00  0.00    +0.000 HD
ENDBRANCH   7  10
BRANCH   9  16
ATOM     16  C   UNL     1       3.837   4.542  19.794  0.00  0.00    +0.000 C 
ATOM     17  O   UNL     1       4.005   4.115  18.418  0.00  0.00    +0.000 OA
ATOM     18  C   UNL     1       3.571   2.741  18.305  0.00  0.00    +0.000 C 
ATOM     19  C   UNL     1       3.594   2.182  19.726  0.00  0.00    +0.000 C 
ATOM     20  C   UNL     1       3.235   3.383  20.577  0.00  0.00    +0.000 C 
ATOM     21  F   UNL     1       1.876   3.469  20.628  0.00  0.00    +0.000 F 
BRANCH  19  22
ATOM     22  O   UNL     1       4.893   1.695  20.080  0.00  0.00    +0.000 OA
ATOM     23  H   UNL     1       5.279   2.271  20.763  0.00  0.00    +0.000 HD
ENDBRANCH  19  22
BRANCH  18  24
ATOM     24  C   UNL     1       2.176   2.667  17.664  0.00  0.00    +0.000 C 
BRANCH  24  25
ATOM     25  O   UNL     1       1.746   3.945  17.198  0.00  0.00    +0.000 OA
ATOM     26  H   UNL     1       2.197   4.629  17.720  0.00  0.00    +0.000 HD
ENDBRANCH  24  25
ENDBRANCH  18  24
ENDBRANCH   9  16
BRANCH   1  27
ATOM     27  N   UNL     1       1.397  10.022  18.690  0.00  0.00    +0.000 N 
ATOM     28  H   UNL     1       1.440  10.111  19.704  0.00  0.00    +0.000 HD
ATOM     29  H   UNL     1       0.431   9.991  18.373  0.00  0.00    +0.000 HD
ENDBRANCH   1  27
TORSDOF 6
ENDMDL
