MODEL 1
REMARK VINA RESULT:      -7.0      0.000      0.000
REMARK  Name = 
REMARK  2 active torsions:
REMARK  status: ('A' for Active; 'I' for Inactive)
REMARK    1  A    between atoms: C_5  and  C_6
REMARK    2  A    between atoms: C_5  and  C_8
REMARK                            x       y       z     vdW  Elec       q    Type
REMARK                         _______ _______ _______ _____ _____    ______ ____
ROOT
ATOM      1  C   UNL     1       8.027   7.762  18.041  0.00  0.00    +0.000 C 
ATOM      2  C   UNL     1       7.119   6.805  17.786  0.00  0.00    +0.000 C 
ATOM      3  C   UNL     1       5.841   7.070  17.069  0.00  0.00    +0.000 C 
ATOM      4  C   UNL     1       5.572   5.961  16.066  0.00  0.00    +0.000 C 
ATOM      5  C   UNL     1       5.577   4.586  16.760  0.00  0.00    +0.000 C 
ATOM      6  O   UNL     1       6.846   4.437  17.476  0.00  0.00    +0.000 OA
ATOM      7  C   UNL     1       7.445   5.418  18.189  0.00  0.00    +0.000 C 
ATOM      8  O   UNL     1       8.280   5.160  19.046  0.00  0.00    +0.000 OA
ENDROOT
BRANCH   5   9
ATOM      9  C   UNL     1       4.440   4.354  17.771  0.00  0.00    +0.000 A 
ATOM     10  C   UNL     1       4.625   3.608  18.947  0.00  0.00    +0.000 A 
ATOM     11  C   UNL     1       3.572   3.390  19.842  0.00  0.00    +0.000 A 
ATOM     12  C   UNL     1       2.312   3.921  19.583  0.00  0.00    +0.000 A 
ATOM     13  C   UNL     1       2.109   4.686  18.439  0.00  0.00    +0.000 A 
ATOM     14  C   UNL     1       3.164   4.908  17.548  0.00  0.00    +0.000 A 
ENDBRANCH   5   9
BRANCH   5  15
ATOM     15  C   UNL     1       5.622   3.447  15.718  0.00  0.00    +0.000 C 
ATOM     16 BR   UNL     1       6.185   3.987  13.935  0.00  0.00    +0.000 Br
ENDBRANCH   5  15
TORSDOF 2
ENDMDL
MODEL 2
REMARK VINA RESULT:      -6.9      0.158      1.205
REMARK  Name = 
REMARK  2 active torsions:
REMARK  status: ('A' for Active; 'I' for Inactive)
REMARK    1  A    between atoms: C_5  and  C_6
REMARK    2  A    between atoms: C_5  and  C_8
REMARK                            x       y       z     vdW  Elec       q    Type
REMARK                         _______ _______ _______ _____ _____    ______ ____
ROOT
ATOM      1  C   UNL     1       8.008   7.746  18.071  0.00  0.00    +0.000 C 
ATOM      2  C   UNL     1       7.125   6.776  17.780  0.00  0.00    +0.000 C 
ATOM      3  C   UNL     1       5.856   7.030  17.044  0.00  0.00    +0.000 C 
ATOM      4  C   UNL     1       5.627   5.936  16.015  0.00  0.00    +0.000 C 
ATOM      5  C   UNL     1       5.647   4.548  16.682  0.00  0.00    +0.000 C 
ATOM      6  O   UNL     1       6.905   4.410  17.419  0.00  0.00    +0.000 OA
ATOM      7  C   UNL     1       7.471   5.388  18.162  0.00  0.00    +0.000 C 
ATOM      8  O   UNL     1       8.294   5.129  19.030  0.00  0.00    +0.000 OA
ENDROOT
BRANCH   5   9
ATOM      9  C   UNL     1       4.496   4.274  17.666  0.00  0.00    +0.000 A 
ATOM     10  C   UNL     1       3.164   4.614  17.374  0.00  0.00    +0.000 A 
ATOM     11  C   UNL     1       2.136   4.377  18.293  0.00  0.00    +0.000 A 
ATOM     12  C   UNL     1       2.417   3.786  19.521  0.00  0.00    +0.000 A 
ATOM     13  C   UNL     1       3.723   3.414  19.823  0.00  0.00    +0.000 A 
ATOM     14  C   UNL     1       4.749   3.647  18.902  0.00  0.00    +0.000 A 
ENDBRANCH   5   9
BRANCH   5  15
ATOM     15  C   UNL     1       5.733   3.431  15.620  0.00  0.00    +0.000 C 
ATOM     16 BR   UNL     1       6.184   4.037  13.826  0.00  0.00    +0.000 Br
ENDBRANCH   5  15
TORSDOF 2
ENDMDL
MODEL 3
REMARK VINA RESULT:      -6.7      2.755      3.713
REMARK  Name = 
REMARK  2 active torsions:
REMARK  status: ('A' for Active; 'I' for Inactive)
REMARK    1  A    between atoms: C_5  and  C_6
REMARK    2  A    between atoms: C_5  and  C_8
REMARK                            x       y       z     vdW  Elec       q    Type
REMARK                         _______ _______ _______ _____ _____    ______ ____
ROOT
ATOM      1  C   UNL     1       7.384   4.621  17.161  0.00  0.00    +0.000 C 
ATOM      2  C   UNL     1       6.142   4.797  17.643  0.00  0.00    +0.000 C 
ATOM      3  C   UNL     1       4.929   4.788  16.779  0.00  0.00    +0.000 C 
ATOM      4  C   UNL     1       3.821   3.998  17.454  0.00  0.00    +0.000 C 
ATOM      5  C   UNL     1       3.532   4.556  18.861  0.00  0.00    +0.000 C 
ATOM      6  O   UNL     1       4.788   4.573  19.615  0.00  0.00    +0.000 OA
ATOM      7  C   UNL     1       5.984   4.946  19.107  0.00  0.00    +0.000 C 
ATOM      8  O   UNL     1       6.904   5.291  19.838  0.00  0.00    +0.000 OA
ENDROOT
BRANCH   5   9
ATOM      9  C   UNL     1       2.946   5.979  18.897  0.00  0.00    +0.000 A 
ATOM     10  C   UNL     1       3.001   6.839  17.788  0.00  0.00    +0.000 A 
ATOM     11  C   UNL     1       2.483   8.137  17.849  0.00  0.00    +0.000 A 
ATOM     12  C   UNL     1       1.889   8.599  19.020  0.00  0.00    +0.000 A 
ATOM     13  C   UNL     1       1.797   7.758  20.123  0.00  0.00    +0.000 A 
ATOM     14  C   UNL     1       2.312   6.459  20.059  0.00  0.00    +0.000 A 
ENDBRANCH   5   9
BRANCH   5  15
ATOM     15  C   UNL     1       2.647   3.581  19.666  0.00  0.00    +0.000 C 
ATOM     16 BR   UNL     1       1.127   2.855  18.691  0.00  0.00    +0.000 Br
ENDBRANCH   5  15
TORSDOF 2
ENDMDL
MODEL 4
REMARK VINA RESULT:      -6.6      2.369      4.956
REMARK  Name = 
REMARK  2 active torsions:
REMARK  status: ('A' for Active; 'I' for Inactive)
REMARK    1  A    between atoms: C_5  and  C_6
REMARK    2  A    between atoms: C_5  and  C_8
REMARK                            x       y       z     vdW  Elec       q    Type
REMARK                         _______ _______ _______ _____ _____    ______ ____
ROOT
ATOM      1  C   UNL     1       0.934   2.770  18.682  0.00  0.00    +0.000 C 
ATOM      2  C   UNL     1       2.092   3.397  18.414  0.00  0.00    +0.000 C 
ATOM      3  C   UNL     1       2.170   4.847  18.086  0.00  0.00    +0.000 C 
ATOM      4  C   UNL     1       3.346   5.478  18.812  0.00  0.00    +0.000 C 
ATOM      5  C   UNL     1       4.654   4.733  18.483  0.00  0.00    +0.000 C 
ATOM      6  O   UNL     1       4.464   3.314  18.791  0.00  0.00    +0.000 OA
ATOM      7  C   UNL     1       3.343   2.611  18.513  0.00  0.00    +0.000 C 
ATOM      8  O   UNL     1       3.359   1.389  18.448  0.00  0.00    +0.000 OA
ENDROOT
BRANCH   5   9
ATOM      9  C   UNL     1       5.120   4.836  17.020  0.00  0.00    +0.000 A 
ATOM     10  C   UNL     1       5.010   6.026  16.282  0.00  0.00    +0.000 A 
ATOM     11  C   UNL     1       5.419   6.092  14.945  0.00  0.00    +0.000 A 
ATOM     12  C   UNL     1       5.955   4.970  14.322  0.00  0.00    +0.000 A 
ATOM     13  C   UNL     1       6.100   3.787  15.038  0.00  0.00    +0.000 A 
ATOM     14  C   UNL     1       5.695   3.723  16.376  0.00  0.00    +0.000 A 
ENDBRANCH   5   9
BRANCH   5  15
ATOM     15  C   UNL     1       5.783   5.157  19.447  0.00  0.00    +0.000 C 
ATOM     16 BR   UNL     1       7.412   5.777  18.581  0.00  0.00    +0.000 Br
ENDBRANCH   5  15
TORSDOF 2
ENDMDL
MODEL 5
REMARK VINA RESULT:      -6.6      2.620      4.854
REMARK  Name = 
REMARK  2 active torsions:
REMARK  status: ('A' for Active; 'I' for Inactive)
REMARK    1  A    between atoms: C_5  and  C_6
REMARK    2  A    between atoms: C_5  and  C_8
REMARK                            x       y       z     vdW  Elec       q    Type
REMARK                         _______ _______ _______ _____ _____    ______ ____
ROOT
ATOM      1  C   UNL     1       3.563   1.212  18.143  0.00  0.00    +0.000 C 
ATOM      2  C   UNL     1       3.828   2.524  18.271  0.00  0.00    +0.000 C 
ATOM      3  C   UNL     1       3.725   3.486  17.140  0.00  0.00    +0.000 C 
ATOM      4  C   UNL     1       3.057   4.766  17.609  0.00  0.00    +0.000 C 
ATOM      5  C   UNL     1       3.807   5.362  18.816  0.00  0.00    +0.000 C 
ATOM      6  O   UNL     1       3.901   4.332  19.852  0.00  0.00    +0.000 OA
ATOM      7  C   UNL     1       4.178   3.030  19.618  0.00  0.00    +0.000 C 
ATOM      8  O   UNL     1       4.601   2.301  20.506  0.00  0.00    +0.000 OA
ENDROOT
BRANCH   5   9
ATOM      9  C   UNL     1       5.233   5.862  18.523  0.00  0.00    +0.000 A 
ATOM     10  C   UNL     1       6.337   5.473  19.299  0.00  0.00    +0.000 A 
ATOM     11  C   UNL     1       7.621   5.958  19.030  0.00  0.00    +0.000 A 
ATOM     12  C   UNL     1       7.830   6.836  17.971  0.00  0.00    +0.000 A 
ATOM     13  C   UNL     1       6.759   7.215  17.170  0.00  0.00    +0.000 A 
ATOM     14  C   UNL     1       5.476   6.726  17.437  0.00  0.00    +0.000 A 
ENDBRANCH   5   9
BRANCH   5  15
ATOM     15  C   UNL     1       2.968   6.469  19.490  0.00  0.00    +0.000 C 
ATOM     16 BR   UNL     1       2.297   7.841  18.283  0.00  0.00    +0.000 Br
ENDBRANCH   5  15
TORSDOF 2
ENDMDL
MODEL 6
REMARK VINA RESULT:      -6.6      2.327      4.823
REMARK  Name = 
REMARK  2 active torsions:
REMARK  status: ('A' for Active; 'I' for Inactive)
REMARK    1  A    between atoms: C_5  and  C_6
REMARK    2  A    between atoms: C_5  and  C_8
REMARK                            x       y       z     vdW  Elec       q    Type
REMARK                         _______ _______ _______ _____ _____    ______ ____
ROOT
ATOM      1  C   UNL     1       0.978   2.861  18.850  0.00  0.00    +0.000 C 
ATOM      2  C   UNL     1       2.137   3.462  18.533  0.00  0.00    +0.000 C 
ATOM      3  C   UNL     1       2.229   4.900  18.160  0.00  0.00    +0.000 C 
ATOM      4  C   UNL     1       3.433   5.534  18.835  0.00  0.00    +0.000 C 
ATOM      5  C   UNL     1       4.720   4.759  18.494  0.00  0.00    +0.000 C 
ATOM      6  O   UNL     1       4.517   3.353  18.848  0.00  0.00    +0.000 OA
ATOM      7  C   UNL     1       3.379   2.660  18.622  0.00  0.00    +0.000 C 
ATOM      8  O   UNL     1       3.376   1.436  18.593  0.00  0.00    +0.000 OA
ENDROOT
BRANCH   5   9
ATOM      9  C   UNL     1       5.147   4.812  17.017  0.00  0.00    +0.000 A 
ATOM     10  C   UNL     1       5.681   3.695  16.352  0.00  0.00    +0.000 A 
ATOM     11  C   UNL     1       6.085   3.770  15.014  0.00  0.00    +0.000 A 
ATOM     12  C   UNL     1       5.955   4.964  14.310  0.00  0.00    +0.000 A 
ATOM     13  C   UNL     1       5.404   6.076  14.937  0.00  0.00    +0.000 A 
ATOM     14  C   UNL     1       4.996   5.998  16.272  0.00  0.00    +0.000 A 
ENDBRANCH   5   9
BRANCH   5  15
ATOM     15  C   UNL     1       5.881   5.194  19.414  0.00  0.00    +0.000 C 
ATOM     16 BR   UNL     1       7.424   5.942  18.492  0.00  0.00    +0.000 Br
ENDBRANCH   5  15
TORSDOF 2
ENDMDL
MODEL 7
REMARK VINA RESULT:      -6.6      2.726      3.573
REMARK  Name = 
REMARK  2 active torsions:
REMARK  status: ('A' for Active; 'I' for Inactive)
REMARK    1  A    between atoms: C_5  and  C_6
REMARK    2  A    between atoms: C_5  and  C_8
REMARK                            x       y       z     vdW  Elec       q    Type
REMARK                         _______ _______ _______ _____ _____    ______ ____
ROOT
ATOM      1  C   UNL     1       7.462   4.700  17.160  0.00  0.00    +0.000 C 
ATOM      2  C   UNL     1       6.216   4.855  17.639  0.00  0.00    +0.000 C 
ATOM      3  C   UNL     1       5.008   4.854  16.770  0.00  0.00    +0.000 C 
ATOM      4  C   UNL     1       3.903   4.041  17.422  0.00  0.00    +0.000 C 
ATOM      5  C   UNL     1       3.603   4.566  18.839  0.00  0.00    +0.000 C 
ATOM      6  O   UNL     1       4.854   4.577  19.600  0.00  0.00    +0.000 OA
ATOM      7  C   UNL     1       6.050   4.971  19.106  0.00  0.00    +0.000 C 
ATOM      8  O   UNL     1       6.963   5.307  19.848  0.00  0.00    +0.000 OA
ENDROOT
BRANCH   5   9
ATOM      9  C   UNL     1       3.005   5.982  18.903  0.00  0.00    +0.000 A 
ATOM     10  C   UNL     1       2.364   6.473  20.053  0.00  0.00    +0.000 A 
ATOM     11  C   UNL     1       1.806   7.756  20.083  0.00  0.00    +0.000 A 
ATOM     12  C   UNL     1       1.887   8.579  18.964  0.00  0.00    +0.000 A 
ATOM     13  C   UNL     1       2.540   8.129  17.822  0.00  0.00    +0.000 A 
ATOM     14  C   UNL     1       3.101   6.848  17.796  0.00  0.00    +0.000 A 
ENDBRANCH   5   9
BRANCH   5  15
ATOM     15  C   UNL     1       2.722   3.566  19.618  0.00  0.00    +0.000 C 
ATOM     16 BR   UNL     1       1.195   2.873  18.630  0.00  0.00    +0.000 Br
ENDBRANCH   5  15
TORSDOF 2
ENDMDL
MODEL 8
REMARK VINA RESULT:      -6.6      2.931      5.315
REMARK  Name = 
REMARK  2 active torsions:
REMARK  status: ('A' for Active; 'I' for Inactive)
REMARK    1  A    between atoms: C_5  and  C_6
REMARK    2  A    between atoms: C_5  and  C_8
REMARK                            x       y       z     vdW  Elec       q    Type
REMARK                         _______ _______ _______ _____ _____    ______ ____
ROOT
ATOM      1  C   UNL     1       1.366   1.922  18.999  0.00  0.00    +0.000 C 
ATOM      2  C   UNL     1       2.025   3.084  18.851  0.00  0.00    +0.000 C 
ATOM      3  C   UNL     1       2.051   3.842  17.570  0.00  0.00    +0.000 C 
ATOM      4  C   UNL     1       1.870   5.325  17.844  0.00  0.00    +0.000 C 
ATOM      5  C   UNL     1       2.929   5.829  18.843  0.00  0.00    +0.000 C 
ATOM      6  O   UNL     1       2.860   4.995  20.045  0.00  0.00    +0.000 OA
ATOM      7  C   UNL     1       2.700   3.652  20.040  0.00  0.00    +0.000 C 
ATOM      8  O   UNL     1       3.010   2.972  21.010  0.00  0.00    +0.000 OA
ENDROOT
BRANCH   5   9
ATOM      9  C   UNL     1       4.381   5.798  18.334  0.00  0.00    +0.000 A 
ATOM     10  C   UNL     1       4.718   6.134  17.013  0.00  0.00    +0.000 A 
ATOM     11  C   UNL     1       6.042   6.076  16.564  0.00  0.00    +0.000 A 
ATOM     12  C   UNL     1       7.059   5.691  17.432  0.00  0.00    +0.000 A 
ATOM     13  C   UNL     1       6.756   5.380  18.753  0.00  0.00    +0.000 A 
ATOM     14  C   UNL     1       5.432   5.442  19.202  0.00  0.00    +0.000 A 
ENDBRANCH   5   9
BRANCH   5  15
ATOM     15  C   UNL     1       2.564   7.235  19.366  0.00  0.00    +0.000 C 
ATOM     16 BR   UNL     1       2.070   8.520  17.990  0.00  0.00    +0.000 Br
ENDBRANCH   5  15
TORSDOF 2
ENDMDL
MODEL 9
REMARK VINA RESULT:      -6.6      3.129      5.370
REMARK  Name = 
REMARK  2 active torsions:
REMARK  status: ('A' for Active; 'I' for Inactive)
REMARK    1  A    between atoms: C_5  and  C_6
REMARK    2  A    between atoms: C_5  and  C_8
REMARK                            x       y       z     vdW  Elec       q    Type
REMARK                         _______ _______ _______ _____ _____    ______ ____
ROOT
ATOM      1  C   UNL     1       0.567   2.223  18.893  0.00  0.00    +0.000 C 
ATOM      2  C   UNL     1       1.308   3.333  19.049  0.00  0.00    +0.000 C 
ATOM      3  C   UNL     1       1.391   4.076  20.337  0.00  0.00    +0.000 C 
ATOM      4  C   UNL     1       2.829   4.487  20.604  0.00  0.00    +0.000 C 
ATOM      5  C   UNL     1       3.393   5.299  19.423  0.00  0.00    +0.000 C 
ATOM      6  O   UNL     1       3.222   4.511  18.200  0.00  0.00    +0.000 OA
ATOM      7  C   UNL     1       2.118   3.791  17.898  0.00  0.00    +0.000 C 
ATOM      8  O   UNL     1       1.871   3.461  16.746  0.00  0.00    +0.000 OA
ENDROOT
BRANCH   5   9
ATOM      9  C   UNL     1       2.732   6.670  19.192  0.00  0.00    +0.000 A 
ATOM     10  C   UNL     1       2.010   7.332  20.199  0.00  0.00    +0.000 A 
ATOM     11  C   UNL     1       1.397   8.567  19.961  0.00  0.00    +0.000 A 
ATOM     12  C   UNL     1       1.502   9.171  18.712  0.00  0.00    +0.000 A 
ATOM     13  C   UNL     1       2.234   8.550  17.706  0.00  0.00    +0.000 A 
ATOM     14  C   UNL     1       2.850   7.317  17.946  0.00  0.00    +0.000 A 
ENDBRANCH   5   9
BRANCH   5  15
ATOM     15  C   UNL     1       4.925   5.445  19.540  0.00  0.00    +0.000 C 
ATOM     16 BR   UNL     1       5.921   4.967  17.938  0.00  0.00    +0.000 Br
ENDBRANCH   5  15
TORSDOF 2
ENDMDL
