MODEL 1
REMARK VINA RESULT:      -6.5      0.000      0.000
REMARK  Name = 
REMARK  8 active torsions:
REMARK  status: ('A' for Active; 'I' for Inactive)
REMARK    1  A    between atoms: C_1  and  O_2
REMARK    2  A    between atoms: O_2  and  C_3
REMARK    3  A    between atoms: C_6  and  C_7
REMARK    4  A    between atoms: C_7  and  O_8
REMARK    5  A    between atoms: N_11  and  C_12
REMARK    6  A    between atoms: C_12  and  C_13
REMARK    7  A    between atoms: C_23  and  O_24
REMARK    8  A    between atoms: O_24  and  C_25
REMARK                            x       y       z     vdW  Elec       q    Type
REMARK                         _______ _______ _______ _____ _____    ______ ____
ROOT
ATOM      1  C   UNL     1       0.260   9.988  19.406  0.00  0.00    +0.000 C 
ATOM      2  C   UNL     1       0.306   8.848  20.478  0.00  0.00    +0.000 C 
ATOM      3  C   UNL     1       1.692   8.179  20.508  0.00  0.00    +0.000 C 
ATOM      4  N   UNL     1       1.976   7.560  19.195  0.00  0.00    +0.000 NA
ATOM      5  C   UNL     1       1.993   8.598  18.138  0.00  0.00    +0.000 C 
ATOM      6  C   UNL     1       0.641   9.333  18.060  0.00  0.00    +0.000 C 
ENDROOT
BRANCH   1  10
ATOM      7  C   UNL     1      -3.616  11.849  18.658  0.00  0.00    +0.000 A 
ATOM      8  N   UNL     1      -3.145  10.851  17.889  0.00  0.00    +0.000 NA
ATOM      9  C   UNL     1      -1.946  10.277  18.142  0.00  0.00    +0.000 A 
ATOM     10  C   UNL     1      -1.131  10.681  19.234  0.00  0.00    +0.000 A 
ATOM     11  C   UNL     1      -1.670  11.764  20.042  0.00  0.00    +0.000 A 
ATOM     12  N   UNL     1      -2.879  12.281  19.704  0.00  0.00    +0.000 NA
BRANCH   7  14
ATOM     13  C   UNL     1      -5.549  12.120  17.238  0.00  0.00    +0.000 C 
ATOM     14  O   UNL     1      -4.821  12.403  18.378  0.00  0.00    +0.000 OA
ENDBRANCH   7  14
BRANCH  11  15
ATOM     15  O   UNL     1      -1.120  12.386  21.123  0.00  0.00    +0.000 OA
ATOM     16  C   UNL     1      -1.014  12.120  22.467  0.00  0.00    +0.000 C 
ENDBRANCH  11  15
ENDBRANCH   1  10
BRANCH   1  17
ATOM     17  O   UNL     1       1.236  10.917  19.781  0.00  0.00    +0.000 OA
ATOM     18  H   UNL     1       2.047  10.410  20.052  0.00  0.00    +0.000 HD
ENDBRANCH   1  17
BRANCH   4  19
ATOM     19  C   UNL     1       3.263   6.824  19.197  0.00  0.00    +0.000 C 
BRANCH  19  20
ATOM     20  C   UNL     1       3.088   5.372  18.792  0.00  0.00    +0.000 A 
ATOM     21  C   UNL     1       2.443   4.466  19.653  0.00  0.00    +0.000 A 
ATOM     22  F   UNL     1       1.961   4.876  20.854  0.00  0.00    +0.000 F 
ATOM     23  C   UNL     1       2.292   3.122  19.282  0.00  0.00    +0.000 A 
ATOM     24  C   UNL     1       2.777   2.676  18.052  0.00  0.00    +0.000 A 
ATOM     25  C   UNL     1       3.412   3.568  17.186  0.00  0.00    +0.000 A 
ATOM     26  C   UNL     1       3.568   4.910  17.548  0.00  0.00    +0.000 A 
ATOM     27  F   UNL     1       4.190   5.751  16.685  0.00  0.00    +0.000 F 
ENDBRANCH  19  20
ENDBRANCH   4  19
TORSDOF 6
ENDMDL
MODEL 2
REMARK VINA RESULT:      -6.5      4.003      8.654
REMARK  Name = 
REMARK  8 active torsions:
REMARK  status: ('A' for Active; 'I' for Inactive)
REMARK    1  A    between atoms: C_1  and  O_2
REMARK    2  A    between atoms: O_2  and  C_3
REMARK    3  A    between atoms: C_6  and  C_7
REMARK    4  A    between atoms: C_7  and  O_8
REMARK    5  A    between atoms: N_11  and  C_12
REMARK    6  A    between atoms: C_12  and  C_13
REMARK    7  A    between atoms: C_23  and  O_24
REMARK    8  A    between atoms: O_24  and  C_25
REMARK                            x       y       z     vdW  Elec       q    Type
REMARK                         _______ _______ _______ _____ _____    ______ ____
ROOT
ATOM      1  C   UNL     1       2.808   6.657  18.189  0.00  0.00    +0.000 C 
ATOM      2  C   UNL     1       2.928   6.785  19.744  0.00  0.00    +0.000 C 
ATOM      3  C   UNL     1       1.668   7.437  20.340  0.00  0.00    +0.000 C 
ATOM      4  N   UNL     1       1.507   8.803  19.797  0.00  0.00    +0.000 NA
ATOM      5  C   UNL     1       1.341   8.748  18.326  0.00  0.00    +0.000 C 
ATOM      6  C   UNL     1       2.558   8.085  17.654  0.00  0.00    +0.000 C 
ENDROOT
BRANCH   1  10
ATOM      7  C   UNL     1       6.319   5.263  16.004  0.00  0.00    +0.000 A 
ATOM      8  N   UNL     1       5.932   6.551  15.984  0.00  0.00    +0.000 NA
ATOM      9  C   UNL     1       4.848   6.969  16.677  0.00  0.00    +0.000 A 
ATOM     10  C   UNL     1       4.071   6.081  17.470  0.00  0.00    +0.000 A 
ATOM     11  C   UNL     1       4.516   4.697  17.466  0.00  0.00    +0.000 A 
ATOM     12  N   UNL     1       5.612   4.373  16.733  0.00  0.00    +0.000 NA
BRANCH   7  14
ATOM     13  C   UNL     1       7.448   4.809  13.920  0.00  0.00    +0.000 C 
ATOM     14  O   UNL     1       7.411   4.877  15.299  0.00  0.00    +0.000 OA
ENDBRANCH   7  14
BRANCH  11  15
ATOM     15  O   UNL     1       3.970   3.616  18.094  0.00  0.00    +0.000 OA
ATOM     16  C   UNL     1       4.050   3.058  19.347  0.00  0.00    +0.000 C 
ENDBRANCH  11  15
ENDBRANCH   1  10
BRANCH   1  17
ATOM     17  O   UNL     1       1.689   5.852  17.949  0.00  0.00    +0.000 OA
ATOM     18  H   UNL     1       1.020   6.403  17.464  0.00  0.00    +0.000 HD
ENDBRANCH   1  17
BRANCH   4  19
ATOM     19  C   UNL     1       0.356   9.509  20.408  0.00  0.00    +0.000 C 
BRANCH  19  20
ATOM     20  C   UNL     1       0.033  10.804  19.684  0.00  0.00    +0.000 A 
ATOM     21  C   UNL     1      -1.059  10.872  18.801  0.00  0.00    +0.000 A 
ATOM     22  F   UNL     1      -1.846   9.787  18.589  0.00  0.00    +0.000 F 
ATOM     23  C   UNL     1      -1.349  12.065  18.125  0.00  0.00    +0.000 A 
ATOM     24  C   UNL     1      -0.556  13.196  18.327  0.00  0.00    +0.000 A 
ATOM     25  C   UNL     1       0.526  13.142  19.207  0.00  0.00    +0.000 A 
ATOM     26  C   UNL     1       0.824  11.956  19.886  0.00  0.00    +0.000 A 
ATOM     27  F   UNL     1       1.882  11.935  20.733  0.00  0.00    +0.000 F 
ENDBRANCH  19  20
ENDBRANCH   4  19
TORSDOF 6
ENDMDL
MODEL 3
REMARK VINA RESULT:      -6.5      3.996      8.659
REMARK  Name = 
REMARK  8 active torsions:
REMARK  status: ('A' for Active; 'I' for Inactive)
REMARK    1  A    between atoms: C_1  and  O_2
REMARK    2  A    between atoms: O_2  and  C_3
REMARK    3  A    between atoms: C_6  and  C_7
REMARK    4  A    between atoms: C_7  and  O_8
REMARK    5  A    between atoms: N_11  and  C_12
REMARK    6  A    between atoms: C_12  and  C_13
REMARK    7  A    between atoms: C_23  and  O_24
REMARK    8  A    between atoms: O_24  and  C_25
REMARK                            x       y       z     vdW  Elec       q    Type
REMARK                         _______ _______ _______ _____ _____    ______ ____
ROOT
ATOM      1  C   UNL     1       2.809   6.667  18.187  0.00  0.00    +0.000 C 
ATOM      2  C   UNL     1       2.918   6.766  19.745  0.00  0.00    +0.000 C 
ATOM      3  C   UNL     1       1.659   7.417  20.343  0.00  0.00    +0.000 C 
ATOM      4  N   UNL     1       1.514   8.794  19.824  0.00  0.00    +0.000 NA
ATOM      5  C   UNL     1       1.359   8.768  18.351  0.00  0.00    +0.000 C 
ATOM      6  C   UNL     1       2.576   8.107  17.676  0.00  0.00    +0.000 C 
ENDROOT
BRANCH   1  10
ATOM      7  C   UNL     1       6.322   5.279  16.000  0.00  0.00    +0.000 A 
ATOM      8  N   UNL     1       5.932   6.567  15.980  0.00  0.00    +0.000 NA
ATOM      9  C   UNL     1       4.847   6.982  16.673  0.00  0.00    +0.000 A 
ATOM     10  C   UNL     1       4.073   6.094  17.468  0.00  0.00    +0.000 A 
ATOM     11  C   UNL     1       4.521   4.710  17.463  0.00  0.00    +0.000 A 
ATOM     12  N   UNL     1       5.617   4.388  16.730  0.00  0.00    +0.000 NA
BRANCH   7  14
ATOM     13  C   UNL     1       7.440   4.795  13.917  0.00  0.00    +0.000 C 
ATOM     14  O   UNL     1       7.414   4.895  15.294  0.00  0.00    +0.000 OA
ENDBRANCH   7  14
BRANCH  11  15
ATOM     15  O   UNL     1       3.978   3.629  18.092  0.00  0.00    +0.000 OA
ATOM     16  C   UNL     1       4.087   3.051  19.334  0.00  0.00    +0.000 C 
ENDBRANCH  11  15
ENDBRANCH   1  10
BRANCH   1  17
ATOM     17  O   UNL     1       1.685   5.876  17.923  0.00  0.00    +0.000 OA
ATOM     18  H   UNL     1       2.006   5.006  17.567  0.00  0.00    +0.000 HD
ENDBRANCH   1  17
BRANCH   4  19
ATOM     19  C   UNL     1       0.364   9.500  20.438  0.00  0.00    +0.000 C 
BRANCH  19  20
ATOM     20  C   UNL     1       0.037  10.793  19.715  0.00  0.00    +0.000 A 
ATOM     21  C   UNL     1       0.806  11.949  19.942  0.00  0.00    +0.000 A 
ATOM     22  F   UNL     1       1.855  11.924  20.803  0.00  0.00    +0.000 F 
ATOM     23  C   UNL     1       0.496  13.146  19.281  0.00  0.00    +0.000 A 
ATOM     24  C   UNL     1      -0.576  13.197  18.391  0.00  0.00    +0.000 A 
ATOM     25  C   UNL     1      -1.342  12.054  18.151  0.00  0.00    +0.000 A 
ATOM     26  C   UNL     1      -1.041  10.855  18.806  0.00  0.00    +0.000 A 
ATOM     27  F   UNL     1      -1.804   9.764  18.554  0.00  0.00    +0.000 F 
ENDBRANCH  19  20
ENDBRANCH   4  19
TORSDOF 6
ENDMDL
MODEL 4
REMARK VINA RESULT:      -6.4      0.457      1.697
REMARK  Name = 
REMARK  8 active torsions:
REMARK  status: ('A' for Active; 'I' for Inactive)
REMARK    1  A    between atoms: C_1  and  O_2
REMARK    2  A    between atoms: O_2  and  C_3
REMARK    3  A    between atoms: C_6  and  C_7
REMARK    4  A    between atoms: C_7  and  O_8
REMARK    5  A    between atoms: N_11  and  C_12
REMARK    6  A    between atoms: C_12  and  C_13
REMARK    7  A    between atoms: C_23  and  O_24
REMARK    8  A    between atoms: O_24  and  C_25
REMARK                            x       y       z     vdW  Elec       q    Type
REMARK                         _______ _______ _______ _____ _____    ______ ____
ROOT
ATOM      1  C   UNL     1       0.210  10.054  19.374  0.00  0.00    +0.000 C 
ATOM      2  C   UNL     1       0.278   8.934  20.465  0.00  0.00    +0.000 C 
ATOM      3  C   UNL     1       1.664   8.265  20.479  0.00  0.00    +0.000 C 
ATOM      4  N   UNL     1       1.921   7.621  19.173  0.00  0.00    +0.000 NA
ATOM      5  C   UNL     1       1.917   8.639  18.096  0.00  0.00    +0.000 C 
ATOM      6  C   UNL     1       0.563   9.373  18.032  0.00  0.00    +0.000 C 
ENDROOT
BRANCH   1  10
ATOM      7  C   UNL     1      -3.684  11.895  18.674  0.00  0.00    +0.000 A 
ATOM      8  N   UNL     1      -3.245  10.855  17.942  0.00  0.00    +0.000 NA
ATOM      9  C   UNL     1      -2.040  10.288  18.180  0.00  0.00    +0.000 A 
ATOM     10  C   UNL     1      -1.183  10.746  19.217  0.00  0.00    +0.000 A 
ATOM     11  C   UNL     1      -1.687  11.873  19.985  0.00  0.00    +0.000 A 
ATOM     12  N   UNL     1      -2.906  12.378  19.666  0.00  0.00    +0.000 NA
BRANCH   7  14
ATOM     13  C   UNL     1      -5.799  11.905  17.512  0.00  0.00    +0.000 C 
ATOM     14  O   UNL     1      -4.896  12.441  18.409  0.00  0.00    +0.000 OA
ENDBRANCH   7  14
BRANCH  11  15
ATOM     15  O   UNL     1      -1.094  12.549  21.010  0.00  0.00    +0.000 OA
ATOM     16  C   UNL     1      -0.405  13.731  21.145  0.00  0.00    +0.000 C 
ENDBRANCH  11  15
ENDBRANCH   1  10
BRANCH   1  17
ATOM     17  O   UNL     1       1.195  10.989  19.711  0.00  0.00    +0.000 OA
ATOM     18  H   UNL     1       0.908  11.440  20.549  0.00  0.00    +0.000 HD
ENDBRANCH   1  17
BRANCH   4  19
ATOM     19  C   UNL     1       3.207   6.884  19.163  0.00  0.00    +0.000 C 
BRANCH  19  20
ATOM     20  C   UNL     1       3.034   5.445  18.711  0.00  0.00    +0.000 A 
ATOM     21  C   UNL     1       3.606   5.006  17.503  0.00  0.00    +0.000 A 
ATOM     22  F   UNL     1       4.327   5.857  16.729  0.00  0.00    +0.000 F 
ATOM     23  C   UNL     1       3.437   3.680  17.081  0.00  0.00    +0.000 A 
ATOM     24  C   UNL     1       2.701   2.785  17.860  0.00  0.00    +0.000 A 
ATOM     25  C   UNL     1       2.135   3.208  19.064  0.00  0.00    +0.000 A 
ATOM     26  C   UNL     1       2.298   4.530  19.493  0.00  0.00    +0.000 A 
ATOM     27  F   UNL     1       1.735   4.910  20.666  0.00  0.00    +0.000 F 
ENDBRANCH  19  20
ENDBRANCH   4  19
TORSDOF 6
ENDMDL
MODEL 5
REMARK VINA RESULT:      -6.2      1.304      2.075
REMARK  Name = 
REMARK  8 active torsions:
REMARK  status: ('A' for Active; 'I' for Inactive)
REMARK    1  A    between atoms: C_1  and  O_2
REMARK    2  A    between atoms: O_2  and  C_3
REMARK    3  A    between atoms: C_6  and  C_7
REMARK    4  A    between atoms: C_7  and  O_8
REMARK    5  A    between atoms: N_11  and  C_12
REMARK    6  A    between atoms: C_12  and  C_13
REMARK    7  A    between atoms: C_23  and  O_24
REMARK    8  A    between atoms: O_24  and  C_25
REMARK                            x       y       z     vdW  Elec       q    Type
REMARK                         _______ _______ _______ _____ _____    ______ ____
ROOT
ATOM      1  C   UNL     1       0.294  10.225  19.968  0.00  0.00    +0.000 C 
ATOM      2  C   UNL     1       0.207   8.988  20.924  0.00  0.00    +0.000 C 
ATOM      3  C   UNL     1       1.501   8.157  20.865  0.00  0.00    +0.000 C 
ATOM      4  N   UNL     1       1.701   7.641  19.494  0.00  0.00    +0.000 NA
ATOM      5  C   UNL     1       1.838   8.767  18.542  0.00  0.00    +0.000 C 
ATOM      6  C   UNL     1       0.585   9.663  18.558  0.00  0.00    +0.000 C 
ENDROOT
BRANCH   1  10
ATOM      7  C   UNL     1      -3.338  12.644  20.024  0.00  0.00    +0.000 A 
ATOM      8  N   UNL     1      -2.505  12.584  21.079  0.00  0.00    +0.000 NA
ATOM      9  C   UNL     1      -1.377  11.838  21.040  0.00  0.00    +0.000 A 
ATOM     10  C   UNL     1      -1.003  11.094  19.889  0.00  0.00    +0.000 A 
ATOM     11  C   UNL     1      -1.927  11.180  18.769  0.00  0.00    +0.000 A 
ATOM     12  N   UNL     1      -3.037  11.949  18.906  0.00  0.00    +0.000 NA
BRANCH   7  14
ATOM     13  C   UNL     1      -5.608  13.011  20.757  0.00  0.00    +0.000 C 
ATOM     14  O   UNL     1      -4.460  13.401  20.094  0.00  0.00    +0.000 OA
ENDBRANCH   7  14
BRANCH  11  15
ATOM     15  O   UNL     1      -1.865  10.564  17.554  0.00  0.00    +0.000 OA
ATOM     16  C   UNL     1      -2.753   9.919  16.727  0.00  0.00    +0.000 C 
ENDBRANCH  11  15
ENDBRANCH   1  10
BRANCH   1  17
ATOM     17  O   UNL     1       1.378  10.988  20.415  0.00  0.00    +0.000 OA
ATOM     18  H   UNL     1       1.729  10.560  21.239  0.00  0.00    +0.000 HD
ENDBRANCH   1  17
BRANCH   4  19
ATOM     19  C   UNL     1       2.888   6.758  19.403  0.00  0.00    +0.000 C 
BRANCH  19  20
ATOM     20  C   UNL     1       2.523   5.358  18.944  0.00  0.00    +0.000 A 
ATOM     21  C   UNL     1       1.674   4.553  19.725  0.00  0.00    +0.000 A 
ATOM     22  F   UNL     1       1.163   5.016  20.894  0.00  0.00    +0.000 F 
ATOM     23  C   UNL     1       1.346   3.256  19.305  0.00  0.00    +0.000 A 
ATOM     24  C   UNL     1       1.857   2.757  18.107  0.00  0.00    +0.000 A 
ATOM     25  C   UNL     1       2.695   3.549  17.320  0.00  0.00    +0.000 A 
ATOM     26  C   UNL     1       3.028   4.845  17.730  0.00  0.00    +0.000 A 
ATOM     27  F   UNL     1       3.844   5.589  16.945  0.00  0.00    +0.000 F 
ENDBRANCH  19  20
ENDBRANCH   4  19
TORSDOF 6
ENDMDL
MODEL 6
REMARK VINA RESULT:      -6.2      1.257      2.656
REMARK  Name = 
REMARK  8 active torsions:
REMARK  status: ('A' for Active; 'I' for Inactive)
REMARK    1  A    between atoms: C_1  and  O_2
REMARK    2  A    between atoms: O_2  and  C_3
REMARK    3  A    between atoms: C_6  and  C_7
REMARK    4  A    between atoms: C_7  and  O_8
REMARK    5  A    between atoms: N_11  and  C_12
REMARK    6  A    between atoms: C_12  and  C_13
REMARK    7  A    between atoms: C_23  and  O_24
REMARK    8  A    between atoms: O_24  and  C_25
REMARK                            x       y       z     vdW  Elec       q    Type
REMARK                         _______ _______ _______ _____ _____    ______ ____
ROOT
ATOM      1  C   UNL     1       0.265  10.137  19.813  0.00  0.00    +0.000 C 
ATOM      2  C   UNL     1       0.189   8.909  20.780  0.00  0.00    +0.000 C 
ATOM      3  C   UNL     1       1.508   8.117  20.766  0.00  0.00    +0.000 C 
ATOM      4  N   UNL     1       1.760   7.591  19.407  0.00  0.00    +0.000 NA
ATOM      5  C   UNL     1       1.890   8.711  18.446  0.00  0.00    +0.000 C 
ATOM      6  C   UNL     1       0.611   9.570  18.418  0.00  0.00    +0.000 C 
ENDROOT
BRANCH   1  10
ATOM      7  C   UNL     1      -3.412  12.487  19.741  0.00  0.00    +0.000 A 
ATOM      8  N   UNL     1      -2.518  12.593  20.741  0.00  0.00    +0.000 NA
ATOM      9  C   UNL     1      -1.377  11.865  20.741  0.00  0.00    +0.000 A 
ATOM     10  C   UNL     1      -1.054  10.967  19.688  0.00  0.00    +0.000 A 
ATOM     11  C   UNL     1      -2.044  10.876  18.627  0.00  0.00    +0.000 A 
ATOM     12  N   UNL     1      -3.161  11.641  18.719  0.00  0.00    +0.000 NA
BRANCH   7  14
ATOM     13  C   UNL     1      -5.078  13.771  20.925  0.00  0.00    +0.000 C 
ATOM     14  O   UNL     1      -4.545  13.230  19.770  0.00  0.00    +0.000 OA
ENDBRANCH   7  14
BRANCH  11  15
ATOM     15  O   UNL     1      -2.038  10.092  17.511  0.00  0.00    +0.000 OA
ATOM     16  C   UNL     1      -2.626  10.137  16.270  0.00  0.00    +0.000 C 
ENDBRANCH  11  15
ENDBRANCH   1  10
BRANCH   1  17
ATOM     17  O   UNL     1       1.314  10.937  20.279  0.00  0.00    +0.000 OA
ATOM     18  H   UNL     1       1.645  11.477  19.514  0.00  0.00    +0.000 HD
ENDBRANCH   1  17
BRANCH   4  19
ATOM     19  C   UNL     1       2.975   6.743  19.358  0.00  0.00    +0.000 C 
BRANCH  19  20
ATOM     20  C   UNL     1       2.671   5.342  18.859  0.00  0.00    +0.000 A 
ATOM     21  C   UNL     1       3.258   4.866  17.673  0.00  0.00    +0.000 A 
ATOM     22  F   UNL     1       4.109   5.647  16.961  0.00  0.00    +0.000 F 
ATOM     23  C   UNL     1       2.967   3.576  17.208  0.00  0.00    +0.000 A 
ATOM     24  C   UNL     1       2.096   2.753  17.923  0.00  0.00    +0.000 A 
ATOM     25  C   UNL     1       1.513   3.211  19.105  0.00  0.00    +0.000 A 
ATOM     26  C   UNL     1       1.796   4.498  19.577  0.00  0.00    +0.000 A 
ATOM     27  F   UNL     1       1.214   4.914  20.729  0.00  0.00    +0.000 F 
ENDBRANCH  19  20
ENDBRANCH   4  19
TORSDOF 6
ENDMDL
MODEL 7
REMARK VINA RESULT:      -6.2      1.035      1.919
REMARK  Name = 
REMARK  8 active torsions:
REMARK  status: ('A' for Active; 'I' for Inactive)
REMARK    1  A    between atoms: C_1  and  O_2
REMARK    2  A    between atoms: O_2  and  C_3
REMARK    3  A    between atoms: C_6  and  C_7
REMARK    4  A    between atoms: C_7  and  O_8
REMARK    5  A    between atoms: N_11  and  C_12
REMARK    6  A    between atoms: C_12  and  C_13
REMARK    7  A    between atoms: C_23  and  O_24
REMARK    8  A    between atoms: O_24  and  C_25
REMARK                            x       y       z     vdW  Elec       q    Type
REMARK                         _______ _______ _______ _____ _____    ______ ____
ROOT
ATOM      1  C   UNL     1       0.357   9.860  19.020  0.00  0.00    +0.000 C 
ATOM      2  C   UNL     1       0.312   8.783  20.155  0.00  0.00    +0.000 C 
ATOM      3  C   UNL     1       1.710   8.190  20.405  0.00  0.00    +0.000 C 
ATOM      4  N   UNL     1       2.194   7.519  19.180  0.00  0.00    +0.000 NA
ATOM      5  C   UNL     1       2.305   8.498  18.074  0.00  0.00    +0.000 C 
ATOM      6  C   UNL     1       0.944   9.156  17.776  0.00  0.00    +0.000 C 
ENDROOT
BRANCH   1  10
ATOM      7  C   UNL     1      -3.459  11.483  17.660  0.00  0.00    +0.000 A 
ATOM      8  N   UNL     1      -2.822  10.505  16.992  0.00  0.00    +0.000 NA
ATOM      9  C   UNL     1      -1.645  10.005  17.434  0.00  0.00    +0.000 A 
ATOM     10  C   UNL     1      -1.028  10.470  18.627  0.00  0.00    +0.000 A 
ATOM     11  C   UNL     1      -1.742  11.529  19.321  0.00  0.00    +0.000 A 
ATOM     12  N   UNL     1      -2.913  11.971  18.795  0.00  0.00    +0.000 NA
BRANCH   7  14
ATOM     13  C   UNL     1      -5.870  11.592  17.691  0.00  0.00    +0.000 C 
ATOM     14  O   UNL     1      -4.637  11.963  17.191  0.00  0.00    +0.000 OA
ENDBRANCH   7  14
BRANCH  11  15
ATOM     15  O   UNL     1      -1.396  12.197  20.459  0.00  0.00    +0.000 OA
ATOM     16  C   UNL     1      -1.512  11.971  21.810  0.00  0.00    +0.000 C 
ENDBRANCH  11  15
ENDBRANCH   1  10
BRANCH   1  17
ATOM     17  O   UNL     1       1.232  10.858  19.464  0.00  0.00    +0.000 OA
ATOM     18  H   UNL     1       1.796  10.467  20.182  0.00  0.00    +0.000 HD
ENDBRANCH   1  17
BRANCH   4  19
ATOM     19  C   UNL     1       3.501   6.852  19.394  0.00  0.00    +0.000 C 
BRANCH  19  20
ATOM     20  C   UNL     1       3.816   5.851  18.298  0.00  0.00    +0.000 A 
ATOM     21  C   UNL     1       4.811   6.130  17.344  0.00  0.00    +0.000 A 
ATOM     22  F   UNL     1       5.510   7.293  17.394  0.00  0.00    +0.000 F 
ATOM     23  C   UNL     1       5.093   5.210  16.325  0.00  0.00    +0.000 A 
ATOM     24  C   UNL     1       4.390   4.007  16.253  0.00  0.00    +0.000 A 
ATOM     25  C   UNL     1       3.405   3.715  17.198  0.00  0.00    +0.000 A 
ATOM     26  C   UNL     1       3.116   4.628  18.219  0.00  0.00    +0.000 A 
ATOM     27  F   UNL     1       2.153   4.316  19.121  0.00  0.00    +0.000 F 
ENDBRANCH  19  20
ENDBRANCH   4  19
TORSDOF 6
ENDMDL
MODEL 8
REMARK VINA RESULT:      -6.2      1.148      1.224
REMARK  Name = 
REMARK  8 active torsions:
REMARK  status: ('A' for Active; 'I' for Inactive)
REMARK    1  A    between atoms: C_1  and  O_2
REMARK    2  A    between atoms: O_2  and  C_3
REMARK    3  A    between atoms: C_6  and  C_7
REMARK    4  A    between atoms: C_7  and  O_8
REMARK    5  A    between atoms: N_11  and  C_12
REMARK    6  A    between atoms: C_12  and  C_13
REMARK    7  A    between atoms: C_23  and  O_24
REMARK    8  A    between atoms: O_24  and  C_25
REMARK                            x       y       z     vdW  Elec       q    Type
REMARK                         _______ _______ _______ _____ _____    ______ ____
ROOT
ATOM      1  C   UNL     1       0.410   9.984  19.196  0.00  0.00    +0.000 C 
ATOM      2  C   UNL     1       0.544   8.730  20.123  0.00  0.00    +0.000 C 
ATOM      3  C   UNL     1       1.938   8.093  19.988  0.00  0.00    +0.000 C 
ATOM      4  N   UNL     1       2.145   7.635  18.597  0.00  0.00    +0.000 NA
ATOM      5  C   UNL     1       2.077   8.787  17.668  0.00  0.00    +0.000 C 
ATOM      6  C   UNL     1       0.711   9.496  17.761  0.00  0.00    +0.000 C 
ENDROOT
BRANCH   1  10
ATOM      7  C   UNL     1      -3.540  11.819  18.918  0.00  0.00    +0.000 A 
ATOM      8  N   UNL     1      -3.124  10.886  18.042  0.00  0.00    +0.000 NA
ATOM      9  C   UNL     1      -1.901  10.319  18.150  0.00  0.00    +0.000 A 
ATOM     10  C   UNL     1      -0.999  10.661  19.194  0.00  0.00    +0.000 A 
ATOM     11  C   UNL     1      -1.480  11.674  20.119  0.00  0.00    +0.000 A 
ATOM     12  N   UNL     1      -2.720  12.191  19.925  0.00  0.00    +0.000 NA
BRANCH   7  14
ATOM     13  C   UNL     1      -5.719  11.914  17.886  0.00  0.00    +0.000 C 
ATOM     14  O   UNL     1      -4.772  12.368  18.783  0.00  0.00    +0.000 OA
ENDBRANCH   7  14
BRANCH  11  15
ATOM     15  O   UNL     1      -0.845  12.231  21.191  0.00  0.00    +0.000 OA
ATOM     16  C   UNL     1      -0.811  12.002  22.546  0.00  0.00    +0.000 C 
ENDBRANCH  11  15
ENDBRANCH   1  10
BRANCH   1  17
ATOM     17  O   UNL     1       1.395  10.885  19.613  0.00  0.00    +0.000 OA
ATOM     18  H   UNL     1       0.935  11.671  20.012  0.00  0.00    +0.000 HD
ENDBRANCH   1  17
BRANCH   4  19
ATOM     19  C   UNL     1       3.439   6.932  18.432  0.00  0.00    +0.000 C 
BRANCH  19  20
ATOM     20  C   UNL     1       3.298   5.431  18.605  0.00  0.00    +0.000 A 
ATOM     21  C   UNL     1       4.285   4.697  19.287  0.00  0.00    +0.000 A 
ATOM     22  F   UNL     1       5.374   5.319  19.806  0.00  0.00    +0.000 F 
ATOM     23  C   UNL     1       4.158   3.309  19.436  0.00  0.00    +0.000 A 
ATOM     24  C   UNL     1       3.048   2.647  18.912  0.00  0.00    +0.000 A 
ATOM     25  C   UNL     1       2.057   3.365  18.240  0.00  0.00    +0.000 A 
ATOM     26  C   UNL     1       2.175   4.751  18.086  0.00  0.00    +0.000 A 
ATOM     27  F   UNL     1       1.197   5.420  17.428  0.00  0.00    +0.000 F 
ENDBRANCH  19  20
ENDBRANCH   4  19
TORSDOF 6
ENDMDL
MODEL 9
REMARK VINA RESULT:      -6.2      2.979      4.093
REMARK  Name = 
REMARK  8 active torsions:
REMARK  status: ('A' for Active; 'I' for Inactive)
REMARK    1  A    between atoms: C_1  and  O_2
REMARK    2  A    between atoms: O_2  and  C_3
REMARK    3  A    between atoms: C_6  and  C_7
REMARK    4  A    between atoms: C_7  and  O_8
REMARK    5  A    between atoms: N_11  and  C_12
REMARK    6  A    between atoms: C_12  and  C_13
REMARK    7  A    between atoms: C_23  and  O_24
REMARK    8  A    between atoms: O_24  and  C_25
REMARK                            x       y       z     vdW  Elec       q    Type
REMARK                         _______ _______ _______ _____ _____    ______ ____
ROOT
ATOM      1  C   UNL     1       0.900  10.162  19.607  0.00  0.00    +0.000 C 
ATOM      2  C   UNL     1       1.743  10.190  18.288  0.00  0.00    +0.000 C 
ATOM      3  C   UNL     1       1.848   8.782  17.675  0.00  0.00    +0.000 C 
ATOM      4  N   UNL     1       2.538   7.877  18.619  0.00  0.00    +0.000 NA
ATOM      5  C   UNL     1       1.763   7.770  19.877  0.00  0.00    +0.000 C 
ATOM      6  C   UNL     1       1.593   9.148  20.544  0.00  0.00    +0.000 C 
ENDROOT
BRANCH   1  10
ATOM      7  C   UNL     1       0.869  14.037  21.613  0.00  0.00    +0.000 A 
ATOM      8  N   UNL     1       1.653  13.793  20.548  0.00  0.00    +0.000 NA
ATOM      9  C   UNL     1       1.642  12.589  19.930  0.00  0.00    +0.000 A 
ATOM     10  C   UNL     1       0.797  11.529  20.358  0.00  0.00    +0.000 A 
ATOM     11  C   UNL     1      -0.034  11.828  21.513  0.00  0.00    +0.000 A 
ATOM     12  N   UNL     1       0.054  13.063  22.069  0.00  0.00    +0.000 NA
BRANCH   7  14
ATOM     13  C   UNL     1       0.672  16.442  21.543  0.00  0.00    +0.000 C 
ATOM     14  O   UNL     1       0.905  15.255  22.209  0.00  0.00    +0.000 OA
ENDBRANCH   7  14
BRANCH  11  15
ATOM     15  O   UNL     1      -0.913  11.020  22.172  0.00  0.00    +0.000 OA
ATOM     16  C   UNL     1      -0.829  10.068  23.160  0.00  0.00    +0.000 C 
ENDBRANCH  11  15
ENDBRANCH   1  10
BRANCH   1  17
ATOM     17  O   UNL     1      -0.370   9.695  19.249  0.00  0.00    +0.000 OA
ATOM     18  H   UNL     1      -0.309   9.333  18.326  0.00  0.00    +0.000 HD
ENDBRANCH   1  17
BRANCH   4  19
ATOM     19  C   UNL     1       2.747   6.528  18.040  0.00  0.00    +0.000 C 
BRANCH  19  20
ATOM     20  C   UNL     1       4.208   6.121  18.059  0.00  0.00    +0.000 A 
ATOM     21  C   UNL     1       5.054   6.454  16.986  0.00  0.00    +0.000 A 
ATOM     22  F   UNL     1       4.580   7.150  15.922  0.00  0.00    +0.000 F 
ATOM     23  C   UNL     1       6.401   6.067  17.000  0.00  0.00    +0.000 A 
ATOM     24  C   UNL     1       6.913   5.351  18.083  0.00  0.00    +0.000 A 
ATOM     25  C   UNL     1       6.085   5.021  19.158  0.00  0.00    +0.000 A 
ATOM     26  C   UNL     1       4.739   5.402  19.152  0.00  0.00    +0.000 A 
ATOM     27  F   UNL     1       3.961   5.066  20.210  0.00  0.00    +0.000 F 
ENDBRANCH  19  20
ENDBRANCH   4  19
TORSDOF 6
ENDMDL
