MODEL 1
REMARK VINA RESULT:      -7.6      0.000      0.000
REMARK  Name = 
REMARK  10 active torsions:
REMARK  status: ('A' for Active; 'I' for Inactive)
REMARK    1  A    between atoms: C_1  and  C_2
REMARK    2  A    between atoms: C_2  and  N_3
REMARK    3  A    between atoms: N_5  and  C_6
REMARK    4  A    between atoms: C_6  and  C_7
REMARK    5  A    between atoms: N_8  and  N_9
REMARK    6  A    between atoms: C_10  and  C_11
REMARK    7  A    between atoms: C_14  and  C_15
REMARK    8  A    between atoms: C_16  and  C_17
REMARK    9  A    between atoms: N_18  and  C_19
REMARK   10  A    between atoms: N_22  and  C_23
REMARK                            x       y       z     vdW  Elec       q    Type
REMARK                         _______ _______ _______ _____ _____    ______ ____
ROOT
ATOM      1  C   UNL     1       3.067   6.056  18.320  0.00  0.00    +0.000 A 
ATOM      2  C   UNL     1       2.600   5.581  19.547  0.00  0.00    +0.000 A 
ATOM      3  C   UNL     1       1.902   6.431  20.414  0.00  0.00    +0.000 A 
ATOM      4  C   UNL     1       1.672   7.771  20.073  0.00  0.00    +0.000 A 
ATOM      5  C   UNL     1       2.118   8.229  18.825  0.00  0.00    +0.000 A 
ATOM      6  C   UNL     1       2.816   7.380  17.952  0.00  0.00    +0.000 A 
ENDROOT
BRANCH   1   8
ATOM      7  N   UNL     1       4.968   4.672  17.760  0.00  0.00    +0.000 NA
ATOM      8  C   UNL     1       3.833   5.175  17.404  0.00  0.00    +0.000 C 
BRANCH   7  12
ATOM      9  N   UNL     1       6.253   3.724  14.632  0.00  0.00    +0.000 NA
ATOM     10  C   UNL     1       6.314   4.377  15.751  0.00  0.00    +0.000 C 
ATOM     11  N   UNL     1       7.041   5.522  15.970  0.00  0.00    +0.000 N 
ATOM     12  N   UNL     1       5.595   3.883  16.825  0.00  0.00    +0.000 N 
ATOM     13  H   UNL     1       7.063   6.177  15.201  0.00  0.00    +0.000 HD
ATOM     14  H   UNL     1       5.145   3.007  16.560  0.00  0.00    +0.000 HD
BRANCH   9  16
ATOM     15  C   UNL     1       6.528   3.649  12.210  0.00  0.00    +0.000 C 
ATOM     16  C   UNL     1       7.072   4.208  13.520  0.00  0.00    +0.000 C 
ENDBRANCH   9  16
BRANCH  11  17
ATOM     17  C   UNL     1       7.398   6.039  17.273  0.00  0.00    +0.000 C 
ATOM     18  C   UNL     1       7.347   7.555  17.289  0.00  0.00    +0.000 C 
ENDBRANCH  11  17
ENDBRANCH   7  12
ENDBRANCH   1   8
BRANCH   4  19
ATOM     19  C   UNL     1       0.914   8.668  20.956  0.00  0.00    +0.000 C 
ATOM     20  C   UNL     1       0.098   9.637  20.502  0.00  0.00    +0.000 C 
BRANCH  20  21
ATOM     21  C   UNL     1      -0.629  10.680  21.302  0.00  0.00    +0.000 A 
ATOM     22  N   UNL     1      -1.250  11.811  20.894  0.00  0.00    +0.000 N 
ATOM     23  C   UNL     1      -1.564  12.210  19.523  0.00  0.00    +0.000 C 
ATOM     24  C   UNL     1      -1.725  12.509  21.994  0.00  0.00    +0.000 A 
ATOM     25  C   UNL     1      -1.444  11.761  23.094  0.00  0.00    +0.000 A 
ATOM     26  N   UNL     1      -0.783  10.633  22.645  0.00  0.00    +0.000 N 
ATOM     27  C   UNL     1      -0.188   9.624  23.523  0.00  0.00    +0.000 C 
ENDBRANCH  20  21
ENDBRANCH   4  19
TORSDOF 6
ENDMDL
MODEL 2
REMARK VINA RESULT:      -7.6      0.823      1.779
REMARK  Name = 
REMARK  10 active torsions:
REMARK  status: ('A' for Active; 'I' for Inactive)
REMARK    1  A    between atoms: C_1  and  C_2
REMARK    2  A    between atoms: C_2  and  N_3
REMARK    3  A    between atoms: N_5  and  C_6
REMARK    4  A    between atoms: C_6  and  C_7
REMARK    5  A    between atoms: N_8  and  N_9
REMARK    6  A    between atoms: C_10  and  C_11
REMARK    7  A    between atoms: C_14  and  C_15
REMARK    8  A    between atoms: C_16  and  C_17
REMARK    9  A    between atoms: N_18  and  C_19
REMARK   10  A    between atoms: N_22  and  C_23
REMARK                            x       y       z     vdW  Elec       q    Type
REMARK                         _______ _______ _______ _____ _____    ______ ____
ROOT
ATOM      1  C   UNL     1       2.864   6.697  18.322  0.00  0.00    +0.000 A 
ATOM      2  C   UNL     1       2.499   6.418  19.641  0.00  0.00    +0.000 A 
ATOM      3  C   UNL     1       1.832   7.382  20.408  0.00  0.00    +0.000 A 
ATOM      4  C   UNL     1       1.532   8.643  19.872  0.00  0.00    +0.000 A 
ATOM      5  C   UNL     1       1.874   8.900  18.537  0.00  0.00    +0.000 A 
ATOM      6  C   UNL     1       2.541   7.936  17.764  0.00  0.00    +0.000 A 
ENDROOT
BRANCH   1   8
ATOM      7  N   UNL     1       4.756   5.262  17.872  0.00  0.00    +0.000 NA
ATOM      8  C   UNL     1       3.595   5.696  17.507  0.00  0.00    +0.000 C 
BRANCH   7  12
ATOM      9  N   UNL     1       6.108   3.968  14.901  0.00  0.00    +0.000 NA
ATOM     10  C   UNL     1       6.175   4.688  15.976  0.00  0.00    +0.000 C 
ATOM     11  N   UNL     1       7.007   5.764  16.168  0.00  0.00    +0.000 N 
ATOM     12  N   UNL     1       5.347   4.349  17.032  0.00  0.00    +0.000 N 
ATOM     13  H   UNL     1       7.144   6.357  15.362  0.00  0.00    +0.000 HD
ATOM     14  H   UNL     1       4.821   3.507  16.795  0.00  0.00    +0.000 HD
BRANCH   9  16
ATOM     15  C   UNL     1       6.526   3.671  12.516  0.00  0.00    +0.000 C 
ATOM     16  C   UNL     1       7.037   4.284  13.815  0.00  0.00    +0.000 C 
ENDBRANCH   9  16
BRANCH  11  17
ATOM     17  C   UNL     1       7.343   6.332  17.456  0.00  0.00    +0.000 C 
ATOM     18  C   UNL     1       7.487   7.839  17.363  0.00  0.00    +0.000 C 
ENDBRANCH  11  17
ENDBRANCH   7  12
ENDBRANCH   1   8
BRANCH   4  19
ATOM     19  C   UNL     1       0.805   9.653  20.652  0.00  0.00    +0.000 C 
ATOM     20  C   UNL     1      -0.140  10.455  20.126  0.00  0.00    +0.000 C 
BRANCH  20  21
ATOM     21  C   UNL     1      -0.859  11.593  20.792  0.00  0.00    +0.000 A 
ATOM     22  N   UNL     1      -1.386  11.679  22.035  0.00  0.00    +0.000 N 
ATOM     23  C   UNL     1      -1.204  10.747  23.146  0.00  0.00    +0.000 C 
ATOM     24  C   UNL     1      -2.020  12.902  22.192  0.00  0.00    +0.000 A 
ATOM     25  C   UNL     1      -1.825  13.605  21.045  0.00  0.00    +0.000 A 
ATOM     26  N   UNL     1      -1.095  12.787  20.202  0.00  0.00    +0.000 N 
ATOM     27  C   UNL     1      -0.779  13.113  18.811  0.00  0.00    +0.000 C 
ENDBRANCH  20  21
ENDBRANCH   4  19
TORSDOF 6
ENDMDL
MODEL 3
REMARK VINA RESULT:      -7.5      0.404      1.044
REMARK  Name = 
REMARK  10 active torsions:
REMARK  status: ('A' for Active; 'I' for Inactive)
REMARK    1  A    between atoms: C_1  and  C_2
REMARK    2  A    between atoms: C_2  and  N_3
REMARK    3  A    between atoms: N_5  and  C_6
REMARK    4  A    between atoms: C_6  and  C_7
REMARK    5  A    between atoms: N_8  and  N_9
REMARK    6  A    between atoms: C_10  and  C_11
REMARK    7  A    between atoms: C_14  and  C_15
REMARK    8  A    between atoms: C_16  and  C_17
REMARK    9  A    between atoms: N_18  and  C_19
REMARK   10  A    between atoms: N_22  and  C_23
REMARK                            x       y       z     vdW  Elec       q    Type
REMARK                         _______ _______ _______ _____ _____    ______ ____
ROOT
ATOM      1  C   UNL     1       3.077   6.384  18.266  0.00  0.00    +0.000 A 
ATOM      2  C   UNL     1       2.770   7.677  17.833  0.00  0.00    +0.000 A 
ATOM      3  C   UNL     1       2.057   8.548  18.665  0.00  0.00    +0.000 A 
ATOM      4  C   UNL     1       1.629   8.138  19.936  0.00  0.00    +0.000 A 
ATOM      5  C   UNL     1       1.970   6.849  20.372  0.00  0.00    +0.000 A 
ATOM      6  C   UNL     1       2.686   5.973  19.542  0.00  0.00    +0.000 A 
ENDROOT
BRANCH   1   8
ATOM      7  N   UNL     1       4.869   4.832  17.795  0.00  0.00    +0.000 NA
ATOM      8  C   UNL     1       3.807   5.441  17.383  0.00  0.00    +0.000 C 
BRANCH   7  12
ATOM      9  N   UNL     1       6.176   3.766  14.714  0.00  0.00    +0.000 NA
ATOM     10  C   UNL     1       6.247   4.429  15.826  0.00  0.00    +0.000 C 
ATOM     11  N   UNL     1       7.037   5.529  16.052  0.00  0.00    +0.000 N 
ATOM     12  N   UNL     1       5.471   3.994  16.886  0.00  0.00    +0.000 N 
ATOM     13  H   UNL     1       7.120   6.171  15.277  0.00  0.00    +0.000 HD
ATOM     14  H   UNL     1       4.975   3.143  16.619  0.00  0.00    +0.000 HD
BRANCH   9  16
ATOM     15  C   UNL     1       6.524   3.621  12.304  0.00  0.00    +0.000 C 
ATOM     16  C   UNL     1       7.052   4.184  13.619  0.00  0.00    +0.000 C 
ENDBRANCH   9  16
BRANCH  11  17
ATOM     17  C   UNL     1       7.390   6.041  17.359  0.00  0.00    +0.000 C 
ATOM     18  C   UNL     1       7.458   7.556  17.348  0.00  0.00    +0.000 C 
ENDBRANCH  11  17
ENDBRANCH   7  12
ENDBRANCH   1   8
BRANCH   4  19
ATOM     19  C   UNL     1       0.908   9.050  20.833  0.00  0.00    +0.000 C 
ATOM     20  C   UNL     1       0.178  10.094  20.397  0.00  0.00    +0.000 C 
BRANCH  20  21
ATOM     21  C   UNL     1      -0.498  11.154  21.218  0.00  0.00    +0.000 A 
ATOM     22  N   UNL     1      -0.887  12.404  20.874  0.00  0.00    +0.000 N 
ATOM     23  C   UNL     1      -0.942  12.982  19.532  0.00  0.00    +0.000 C 
ATOM     24  C   UNL     1      -1.409  13.055  21.982  0.00  0.00    +0.000 A 
ATOM     25  C   UNL     1      -1.398  12.166  23.011  0.00  0.00    +0.000 A 
ATOM     26  N   UNL     1      -0.847  10.998  22.516  0.00  0.00    +0.000 N 
ATOM     27  C   UNL     1      -0.534   9.826  23.334  0.00  0.00    +0.000 C 
ENDBRANCH  20  21
ENDBRANCH   4  19
TORSDOF 6
ENDMDL
MODEL 4
REMARK VINA RESULT:      -7.5      0.458      1.888
REMARK  Name = 
REMARK  10 active torsions:
REMARK  status: ('A' for Active; 'I' for Inactive)
REMARK    1  A    between atoms: C_1  and  C_2
REMARK    2  A    between atoms: C_2  and  N_3
REMARK    3  A    between atoms: N_5  and  C_6
REMARK    4  A    between atoms: C_6  and  C_7
REMARK    5  A    between atoms: N_8  and  N_9
REMARK    6  A    between atoms: C_10  and  C_11
REMARK    7  A    between atoms: C_14  and  C_15
REMARK    8  A    between atoms: C_16  and  C_17
REMARK    9  A    between atoms: N_18  and  C_19
REMARK   10  A    between atoms: N_22  and  C_23
REMARK                            x       y       z     vdW  Elec       q    Type
REMARK                         _______ _______ _______ _____ _____    ______ ____
ROOT
ATOM      1  C   UNL     1       3.311   6.438  18.073  0.00  0.00    +0.000 A 
ATOM      2  C   UNL     1       2.859   7.699  17.674  0.00  0.00    +0.000 A 
ATOM      3  C   UNL     1       2.064   8.467  18.533  0.00  0.00    +0.000 A 
ATOM      4  C   UNL     1       1.697   7.982  19.797  0.00  0.00    +0.000 A 
ATOM      5  C   UNL     1       2.183   6.730  20.199  0.00  0.00    +0.000 A 
ATOM      6  C   UNL     1       2.983   5.957  19.342  0.00  0.00    +0.000 A 
ENDROOT
BRANCH   1   8
ATOM      7  N   UNL     1       5.052   4.823  17.623  0.00  0.00    +0.000 NA
ATOM      8  C   UNL     1       4.131   5.602  17.162  0.00  0.00    +0.000 C 
BRANCH   7  12
ATOM      9  N   UNL     1       6.564   4.101  14.537  0.00  0.00    +0.000 NA
ATOM     10  C   UNL     1       6.536   4.682  15.695  0.00  0.00    +0.000 C 
ATOM     11  N   UNL     1       7.219   5.824  16.035  0.00  0.00    +0.000 N 
ATOM     12  N   UNL     1       5.758   4.107  16.685  0.00  0.00    +0.000 N 
ATOM     13  H   UNL     1       7.277   6.527  15.312  0.00  0.00    +0.000 HD
ATOM     14  H   UNL     1       5.347   3.241  16.336  0.00  0.00    +0.000 HD
BRANCH   9  16
ATOM     15  C   UNL     1       7.096   4.073  12.156  0.00  0.00    +0.000 C 
ATOM     16  C   UNL     1       7.444   4.671  13.516  0.00  0.00    +0.000 C 
ENDBRANCH   9  16
BRANCH  11  17
ATOM     17  C   UNL     1       7.476   6.264  17.389  0.00  0.00    +0.000 C 
ATOM     18  C   UNL     1       7.568   7.776  17.461  0.00  0.00    +0.000 C 
ENDBRANCH  11  17
ENDBRANCH   7  12
ENDBRANCH   1   8
BRANCH   4  19
ATOM     19  C   UNL     1       0.890   8.789  20.723  0.00  0.00    +0.000 C 
ATOM     20  C   UNL     1       0.360   9.982  20.395  0.00  0.00    +0.000 C 
BRANCH  20  21
ATOM     21  C   UNL     1      -0.375  10.941  21.287  0.00  0.00    +0.000 A 
ATOM     22  N   UNL     1      -0.742  10.814  22.583  0.00  0.00    +0.000 N 
ATOM     23  C   UNL     1      -0.325   9.780  23.530  0.00  0.00    +0.000 C 
ATOM     24  C   UNL     1      -1.469  11.927  22.977  0.00  0.00    +0.000 A 
ATOM     25  C   UNL     1      -1.496  12.782  21.920  0.00  0.00    +0.000 A 
ATOM     26  N   UNL     1      -0.804  12.162  20.895  0.00  0.00    +0.000 N 
ATOM     27  C   UNL     1      -0.706  12.689  19.533  0.00  0.00    +0.000 C 
ENDBRANCH  20  21
ENDBRANCH   4  19
TORSDOF 6
ENDMDL
MODEL 5
REMARK VINA RESULT:      -7.5      1.212      2.384
REMARK  Name = 
REMARK  10 active torsions:
REMARK  status: ('A' for Active; 'I' for Inactive)
REMARK    1  A    between atoms: C_1  and  C_2
REMARK    2  A    between atoms: C_2  and  N_3
REMARK    3  A    between atoms: N_5  and  C_6
REMARK    4  A    between atoms: C_6  and  C_7
REMARK    5  A    between atoms: N_8  and  N_9
REMARK    6  A    between atoms: C_10  and  C_11
REMARK    7  A    between atoms: C_14  and  C_15
REMARK    8  A    between atoms: C_16  and  C_17
REMARK    9  A    between atoms: N_18  and  C_19
REMARK   10  A    between atoms: N_22  and  C_23
REMARK                            x       y       z     vdW  Elec       q    Type
REMARK                         _______ _______ _______ _____ _____    ______ ____
ROOT
ATOM      1  C   UNL     1       2.463   7.268  18.551  0.00  0.00    +0.000 A 
ATOM      2  C   UNL     1       2.051   8.419  17.875  0.00  0.00    +0.000 A 
ATOM      3  C   UNL     1       1.391   9.444  18.564  0.00  0.00    +0.000 A 
ATOM      4  C   UNL     1       1.120   9.329  19.935  0.00  0.00    +0.000 A 
ATOM      5  C   UNL     1       1.567   8.183  20.610  0.00  0.00    +0.000 A 
ATOM      6  C   UNL     1       2.231   7.155  19.924  0.00  0.00    +0.000 A 
ENDROOT
BRANCH   1   8
ATOM      7  N   UNL     1       4.334   5.791  18.148  0.00  0.00    +0.000 NA
ATOM      8  C   UNL     1       3.139   6.163  17.829  0.00  0.00    +0.000 C 
BRANCH   7  12
ATOM      9  N   UNL     1       5.634   4.154  15.327  0.00  0.00    +0.000 NA
ATOM     10  C   UNL     1       5.738   4.953  16.342  0.00  0.00    +0.000 C 
ATOM     11  N   UNL     1       6.651   5.972  16.468  0.00  0.00    +0.000 N 
ATOM     12  N   UNL     1       4.865   4.768  17.400  0.00  0.00    +0.000 N 
ATOM     13  H   UNL     1       6.850   6.484  15.621  0.00  0.00    +0.000 HD
ATOM     14  H   UNL     1       4.277   3.954  17.218  0.00  0.00    +0.000 HD
BRANCH   9  16
ATOM     15  C   UNL     1       6.044   3.689  12.968  0.00  0.00    +0.000 C 
ATOM     16  C   UNL     1       6.606   4.306  14.243  0.00  0.00    +0.000 C 
ENDBRANCH   9  16
BRANCH  11  17
ATOM     17  C   UNL     1       7.006   6.616  17.715  0.00  0.00    +0.000 C 
ATOM     18  C   UNL     1       7.707   7.937  17.462  0.00  0.00    +0.000 C 
ENDBRANCH  11  17
ENDBRANCH   7  12
ENDBRANCH   1   8
BRANCH   4  19
ATOM     19  C   UNL     1       0.457  10.408  20.679  0.00  0.00    +0.000 C 
ATOM     20  C   UNL     1      -0.409  11.271  20.114  0.00  0.00    +0.000 C 
BRANCH  20  21
ATOM     21  C   UNL     1      -1.051  12.475  20.742  0.00  0.00    +0.000 A 
ATOM     22  N   UNL     1      -1.748  12.585  21.897  0.00  0.00    +0.000 N 
ATOM     23  C   UNL     1      -1.878  11.587  22.957  0.00  0.00    +0.000 C 
ATOM     24  C   UNL     1      -2.216  13.882  22.041  0.00  0.00    +0.000 A 
ATOM     25  C   UNL     1      -1.745  14.597  20.985  0.00  0.00    +0.000 A 
ATOM     26  N   UNL     1      -1.018  13.717  20.206  0.00  0.00    +0.000 N 
ATOM     27  C   UNL     1      -0.445  14.052  18.902  0.00  0.00    +0.000 C 
ENDBRANCH  20  21
ENDBRANCH   4  19
TORSDOF 6
ENDMDL
MODEL 6
REMARK VINA RESULT:      -7.4      1.437      1.930
REMARK  Name = 
REMARK  10 active torsions:
REMARK  status: ('A' for Active; 'I' for Inactive)
REMARK    1  A    between atoms: C_1  and  C_2
REMARK    2  A    between atoms: C_2  and  N_3
REMARK    3  A    between atoms: N_5  and  C_6
REMARK    4  A    between atoms: C_6  and  C_7
REMARK    5  A    between atoms: N_8  and  N_9
REMARK    6  A    between atoms: C_10  and  C_11
REMARK    7  A    between atoms: C_14  and  C_15
REMARK    8  A    between atoms: C_16  and  C_17
REMARK    9  A    between atoms: N_18  and  C_19
REMARK   10  A    between atoms: N_22  and  C_23
REMARK                            x       y       z     vdW  Elec       q    Type
REMARK                         _______ _______ _______ _____ _____    ______ ____
ROOT
ATOM      1  C   UNL     1       2.659   7.356  18.376  0.00  0.00    +0.000 A 
ATOM      2  C   UNL     1       2.286   8.461  17.606  0.00  0.00    +0.000 A 
ATOM      3  C   UNL     1       1.500   9.477  18.164  0.00  0.00    +0.000 A 
ATOM      4  C   UNL     1       1.064   9.398  19.494  0.00  0.00    +0.000 A 
ATOM      5  C   UNL     1       1.471   8.301  20.267  0.00  0.00    +0.000 A 
ATOM      6  C   UNL     1       2.261   7.282  19.713  0.00  0.00    +0.000 A 
ENDROOT
BRANCH   1   8
ATOM      7  N   UNL     1       4.542   5.841  18.372  0.00  0.00    +0.000 NA
ATOM      8  C   UNL     1       3.468   6.259  17.790  0.00  0.00    +0.000 C 
BRANCH   7  12
ATOM      9  N   UNL     1       6.077   4.118  15.725  0.00  0.00    +0.000 NA
ATOM     10  C   UNL     1       6.060   5.027  16.649  0.00  0.00    +0.000 C 
ATOM     11  N   UNL     1       6.815   6.174  16.656  0.00  0.00    +0.000 N 
ATOM     12  N   UNL     1       5.219   4.831  17.730  0.00  0.00    +0.000 N 
ATOM     13  H   UNL     1       6.942   6.617  15.757  0.00  0.00    +0.000 HD
ATOM     14  H   UNL     1       4.755   3.927  17.642  0.00  0.00    +0.000 HD
BRANCH   9  16
ATOM     15  C   UNL     1       6.346   3.901  13.310  0.00  0.00    +0.000 C 
ATOM     16  C   UNL     1       7.021   4.293  14.620  0.00  0.00    +0.000 C 
ENDBRANCH   9  16
BRANCH  11  17
ATOM     17  C   UNL     1       7.069   6.992  17.823  0.00  0.00    +0.000 C 
ATOM     18  C   UNL     1       7.720   8.306  17.435  0.00  0.00    +0.000 C 
ENDBRANCH  11  17
ENDBRANCH   7  12
ENDBRANCH   1   8
BRANCH   4  19
ATOM     19  C   UNL     1       0.265  10.470  20.104  0.00  0.00    +0.000 C 
ATOM     20  C   UNL     1       0.760  11.340  21.005  0.00  0.00    +0.000 C 
BRANCH  20  21
ATOM     21  C   UNL     1       0.015  12.392  21.776  0.00  0.00    +0.000 A 
ATOM     22  N   UNL     1       0.093  13.741  21.703  0.00  0.00    +0.000 N 
ATOM     23  C   UNL     1       0.778  14.540  20.688  0.00  0.00    +0.000 C 
ATOM     24  C   UNL     1      -0.733  14.311  22.660  0.00  0.00    +0.000 A 
ATOM     25  C   UNL     1      -1.376  13.293  23.291  0.00  0.00    +0.000 A 
ATOM     26  N   UNL     1      -0.913  12.121  22.722  0.00  0.00    +0.000 N 
ATOM     27  C   UNL     1      -1.256  10.782  23.202  0.00  0.00    +0.000 C 
ENDBRANCH  20  21
ENDBRANCH   4  19
TORSDOF 6
ENDMDL
MODEL 7
REMARK VINA RESULT:      -7.4      1.502      2.268
REMARK  Name = 
REMARK  10 active torsions:
REMARK  status: ('A' for Active; 'I' for Inactive)
REMARK    1  A    between atoms: C_1  and  C_2
REMARK    2  A    between atoms: C_2  and  N_3
REMARK    3  A    between atoms: N_5  and  C_6
REMARK    4  A    between atoms: C_6  and  C_7
REMARK    5  A    between atoms: N_8  and  N_9
REMARK    6  A    between atoms: C_10  and  C_11
REMARK    7  A    between atoms: C_14  and  C_15
REMARK    8  A    between atoms: C_16  and  C_17
REMARK    9  A    between atoms: N_18  and  C_19
REMARK   10  A    between atoms: N_22  and  C_23
REMARK                            x       y       z     vdW  Elec       q    Type
REMARK                         _______ _______ _______ _____ _____    ______ ____
ROOT
ATOM      1  C   UNL     1       2.441   7.060  18.619  0.00  0.00    +0.000 A 
ATOM      2  C   UNL     1       2.068   8.262  18.012  0.00  0.00    +0.000 A 
ATOM      3  C   UNL     1       1.415   9.254  18.752  0.00  0.00    +0.000 A 
ATOM      4  C   UNL     1       1.111   9.056  20.107  0.00  0.00    +0.000 A 
ATOM      5  C   UNL     1       1.519   7.859  20.714  0.00  0.00    +0.000 A 
ATOM      6  C   UNL     1       2.176   6.863  19.976  0.00  0.00    +0.000 A 
ENDROOT
BRANCH   1   8
ATOM      7  N   UNL     1       4.391   5.982  17.682  0.00  0.00    +0.000 NA
ATOM      8  C   UNL     1       3.109   5.989  17.840  0.00  0.00    +0.000 C 
BRANCH   7  12
ATOM      9  N   UNL     1       5.817   4.371  14.907  0.00  0.00    +0.000 NA
ATOM     10  C   UNL     1       5.890   5.101  15.975  0.00  0.00    +0.000 C 
ATOM     11  N   UNL     1       6.878   6.014  16.255  0.00  0.00    +0.000 N 
ATOM     12  N   UNL     1       4.897   4.950  16.927  0.00  0.00    +0.000 N 
ATOM     13  H   UNL     1       7.213   6.546  15.465  0.00  0.00    +0.000 HD
ATOM     14  H   UNL     1       4.256   4.211  16.638  0.00  0.00    +0.000 HD
BRANCH   9  16
ATOM     15  C   UNL     1       6.501   3.793  12.637  0.00  0.00    +0.000 C 
ATOM     16  C   UNL     1       6.908   4.480  13.937  0.00  0.00    +0.000 C 
ENDBRANCH   9  16
BRANCH  11  17
ATOM     17  C   UNL     1       7.160   6.552  17.568  0.00  0.00    +0.000 C 
ATOM     18  C   UNL     1       7.714   7.961  17.469  0.00  0.00    +0.000 C 
ENDBRANCH  11  17
ENDBRANCH   7  12
ENDBRANCH   1   8
BRANCH   4  19
ATOM     19  C   UNL     1       0.455  10.099  20.906  0.00  0.00    +0.000 C 
ATOM     20  C   UNL     1       0.695  11.414  20.747  0.00  0.00    +0.000 C 
BRANCH  20  21
ATOM     21  C   UNL     1       0.177  12.553  21.578  0.00  0.00    +0.000 A 
ATOM     22  N   UNL     1      -0.830  12.581  22.482  0.00  0.00    +0.000 N 
ATOM     23  C   UNL     1      -1.550  11.442  23.050  0.00  0.00    +0.000 C 
ATOM     24  C   UNL     1      -1.001  13.874  22.954  0.00  0.00    +0.000 A 
ATOM     25  C   UNL     1      -0.039  14.642  22.375  0.00  0.00    +0.000 A 
ATOM     26  N   UNL     1       0.685  13.806  21.544  0.00  0.00    +0.000 N 
ATOM     27  C   UNL     1       1.735  14.262  20.632  0.00  0.00    +0.000 C 
ENDBRANCH  20  21
ENDBRANCH   4  19
TORSDOF 6
ENDMDL
MODEL 8
REMARK VINA RESULT:      -7.4      1.637      2.389
REMARK  Name = 
REMARK  10 active torsions:
REMARK  status: ('A' for Active; 'I' for Inactive)
REMARK    1  A    between atoms: C_1  and  C_2
REMARK    2  A    between atoms: C_2  and  N_3
REMARK    3  A    between atoms: N_5  and  C_6
REMARK    4  A    between atoms: C_6  and  C_7
REMARK    5  A    between atoms: N_8  and  N_9
REMARK    6  A    between atoms: C_10  and  C_11
REMARK    7  A    between atoms: C_14  and  C_15
REMARK    8  A    between atoms: C_16  and  C_17
REMARK    9  A    between atoms: N_18  and  C_19
REMARK   10  A    between atoms: N_22  and  C_23
REMARK                            x       y       z     vdW  Elec       q    Type
REMARK                         _______ _______ _______ _____ _____    ______ ____
ROOT
ATOM      1  C   UNL     1       2.188   7.561  18.786  0.00  0.00    +0.000 A 
ATOM      2  C   UNL     1       1.845   7.647  20.138  0.00  0.00    +0.000 A 
ATOM      3  C   UNL     1       1.189   8.782  20.628  0.00  0.00    +0.000 A 
ATOM      4  C   UNL     1       0.876   9.853  19.778  0.00  0.00    +0.000 A 
ATOM      5  C   UNL     1       1.196   9.742  18.417  0.00  0.00    +0.000 A 
ATOM      6  C   UNL     1       1.852   8.605  17.921  0.00  0.00    +0.000 A 
ENDROOT
BRANCH   1   8
ATOM      7  N   UNL     1       3.920   6.512  17.465  0.00  0.00    +0.000 NA
ATOM      8  C   UNL     1       2.910   6.376  18.259  0.00  0.00    +0.000 C 
BRANCH   7  12
ATOM      9  N   UNL     1       5.519   4.298  15.259  0.00  0.00    +0.000 NA
ATOM     10  C   UNL     1       5.520   5.289  16.093  0.00  0.00    +0.000 C 
ATOM     11  N   UNL     1       6.454   6.295  16.140  0.00  0.00    +0.000 N 
ATOM     12  N   UNL     1       4.500   5.345  17.028  0.00  0.00    +0.000 N 
ATOM     13  H   UNL     1       6.793   6.615  15.245  0.00  0.00    +0.000 HD
ATOM     14  H   UNL     1       3.905   4.522  16.932  0.00  0.00    +0.000 HD
BRANCH   9  16
ATOM     15  C   UNL     1       6.137   3.660  12.986  0.00  0.00    +0.000 C 
ATOM     16  C   UNL     1       6.639   4.202  14.321  0.00  0.00    +0.000 C 
ENDBRANCH   9  16
BRANCH  11  17
ATOM     17  C   UNL     1       6.663   7.179  17.267  0.00  0.00    +0.000 C 
ATOM     18  C   UNL     1       7.658   6.585  18.246  0.00  0.00    +0.000 C 
ENDBRANCH  11  17
ENDBRANCH   7  12
ENDBRANCH   1   8
BRANCH   4  19
ATOM     19  C   UNL     1       0.159  11.037  20.269  0.00  0.00    +0.000 C 
ATOM     20  C   UNL     1       0.534  11.729  21.362  0.00  0.00    +0.000 C 
BRANCH  20  21
ATOM     21  C   UNL     1      -0.183  12.873  22.020  0.00  0.00    +0.000 A 
ATOM     22  N   UNL     1      -1.353  12.888  22.702  0.00  0.00    +0.000 N 
ATOM     23  C   UNL     1      -2.129  11.740  23.165  0.00  0.00    +0.000 C 
ATOM     24  C   UNL     1      -1.663  14.188  23.072  0.00  0.00    +0.000 A 
ATOM     25  C   UNL     1      -0.633  14.977  22.663  0.00  0.00    +0.000 A 
ATOM     26  N   UNL     1       0.274  14.146  22.032  0.00  0.00    +0.000 N 
ATOM     27  C   UNL     1       1.469  14.615  21.330  0.00  0.00    +0.000 C 
ENDBRANCH  20  21
ENDBRANCH   4  19
TORSDOF 6
ENDMDL
MODEL 9
REMARK VINA RESULT:      -7.4      1.547      1.908
REMARK  Name = 
REMARK  10 active torsions:
REMARK  status: ('A' for Active; 'I' for Inactive)
REMARK    1  A    between atoms: C_1  and  C_2
REMARK    2  A    between atoms: C_2  and  N_3
REMARK    3  A    between atoms: N_5  and  C_6
REMARK    4  A    between atoms: C_6  and  C_7
REMARK    5  A    between atoms: N_8  and  N_9
REMARK    6  A    between atoms: C_10  and  C_11
REMARK    7  A    between atoms: C_14  and  C_15
REMARK    8  A    between atoms: C_16  and  C_17
REMARK    9  A    between atoms: N_18  and  C_19
REMARK   10  A    between atoms: N_22  and  C_23
REMARK                            x       y       z     vdW  Elec       q    Type
REMARK                         _______ _______ _______ _____ _____    ______ ____
ROOT
ATOM      1  C   UNL     1       2.407   7.498  18.423  0.00  0.00    +0.000 A 
ATOM      2  C   UNL     1       2.085   7.513  19.783  0.00  0.00    +0.000 A 
ATOM      3  C   UNL     1       1.398   8.601  20.334  0.00  0.00    +0.000 A 
ATOM      4  C   UNL     1       1.034   9.697  19.538  0.00  0.00    +0.000 A 
ATOM      5  C   UNL     1       1.333   9.657  18.169  0.00  0.00    +0.000 A 
ATOM      6  C   UNL     1       2.019   8.567  17.612  0.00  0.00    +0.000 A 
ENDROOT
BRANCH   1   8
ATOM      7  N   UNL     1       4.327   6.037  18.277  0.00  0.00    +0.000 NA
ATOM      8  C   UNL     1       3.159   6.365  17.832  0.00  0.00    +0.000 C 
BRANCH   7  12
ATOM      9  N   UNL     1       5.787   4.217  15.653  0.00  0.00    +0.000 NA
ATOM     10  C   UNL     1       5.819   5.117  16.585  0.00  0.00    +0.000 C 
ATOM     11  N   UNL     1       6.663   6.200  16.622  0.00  0.00    +0.000 N 
ATOM     12  N   UNL     1       4.937   4.981  17.642  0.00  0.00    +0.000 N 
ATOM     13  H   UNL     1       6.848   6.638  15.731  0.00  0.00    +0.000 HD
ATOM     14  H   UNL     1       4.405   4.118  17.534  0.00  0.00    +0.000 HD
BRANCH   9  16
ATOM     15  C   UNL     1       6.201   3.697  13.305  0.00  0.00    +0.000 C 
ATOM     16  C   UNL     1       6.770   4.323  14.574  0.00  0.00    +0.000 C 
ENDBRANCH   9  16
BRANCH  11  17
ATOM     17  C   UNL     1       6.951   6.985  17.803  0.00  0.00    +0.000 C 
ATOM     18  C   UNL     1       7.875   8.142  17.473  0.00  0.00    +0.000 C 
ENDBRANCH  11  17
ENDBRANCH   7  12
ENDBRANCH   1   8
BRANCH   4  19
ATOM     19  C   UNL     1       0.285  10.832  20.094  0.00  0.00    +0.000 C 
ATOM     20  C   UNL     1       0.716  11.562  21.140  0.00  0.00    +0.000 C 
BRANCH  20  21
ATOM     21  C   UNL     1      -0.013  12.659  21.862  0.00  0.00    +0.000 A 
ATOM     22  N   UNL     1       0.162  14.000  21.807  0.00  0.00    +0.000 N 
ATOM     23  C   UNL     1       0.976  14.754  20.855  0.00  0.00    +0.000 C 
ATOM     24  C   UNL     1      -0.695  14.622  22.703  0.00  0.00    +0.000 A 
ATOM     25  C   UNL     1      -1.453  13.648  23.273  0.00  0.00    +0.000 A 
ATOM     26  N   UNL     1      -1.028  12.449  22.731  0.00  0.00    +0.000 N 
ATOM     27  C   UNL     1      -1.497  11.135  23.171  0.00  0.00    +0.000 C 
ENDBRANCH  20  21
ENDBRANCH   4  19
TORSDOF 6
ENDMDL
