MODEL 1
REMARK VINA RESULT:      -7.3      0.000      0.000
REMARK  Name = 
REMARK  4 active torsions:
REMARK  status: ('A' for Active; 'I' for Inactive)
REMARK    1  A    between atoms: C_1  and  C_2
REMARK    2  A    between atoms: C_2  and  C_3
REMARK    3  A    between atoms: C_11  and  C_12
REMARK    4  A    between atoms: C_12  and  O_14
REMARK                            x       y       z     vdW  Elec       q    Type
REMARK                         _______ _______ _______ _____ _____    ______ ____
ROOT
ATOM      1  C   UNL     1       7.542   7.786  17.914  0.00  0.00    +0.000 A 
ATOM      2  C   UNL     1       8.364   6.874  18.592  0.00  0.00    +0.000 A 
ATOM      3  C   UNL     1       7.845   5.664  19.070  0.00  0.00    +0.000 A 
ATOM      4  C   UNL     1       6.499   5.356  18.879  0.00  0.00    +0.000 A 
ATOM      5  O   UNL     1       6.047   4.167  19.395  0.00  0.00    +0.000 OA
ATOM      6  C   UNL     1       4.714   3.851  19.243  0.00  0.00    +0.000 A 
ATOM      7  N   UNL     1       4.342   2.673  19.794  0.00  0.00    +0.000 NA
ATOM      8  C   UNL     1       3.037   2.310  19.667  0.00  0.00    +0.000 A 
ATOM      9  C   UNL     1       2.075   3.083  19.025  0.00  0.00    +0.000 A 
ATOM     10  C   UNL     1       2.480   4.282  18.447  0.00  0.00    +0.000 A 
ATOM     11  C   UNL     1       3.815   4.666  18.574  0.00  0.00    +0.000 A 
ATOM     12  C   UNL     1       4.277   5.932  18.012  0.00  0.00    +0.000 A 
ATOM     13  O   UNL     1       3.497   6.681  17.435  0.00  0.00    +0.000 OA
ATOM     14  C   UNL     1       5.689   6.260  18.197  0.00  0.00    +0.000 A 
ATOM     15  C   UNL     1       6.195   7.467  17.715  0.00  0.00    +0.000 A 
ENDROOT
BRANCH   1  17
ATOM     16  C   UNL     1       8.871   9.801  18.556  0.00  0.00    +0.000 C 
ATOM     17  C   UNL     1       8.069   9.122  17.457  0.00  0.00    +0.000 C 
ENDBRANCH   1  17
BRANCH   9  18
ATOM     18  C   UNL     1       0.690   2.584  18.946  0.00  0.00    +0.000 C 
ATOM     19  O   UNL     1       0.326   1.823  18.068  0.00  0.00    +0.000 OA
BRANCH  18  20
ATOM     20  O   UNL     1      -0.118   3.008  19.937  0.00  0.00    +0.000 OA
ATOM     21  H   UNL     1       0.087   3.870  20.342  0.00  0.00    +0.000 HD
ENDBRANCH  18  20
ENDBRANCH   9  18
TORSDOF 3
ENDMDL
MODEL 2
REMARK VINA RESULT:      -7.1      3.412      5.731
REMARK  Name = 
REMARK  4 active torsions:
REMARK  status: ('A' for Active; 'I' for Inactive)
REMARK    1  A    between atoms: C_1  and  C_2
REMARK    2  A    between atoms: C_2  and  C_3
REMARK    3  A    between atoms: C_11  and  C_12
REMARK    4  A    between atoms: C_12  and  O_14
REMARK                            x       y       z     vdW  Elec       q    Type
REMARK                         _______ _______ _______ _____ _____    ______ ____
ROOT
ATOM      1  C   UNL     1       1.605   7.005  20.513  0.00  0.00    +0.000 A 
ATOM      2  C   UNL     1       1.477   5.661  20.892  0.00  0.00    +0.000 A 
ATOM      3  C   UNL     1       2.165   4.656  20.200  0.00  0.00    +0.000 A 
ATOM      4  C   UNL     1       2.983   4.984  19.120  0.00  0.00    +0.000 A 
ATOM      5  O   UNL     1       3.608   3.950  18.468  0.00  0.00    +0.000 OA
ATOM      6  C   UNL     1       4.402   4.245  17.381  0.00  0.00    +0.000 A 
ATOM      7  N   UNL     1       4.968   3.172  16.781  0.00  0.00    +0.000 NA
ATOM      8  C   UNL     1       5.766   3.409  15.706  0.00  0.00    +0.000 A 
ATOM      9  C   UNL     1       6.015   4.676  15.186  0.00  0.00    +0.000 A 
ATOM     10  C   UNL     1       5.441   5.768  15.828  0.00  0.00    +0.000 A 
ATOM     11  C   UNL     1       4.618   5.538  16.930  0.00  0.00    +0.000 A 
ATOM     12  C   UNL     1       3.967   6.652  17.613  0.00  0.00    +0.000 A 
ATOM     13  O   UNL     1       4.123   7.802  17.221  0.00  0.00    +0.000 OA
ATOM     14  C   UNL     1       3.115   6.320  18.754  0.00  0.00    +0.000 A 
ATOM     15  C   UNL     1       2.437   7.330  19.436  0.00  0.00    +0.000 A 
ENDROOT
BRANCH   1  17
ATOM     16  C   UNL     1       0.710   9.330  20.328  0.00  0.00    +0.000 C 
ATOM     17  C   UNL     1       0.817   8.089  21.202  0.00  0.00    +0.000 C 
ENDBRANCH   1  17
BRANCH   9  18
ATOM     18  C   UNL     1       6.903   4.809  14.017  0.00  0.00    +0.000 C 
ATOM     19  O   UNL     1       7.838   5.589  14.001  0.00  0.00    +0.000 OA
BRANCH  18  20
ATOM     20  O   UNL     1       6.616   3.981  12.995  0.00  0.00    +0.000 OA
ATOM     21  H   UNL     1       7.315   3.829  12.333  0.00  0.00    +0.000 HD
ENDBRANCH  18  20
ENDBRANCH   9  18
TORSDOF 3
ENDMDL
MODEL 3
REMARK VINA RESULT:      -7.0      3.808      5.298
REMARK  Name = 
REMARK  4 active torsions:
REMARK  status: ('A' for Active; 'I' for Inactive)
REMARK    1  A    between atoms: C_1  and  C_2
REMARK    2  A    between atoms: C_2  and  C_3
REMARK    3  A    between atoms: C_11  and  C_12
REMARK    4  A    between atoms: C_12  and  O_14
REMARK                            x       y       z     vdW  Elec       q    Type
REMARK                         _______ _______ _______ _____ _____    ______ ____
ROOT
ATOM      1  C   UNL     1       0.856   9.963  19.785  0.00  0.00    +0.000 A 
ATOM      2  C   UNL     1       1.382  10.289  18.526  0.00  0.00    +0.000 A 
ATOM      3  C   UNL     1       2.134   9.355  17.803  0.00  0.00    +0.000 A 
ATOM      4  C   UNL     1       2.373   8.087  18.333  0.00  0.00    +0.000 A 
ATOM      5  O   UNL     1       3.139   7.228  17.586  0.00  0.00    +0.000 OA
ATOM      6  C   UNL     1       3.411   5.978  18.099  0.00  0.00    +0.000 A 
ATOM      7  N   UNL     1       4.187   5.197  17.313  0.00  0.00    +0.000 NA
ATOM      8  C   UNL     1       4.481   3.950  17.771  0.00  0.00    +0.000 A 
ATOM      9  C   UNL     1       4.046   3.448  18.994  0.00  0.00    +0.000 A 
ATOM     10  C   UNL     1       3.232   4.258  19.778  0.00  0.00    +0.000 A 
ATOM     11  C   UNL     1       2.927   5.540  19.321  0.00  0.00    +0.000 A 
ATOM     12  C   UNL     1       2.105   6.436  20.129  0.00  0.00    +0.000 A 
ATOM     13  O   UNL     1       1.683   6.082  21.223  0.00  0.00    +0.000 OA
ATOM     14  C   UNL     1       1.840   7.764  19.578  0.00  0.00    +0.000 A 
ATOM     15  C   UNL     1       1.087   8.686  20.306  0.00  0.00    +0.000 A 
ENDROOT
BRANCH   1  17
ATOM     16  C   UNL     1      -0.241  10.429  21.980  0.00  0.00    +0.000 C 
ATOM     17  C   UNL     1       0.105  10.980  20.605  0.00  0.00    +0.000 C 
ENDBRANCH   1  17
BRANCH   9  18
ATOM     18  C   UNL     1       4.425   2.077  19.382  0.00  0.00    +0.000 C 
ATOM     19  O   UNL     1       5.005   1.838  20.425  0.00  0.00    +0.000 OA
BRANCH  18  20
ATOM     20  O   UNL     1       4.048   1.121  18.512  0.00  0.00    +0.000 OA
ATOM     21  H   UNL     1       3.870   1.398  17.594  0.00  0.00    +0.000 HD
ENDBRANCH  18  20
ENDBRANCH   9  18
TORSDOF 3
ENDMDL
MODEL 4
REMARK VINA RESULT:      -6.9      4.424      6.232
REMARK  Name = 
REMARK  4 active torsions:
REMARK  status: ('A' for Active; 'I' for Inactive)
REMARK    1  A    between atoms: C_1  and  C_2
REMARK    2  A    between atoms: C_2  and  C_3
REMARK    3  A    between atoms: C_11  and  C_12
REMARK    4  A    between atoms: C_12  and  O_14
REMARK                            x       y       z     vdW  Elec       q    Type
REMARK                         _______ _______ _______ _____ _____    ______ ____
ROOT
ATOM      1  C   UNL     1      -0.204  10.349  20.319  0.00  0.00    +0.000 A 
ATOM      2  C   UNL     1      -0.225   9.501  21.436  0.00  0.00    +0.000 A 
ATOM      3  C   UNL     1       0.574   8.350  21.472  0.00  0.00    +0.000 A 
ATOM      4  C   UNL     1       1.396   8.034  20.392  0.00  0.00    +0.000 A 
ATOM      5  O   UNL     1       2.132   6.879  20.479  0.00  0.00    +0.000 OA
ATOM      6  C   UNL     1       2.933   6.530  19.413  0.00  0.00    +0.000 A 
ATOM      7  N   UNL     1       3.613   5.371  19.567  0.00  0.00    +0.000 NA
ATOM      8  C   UNL     1       4.423   4.983  18.545  0.00  0.00    +0.000 A 
ATOM      9  C   UNL     1       4.575   5.696  17.360  0.00  0.00    +0.000 A 
ATOM     10  C   UNL     1       3.884   6.897  17.229  0.00  0.00    +0.000 A 
ATOM     11  C   UNL     1       3.048   7.303  18.268  0.00  0.00    +0.000 A 
ATOM     12  C   UNL     1       2.278   8.538  18.158  0.00  0.00    +0.000 A 
ATOM     13  O   UNL     1       2.343   9.228  17.147  0.00  0.00    +0.000 OA
ATOM     14  C   UNL     1       1.420   8.885  19.290  0.00  0.00    +0.000 A 
ATOM     15  C   UNL     1       0.631  10.035  19.243  0.00  0.00    +0.000 A 
ENDROOT
BRANCH   1  17
ATOM     16  C   UNL     1      -1.158  12.104  18.820  0.00  0.00    +0.000 C 
ATOM     17  C   UNL     1      -1.109  11.552  20.236  0.00  0.00    +0.000 C 
ENDBRANCH   1  17
BRANCH   9  18
ATOM     18  C   UNL     1       5.487   5.179  16.324  0.00  0.00    +0.000 C 
ATOM     19  O   UNL     1       5.825   5.851  15.367  0.00  0.00    +0.000 OA
BRANCH  18  20
ATOM     20  O   UNL     1       5.935   3.928  16.543  0.00  0.00    +0.000 OA
ATOM     21  H   UNL     1       5.739   3.529  17.410  0.00  0.00    +0.000 HD
ENDBRANCH  18  20
ENDBRANCH   9  18
TORSDOF 3
ENDMDL
MODEL 5
REMARK VINA RESULT:      -6.8      4.013      6.274
REMARK  Name = 
REMARK  4 active torsions:
REMARK  status: ('A' for Active; 'I' for Inactive)
REMARK    1  A    between atoms: C_1  and  C_2
REMARK    2  A    between atoms: C_2  and  C_3
REMARK    3  A    between atoms: C_11  and  C_12
REMARK    4  A    between atoms: C_12  and  O_14
REMARK                            x       y       z     vdW  Elec       q    Type
REMARK                         _______ _______ _______ _____ _____    ______ ____
ROOT
ATOM      1  C   UNL     1       0.528   8.661  20.952  0.00  0.00    +0.000 A 
ATOM      2  C   UNL     1       0.438   9.631  19.942  0.00  0.00    +0.000 A 
ATOM      3  C   UNL     1       1.203   9.516  18.774  0.00  0.00    +0.000 A 
ATOM      4  C   UNL     1       2.068   8.436  18.607  0.00  0.00    +0.000 A 
ATOM      5  O   UNL     1       2.809   8.397  17.452  0.00  0.00    +0.000 OA
ATOM      6  C   UNL     1       3.691   7.353  17.274  0.00  0.00    +0.000 A 
ATOM      7  N   UNL     1       4.398   7.395  16.121  0.00  0.00    +0.000 NA
ATOM      8  C   UNL     1       5.279   6.384  15.893  0.00  0.00    +0.000 A 
ATOM      9  C   UNL     1       5.502   5.333  16.777  0.00  0.00    +0.000 A 
ATOM     10  C   UNL     1       4.751   5.296  17.948  0.00  0.00    +0.000 A 
ATOM     11  C   UNL     1       3.847   6.329  18.194  0.00  0.00    +0.000 A 
ATOM     12  C   UNL     1       3.064   6.348  19.426  0.00  0.00    +0.000 A 
ATOM     13  O   UNL     1       3.199   5.466  20.266  0.00  0.00    +0.000 OA
ATOM     14  C   UNL     1       2.146   7.471  19.607  0.00  0.00    +0.000 A 
ATOM     15  C   UNL     1       1.387   7.573  20.774  0.00  0.00    +0.000 A 
ENDROOT
BRANCH   1  17
ATOM     16  C   UNL     1      -0.415  10.271  22.613  0.00  0.00    +0.000 C 
ATOM     17  C   UNL     1      -0.236   8.807  22.243  0.00  0.00    +0.000 C 
ENDBRANCH   1  17
BRANCH   9  18
ATOM     18  C   UNL     1       6.480   4.290  16.419  0.00  0.00    +0.000 C 
ATOM     19  O   UNL     1       7.674   4.430  16.616  0.00  0.00    +0.000 OA
BRANCH  18  20
ATOM     20  O   UNL     1       5.944   3.171  15.897  0.00  0.00    +0.000 OA
ATOM     21  H   UNL     1       5.240   3.281  15.232  0.00  0.00    +0.000 HD
ENDBRANCH  18  20
ENDBRANCH   9  18
TORSDOF 3
ENDMDL
MODEL 6
REMARK VINA RESULT:      -6.8      3.511      5.620
REMARK  Name = 
REMARK  4 active torsions:
REMARK  status: ('A' for Active; 'I' for Inactive)
REMARK    1  A    between atoms: C_1  and  C_2
REMARK    2  A    between atoms: C_2  and  C_3
REMARK    3  A    between atoms: C_11  and  C_12
REMARK    4  A    between atoms: C_12  and  O_14
REMARK                            x       y       z     vdW  Elec       q    Type
REMARK                         _______ _______ _______ _____ _____    ______ ____
ROOT
ATOM      1  C   UNL     1       1.280   7.974  20.392  0.00  0.00    +0.000 A 
ATOM      2  C   UNL     1       1.209   6.732  21.040  0.00  0.00    +0.000 A 
ATOM      3  C   UNL     1       1.927   5.632  20.553  0.00  0.00    +0.000 A 
ATOM      4  C   UNL     1       2.716   5.761  19.411  0.00  0.00    +0.000 A 
ATOM      5  O   UNL     1       3.372   4.638  18.970  0.00  0.00    +0.000 OA
ATOM      6  C   UNL     1       4.138   4.732  17.829  0.00  0.00    +0.000 A 
ATOM      7  N   UNL     1       4.737   3.580  17.448  0.00  0.00    +0.000 NA
ATOM      8  C   UNL     1       5.510   3.620  16.330  0.00  0.00    +0.000 A 
ATOM      9  C   UNL     1       5.702   4.761  15.558  0.00  0.00    +0.000 A 
ATOM     10  C   UNL     1       5.095   5.941  15.976  0.00  0.00    +0.000 A 
ATOM     11  C   UNL     1       4.297   5.912  17.119  0.00  0.00    +0.000 A 
ATOM     12  C   UNL     1       3.613   7.119  17.575  0.00  0.00    +0.000 A 
ATOM     13  O   UNL     1       3.719   8.169  16.953  0.00  0.00    +0.000 OA
ATOM     14  C   UNL     1       2.791   6.998  18.777  0.00  0.00    +0.000 A 
ATOM     15  C   UNL     1       2.083   8.101  19.254  0.00  0.00    +0.000 A 
ENDROOT
BRANCH   1  17
ATOM     16  C   UNL     1       0.539  10.303  19.876  0.00  0.00    +0.000 C 
ATOM     17  C   UNL     1       0.460   9.148  20.863  0.00  0.00    +0.000 C 
ENDBRANCH   1  17
BRANCH   9  18
ATOM     18  C   UNL     1       6.568   4.684  14.367  0.00  0.00    +0.000 C 
ATOM     19  O   UNL     1       6.280   3.999  13.402  0.00  0.00    +0.000 OA
BRANCH  18  20
ATOM     20  O   UNL     1       7.671   5.455  14.422  0.00  0.00    +0.000 OA
ATOM     21  H   UNL     1       8.407   5.141  14.978  0.00  0.00    +0.000 HD
ENDBRANCH  18  20
ENDBRANCH   9  18
TORSDOF 3
ENDMDL
MODEL 7
REMARK VINA RESULT:      -6.8      3.301      6.541
REMARK  Name = 
REMARK  4 active torsions:
REMARK  status: ('A' for Active; 'I' for Inactive)
REMARK    1  A    between atoms: C_1  and  C_2
REMARK    2  A    between atoms: C_2  and  C_3
REMARK    3  A    between atoms: C_11  and  C_12
REMARK    4  A    between atoms: C_12  and  O_14
REMARK                            x       y       z     vdW  Elec       q    Type
REMARK                         _______ _______ _______ _____ _____    ______ ____
ROOT
ATOM      1  C   UNL     1       1.731   4.039  20.474  0.00  0.00    +0.000 A 
ATOM      2  C   UNL     1       1.701   5.435  20.611  0.00  0.00    +0.000 A 
ATOM      3  C   UNL     1       2.404   6.254  19.718  0.00  0.00    +0.000 A 
ATOM      4  C   UNL     1       3.146   5.686  18.683  0.00  0.00    +0.000 A 
ATOM      5  O   UNL     1       3.833   6.543  17.859  0.00  0.00    +0.000 OA
ATOM      6  C   UNL     1       4.595   6.006  16.845  0.00  0.00    +0.000 A 
ATOM      7  N   UNL     1       5.256   6.912  16.088  0.00  0.00    +0.000 NA
ATOM      8  C   UNL     1       6.019   6.434  15.068  0.00  0.00    +0.000 A 
ATOM      9  C   UNL     1       6.168   5.082  14.776  0.00  0.00    +0.000 A 
ATOM     10  C   UNL     1       5.464   4.166  15.552  0.00  0.00    +0.000 A 
ATOM     11  C   UNL     1       4.681   4.644  16.602  0.00  0.00    +0.000 A 
ATOM     12  C   UNL     1       3.954   3.716  17.463  0.00  0.00    +0.000 A 
ATOM     13  O   UNL     1       4.031   2.506  17.285  0.00  0.00    +0.000 OA
ATOM     14  C   UNL     1       3.164   4.301  18.545  0.00  0.00    +0.000 A 
ATOM     15  C   UNL     1       2.466   3.475  19.427  0.00  0.00    +0.000 A 
ENDROOT
BRANCH   1  17
ATOM     16  C   UNL     1       2.000   2.112  22.041  0.00  0.00    +0.000 C 
ATOM     17  C   UNL     1       1.038   3.143  21.468  0.00  0.00    +0.000 C 
ENDBRANCH   1  17
BRANCH   9  18
ATOM     18  C   UNL     1       7.019   4.683  13.641  0.00  0.00    +0.000 C 
ATOM     19  O   UNL     1       6.732   3.749  12.915  0.00  0.00    +0.000 OA
BRANCH  18  20
ATOM     20  O   UNL     1       8.109   5.453  13.457  0.00  0.00    +0.000 OA
ATOM     21  H   UNL     1       8.579   5.758  14.255  0.00  0.00    +0.000 HD
ENDBRANCH  18  20
ENDBRANCH   9  18
TORSDOF 3
ENDMDL
MODEL 8
REMARK VINA RESULT:      -6.8      4.514      5.859
REMARK  Name = 
REMARK  4 active torsions:
REMARK  status: ('A' for Active; 'I' for Inactive)
REMARK    1  A    between atoms: C_1  and  C_2
REMARK    2  A    between atoms: C_2  and  C_3
REMARK    3  A    between atoms: C_11  and  C_12
REMARK    4  A    between atoms: C_12  and  O_14
REMARK                            x       y       z     vdW  Elec       q    Type
REMARK                         _______ _______ _______ _____ _____    ______ ____
ROOT
ATOM      1  C   UNL     1       0.298  11.008  19.861  0.00  0.00    +0.000 A 
ATOM      2  C   UNL     1       0.021  10.427  21.108  0.00  0.00    +0.000 A 
ATOM      3  C   UNL     1       0.476   9.138  21.411  0.00  0.00    +0.000 A 
ATOM      4  C   UNL     1       1.207   8.414  20.470  0.00  0.00    +0.000 A 
ATOM      5  O   UNL     1       1.600   7.146  20.820  0.00  0.00    +0.000 OA
ATOM      6  C   UNL     1       2.302   6.400  19.898  0.00  0.00    +0.000 A 
ATOM      7  N   UNL     1       2.638   5.156  20.309  0.00  0.00    +0.000 NA
ATOM      8  C   UNL     1       3.337   4.379  19.438  0.00  0.00    +0.000 A 
ATOM      9  C   UNL     1       3.706   4.784  18.159  0.00  0.00    +0.000 A 
ATOM     10  C   UNL     1       3.370   6.074  17.762  0.00  0.00    +0.000 A 
ATOM     11  C   UNL     1       2.650   6.879  18.645  0.00  0.00    +0.000 A 
ATOM     12  C   UNL     1       2.247   8.227  18.255  0.00  0.00    +0.000 A 
ATOM     13  O   UNL     1       2.522   8.665  17.145  0.00  0.00    +0.000 OA
ATOM     14  C   UNL     1       1.489   8.998  19.238  0.00  0.00    +0.000 A 
ATOM     15  C   UNL     1       1.043  10.283  18.926  0.00  0.00    +0.000 A 
ENDROOT
BRANCH   1  17
ATOM     16  C   UNL     1      -1.257  12.264  18.364  0.00  0.00    +0.000 C 
ATOM     17  C   UNL     1      -0.244  12.365  19.494  0.00  0.00    +0.000 C 
ENDBRANCH   1  17
BRANCH   9  18
ATOM     18  C   UNL     1       4.468   3.855  17.305  0.00  0.00    +0.000 C 
ATOM     19  O   UNL     1       5.201   4.248  16.416  0.00  0.00    +0.000 OA
BRANCH  18  20
ATOM     20  O   UNL     1       4.313   2.553  17.612  0.00  0.00    +0.000 OA
ATOM     21  H   UNL     1       4.822   1.907  17.089  0.00  0.00    +0.000 HD
ENDBRANCH  18  20
ENDBRANCH   9  18
TORSDOF 3
ENDMDL
MODEL 9
REMARK VINA RESULT:      -6.7      3.780      5.670
REMARK  Name = 
REMARK  4 active torsions:
REMARK  status: ('A' for Active; 'I' for Inactive)
REMARK    1  A    between atoms: C_1  and  C_2
REMARK    2  A    between atoms: C_2  and  C_3
REMARK    3  A    between atoms: C_11  and  C_12
REMARK    4  A    between atoms: C_12  and  O_14
REMARK                            x       y       z     vdW  Elec       q    Type
REMARK                         _______ _______ _______ _____ _____    ______ ____
ROOT
ATOM      1  C   UNL     1       0.582   9.477  19.743  0.00  0.00    +0.000 A 
ATOM      2  C   UNL     1       0.540   8.668  20.888  0.00  0.00    +0.000 A 
ATOM      3  C   UNL     1       1.355   7.533  20.989  0.00  0.00    +0.000 A 
ATOM      4  C   UNL     1       2.215   7.193  19.945  0.00  0.00    +0.000 A 
ATOM      5  O   UNL     1       2.967   6.054  20.096  0.00  0.00    +0.000 OA
ATOM      6  C   UNL     1       3.805   5.682  19.067  0.00  0.00    +0.000 A 
ATOM      7  N   UNL     1       4.498   4.540  19.283  0.00  0.00    +0.000 NA
ATOM      8  C   UNL     1       5.345   4.131  18.300  0.00  0.00    +0.000 A 
ATOM      9  C   UNL     1       5.522   4.805  17.096  0.00  0.00    +0.000 A 
ATOM     10  C   UNL     1       4.817   5.988  16.901  0.00  0.00    +0.000 A 
ATOM     11  C   UNL     1       3.943   6.416  17.900  0.00  0.00    +0.000 A 
ATOM     12  C   UNL     1       3.157   7.633  17.722  0.00  0.00    +0.000 A 
ATOM     13  O   UNL     1       3.243   8.288  16.690  0.00  0.00    +0.000 OA
ATOM     14  C   UNL     1       2.260   8.005  18.815  0.00  0.00    +0.000 A 
ATOM     15  C   UNL     1       1.455   9.139  18.704  0.00  0.00    +0.000 A 
ENDROOT
BRANCH   1  17
ATOM     16  C   UNL     1      -0.079  11.701  20.669  0.00  0.00    +0.000 C 
ATOM     17  C   UNL     1      -0.339  10.661  19.590  0.00  0.00    +0.000 C 
ENDBRANCH   1  17
BRANCH   9  18
ATOM     18  C   UNL     1       6.473   4.267  16.106  0.00  0.00    +0.000 C 
ATOM     19  O   UNL     1       6.102   3.735  15.076  0.00  0.00    +0.000 OA
BRANCH  18  20
ATOM     20  O   UNL     1       7.771   4.444  16.419  0.00  0.00    +0.000 OA
ATOM     21  H   UNL     1       8.425   3.911  15.931  0.00  0.00    +0.000 HD
ENDBRANCH  18  20
ENDBRANCH   9  18
TORSDOF 3
ENDMDL
