MODEL 1
REMARK VINA RESULT:      -8.0      0.000      0.000
REMARK  Name = 
REMARK  1 active torsions:
REMARK  status: ('A' for Active; 'I' for Inactive)
REMARK    1  A    between atoms: C_9  and  C_11
REMARK                            x       y       z     vdW  Elec       q    Type
REMARK                         _______ _______ _______ _____ _____    ______ ____
ROOT
ATOM      1  N   UNL     1       2.601   1.801  17.964  0.00  0.00    +0.000 N 
ATOM      2  C   UNL     1       3.259   3.011  17.876  0.00  0.00    +0.000 A 
ATOM      3  N   UNL     1       2.679   4.070  18.463  0.00  0.00    +0.000 NA
ATOM      4  C   UNL     1       3.276   5.282  18.410  0.00  0.00    +0.000 A 
ATOM      5  N   UNL     1       2.708   6.387  19.038  0.00  0.00    +0.000 N 
ATOM      6  C   UNL     1       1.692   6.124  20.075  0.00  0.00    +0.000 C 
ATOM      7  C   UNL     1       1.542   7.397  20.932  0.00  0.00    +0.000 C 
ATOM      8  N   UNL     1       1.233   8.575  20.097  0.00  0.00    +0.000 N 
ATOM      9  C   UNL     1       0.255   9.458  20.547  0.00  0.00    +0.000 C 
ATOM     10  O   UNL     1      -0.324   9.297  21.620  0.00  0.00    +0.000 OA
ATOM     11  C   UNL     1       2.206   8.780  19.004  0.00  0.00    +0.000 C 
ATOM     12  C   UNL     1       2.336   7.504  18.148  0.00  0.00    +0.000 C 
ATOM     13  C   UNL     1       4.527   5.372  17.768  0.00  0.00    +0.000 A 
ATOM     14  C   UNL     1       5.487   6.429  17.624  0.00  0.00    +0.000 A 
ATOM     15  C   UNL     1       6.562   6.045  16.871  0.00  0.00    +0.000 A 
ATOM     16  F   UNL     1       7.550   6.850  16.580  0.00  0.00    +0.000 F 
ATOM     17  S   UNL     1       6.485   4.433  16.368  0.00  0.00    +0.000 S 
ATOM     18  C   UNL     1       4.992   4.213  17.170  0.00  0.00    +0.000 A 
ATOM     19  N   UNL     1       4.385   3.023  17.174  0.00  0.00    +0.000 NA
ATOM     20  H   UNL     1       1.612   1.957  18.119  0.00  0.00    +0.000 HD
ATOM     21  H   UNL     1       2.861   1.201  17.190  0.00  0.00    +0.000 HD
ENDROOT
BRANCH   9  22
ATOM     22  C   UNL     1      -0.145  10.641  19.753  0.00  0.00    +0.000 A 
ATOM     23  C   UNL     1      -1.150  10.511  18.791  0.00  0.00    +0.000 A 
ATOM     24  C   UNL     1      -1.520  11.615  18.025  0.00  0.00    +0.000 A 
ATOM     25  C   UNL     1      -0.874  12.819  18.253  0.00  0.00    +0.000 A 
ATOM     26  N   UNL     1       0.134  12.973  19.140  0.00  0.00    +0.000 NA
ATOM     27  C   UNL     1       0.498  11.868  19.839  0.00  0.00    +0.000 A 
ENDBRANCH   9  22
TORSDOF 1
ENDMDL
MODEL 2
REMARK VINA RESULT:      -7.8      2.989      3.911
REMARK  Name = 
REMARK  1 active torsions:
REMARK  status: ('A' for Active; 'I' for Inactive)
REMARK    1  A    between atoms: C_9  and  C_11
REMARK                            x       y       z     vdW  Elec       q    Type
REMARK                         _______ _______ _______ _____ _____    ______ ____
ROOT
ATOM      1  N   UNL     1       6.065   5.559  17.552  0.00  0.00    +0.000 N 
ATOM      2  C   UNL     1       4.904   5.440  18.289  0.00  0.00    +0.000 A 
ATOM      3  N   UNL     1       4.086   6.504  18.324  0.00  0.00    +0.000 NA
ATOM      4  C   UNL     1       2.934   6.447  19.030  0.00  0.00    +0.000 A 
ATOM      5  N   UNL     1       2.057   7.527  19.056  0.00  0.00    +0.000 N 
ATOM      6  C   UNL     1       2.208   8.544  17.997  0.00  0.00    +0.000 C 
ATOM      7  C   UNL     1       0.906   9.366  17.933  0.00  0.00    +0.000 C 
ATOM      8  N   UNL     1       0.565   9.940  19.249  0.00  0.00    +0.000 N 
ATOM      9  C   UNL     1       0.125  11.260  19.293  0.00  0.00    +0.000 C 
ATOM     10  O   UNL     1      -0.013  11.935  18.275  0.00  0.00    +0.000 OA
ATOM     11  C   UNL     1       0.504   8.928  20.323  0.00  0.00    +0.000 C 
ATOM     12  C   UNL     1       1.817   8.123  20.385  0.00  0.00    +0.000 C 
ATOM     13  C   UNL     1       2.615   5.234  19.671  0.00  0.00    +0.000 A 
ATOM     14  C   UNL     1       1.460   4.771  20.387  0.00  0.00    +0.000 A 
ATOM     15  C   UNL     1       1.629   3.501  20.867  0.00  0.00    +0.000 A 
ATOM     16  F   UNL     1       0.722   2.882  21.575  0.00  0.00    +0.000 F 
ATOM     17  S   UNL     1       3.117   2.819  20.443  0.00  0.00    +0.000 S 
ATOM     18  C   UNL     1       3.565   4.229  19.588  0.00  0.00    +0.000 A 
ATOM     19  N   UNL     1       4.729   4.294  18.935  0.00  0.00    +0.000 NA
ATOM     20  H   UNL     1       6.318   6.536  17.464  0.00  0.00    +0.000 HD
ATOM     21  H   UNL     1       6.773   4.927  17.904  0.00  0.00    +0.000 HD
ENDROOT
BRANCH   9  22
ATOM     22  C   UNL     1      -0.197  11.927  20.574  0.00  0.00    +0.000 A 
ATOM     23  C   UNL     1      -1.408  11.637  21.210  0.00  0.00    +0.000 A 
ATOM     24  C   UNL     1      -1.730  12.274  22.406  0.00  0.00    +0.000 A 
ATOM     25  C   UNL     1      -0.823  13.179  22.933  0.00  0.00    +0.000 A 
ATOM     26  N   UNL     1       0.334  13.521  22.325  0.00  0.00    +0.000 NA
ATOM     27  C   UNL     1       0.597  12.914  21.140  0.00  0.00    +0.000 A 
ENDBRANCH   9  22
TORSDOF 1
ENDMDL
MODEL 3
REMARK VINA RESULT:      -7.8      3.858      8.027
REMARK  Name = 
REMARK  1 active torsions:
REMARK  status: ('A' for Active; 'I' for Inactive)
REMARK    1  A    between atoms: C_9  and  C_11
REMARK                            x       y       z     vdW  Elec       q    Type
REMARK                         _______ _______ _______ _____ _____    ______ ____
ROOT
ATOM      1  N   UNL     1      -0.020  12.458  21.915  0.00  0.00    +0.000 N 
ATOM      2  C   UNL     1      -0.256  11.718  20.774  0.00  0.00    +0.000 A 
ATOM      3  N   UNL     1       0.507  10.630  20.578  0.00  0.00    +0.000 NA
ATOM      4  C   UNL     1       0.322   9.866  19.479  0.00  0.00    +0.000 A 
ATOM      5  N   UNL     1       1.080   8.717  19.271  0.00  0.00    +0.000 N 
ATOM      6  C   UNL     1       1.774   8.147  20.442  0.00  0.00    +0.000 C 
ATOM      7  C   UNL     1       2.151   6.689  20.112  0.00  0.00    +0.000 C 
ATOM      8  N   UNL     1       2.940   6.605  18.867  0.00  0.00    +0.000 N 
ATOM      9  C   UNL     1       4.046   5.759  18.849  0.00  0.00    +0.000 C 
ATOM     10  O   UNL     1       4.356   5.071  19.820  0.00  0.00    +0.000 OA
ATOM     11  C   UNL     1       2.279   7.258  17.718  0.00  0.00    +0.000 C 
ATOM     12  C   UNL     1       1.920   8.718  18.057  0.00  0.00    +0.000 C 
ATOM     13  C   UNL     1      -0.713  10.226  18.593  0.00  0.00    +0.000 A 
ATOM     14  C   UNL     1      -1.269   9.607  17.424  0.00  0.00    +0.000 A 
ATOM     15  C   UNL     1      -2.263  10.365  16.867  0.00  0.00    +0.000 A 
ATOM     16  F   UNL     1      -2.896  10.017  15.778  0.00  0.00    +0.000 F 
ATOM     17  S   UNL     1      -2.590  11.779  17.733  0.00  0.00    +0.000 S 
ATOM     18  C   UNL     1      -1.395  11.393  18.893  0.00  0.00    +0.000 A 
ATOM     19  N   UNL     1      -1.187  12.182  19.950  0.00  0.00    +0.000 NA
ATOM     20  H   UNL     1       0.928  12.302  22.237  0.00  0.00    +0.000 HD
ATOM     21  H   UNL     1      -0.311  13.419  21.779  0.00  0.00    +0.000 HD
ENDROOT
BRANCH   9  22
ATOM     22  C   UNL     1       4.915   5.646  17.657  0.00  0.00    +0.000 A 
ATOM     23  C   UNL     1       4.695   4.609  16.746  0.00  0.00    +0.000 A 
ATOM     24  C   UNL     1       5.520   4.482  15.631  0.00  0.00    +0.000 A 
ATOM     25  C   UNL     1       6.539   5.405  15.459  0.00  0.00    +0.000 A 
ATOM     26  N   UNL     1       6.813   6.391  16.341  0.00  0.00    +0.000 NA
ATOM     27  C   UNL     1       6.017   6.460  17.437  0.00  0.00    +0.000 A 
ENDBRANCH   9  22
TORSDOF 1
ENDMDL
MODEL 4
REMARK VINA RESULT:      -7.8      0.612      1.002
REMARK  Name = 
REMARK  1 active torsions:
REMARK  status: ('A' for Active; 'I' for Inactive)
REMARK    1  A    between atoms: C_9  and  C_11
REMARK                            x       y       z     vdW  Elec       q    Type
REMARK                         _______ _______ _______ _____ _____    ______ ____
ROOT
ATOM      1  N   UNL     1       2.258   1.792  18.337  0.00  0.00    +0.000 N 
ATOM      2  C   UNL     1       2.952   2.968  18.133  0.00  0.00    +0.000 A 
ATOM      3  N   UNL     1       2.443   4.084  18.679  0.00  0.00    +0.000 NA
ATOM      4  C   UNL     1       3.078   5.266  18.514  0.00  0.00    +0.000 A 
ATOM      5  N   UNL     1       2.585   6.430  19.096  0.00  0.00    +0.000 N 
ATOM      6  C   UNL     1       1.620   6.274  20.202  0.00  0.00    +0.000 C 
ATOM      7  C   UNL     1       1.563   7.604  20.979  0.00  0.00    +0.000 C 
ATOM      8  N   UNL     1       1.250   8.737  20.086  0.00  0.00    +0.000 N 
ATOM      9  C   UNL     1       0.330   9.684  20.528  0.00  0.00    +0.000 C 
ATOM     10  O   UNL     1      -0.194   9.614  21.639  0.00  0.00    +0.000 OA
ATOM     11  C   UNL     1       2.166   8.833  18.931  0.00  0.00    +0.000 C 
ATOM     12  C   UNL     1       2.203   7.502  18.156  0.00  0.00    +0.000 C 
ATOM     13  C   UNL     1       4.293   5.267  17.801  0.00  0.00    +0.000 A 
ATOM     14  C   UNL     1       5.280   6.274  17.536  0.00  0.00    +0.000 A 
ATOM     15  C   UNL     1       6.298   5.801  16.753  0.00  0.00    +0.000 A 
ATOM     16  F   UNL     1       7.295   6.547  16.357  0.00  0.00    +0.000 F 
ATOM     17  S   UNL     1       6.136   4.165  16.363  0.00  0.00    +0.000 S 
ATOM     18  C   UNL     1       4.683   4.054  17.257  0.00  0.00    +0.000 A 
ATOM     19  N   UNL     1       4.036   2.891  17.372  0.00  0.00    +0.000 NA
ATOM     20  H   UNL     1       1.286   1.996  18.533  0.00  0.00    +0.000 HD
ATOM     21  H   UNL     1       2.453   1.134  17.591  0.00  0.00    +0.000 HD
ENDROOT
BRANCH   9  22
ATOM     22  C   UNL     1      -0.072  10.828  19.681  0.00  0.00    +0.000 A 
ATOM     23  C   UNL     1       0.601  12.047  19.812  0.00  0.00    +0.000 A 
ATOM     24  C   UNL     1       0.217  13.135  19.033  0.00  0.00    +0.000 A 
ATOM     25  C   UNL     1      -0.828  12.967  18.138  0.00  0.00    +0.000 A 
ATOM     26  N   UNL     1      -1.534  11.821  18.017  0.00  0.00    +0.000 NA
ATOM     27  C   UNL     1      -1.161  10.794  18.821  0.00  0.00    +0.000 A 
ENDBRANCH   9  22
TORSDOF 1
ENDMDL
MODEL 5
REMARK VINA RESULT:      -7.7      3.878      8.231
REMARK  Name = 
REMARK  1 active torsions:
REMARK  status: ('A' for Active; 'I' for Inactive)
REMARK    1  A    between atoms: C_9  and  C_11
REMARK                            x       y       z     vdW  Elec       q    Type
REMARK                         _______ _______ _______ _____ _____    ______ ____
ROOT
ATOM      1  N   UNL     1      -1.319  11.982  17.635  0.00  0.00    +0.000 N 
ATOM      2  C   UNL     1      -0.782  11.263  18.684  0.00  0.00    +0.000 A 
ATOM      3  N   UNL     1       0.137  10.331  18.382  0.00  0.00    +0.000 NA
ATOM      4  C   UNL     1       0.699   9.594  19.367  0.00  0.00    +0.000 A 
ATOM      5  N   UNL     1       1.675   8.645  19.081  0.00  0.00    +0.000 N 
ATOM      6  C   UNL     1       2.357   8.751  17.776  0.00  0.00    +0.000 C 
ATOM      7  C   UNL     1       3.663   7.934  17.850  0.00  0.00    +0.000 C 
ATOM      8  N   UNL     1       3.404   6.540  18.263  0.00  0.00    +0.000 N 
ATOM      9  C   UNL     1       4.074   5.524  17.588  0.00  0.00    +0.000 C 
ATOM     10  O   UNL     1       4.885   5.759  16.694  0.00  0.00    +0.000 OA
ATOM     11  C   UNL     1       2.642   6.443  19.524  0.00  0.00    +0.000 C 
ATOM     12  C   UNL     1       1.333   7.252  19.431  0.00  0.00    +0.000 C 
ATOM     13  C   UNL     1       0.321   9.873  20.695  0.00  0.00    +0.000 A 
ATOM     14  C   UNL     1       0.778   9.399  21.970  0.00  0.00    +0.000 A 
ATOM     15  C   UNL     1       0.070   9.948  23.005  0.00  0.00    +0.000 A 
ATOM     16  F   UNL     1       0.289   9.641  24.256  0.00  0.00    +0.000 F 
ATOM     17  S   UNL     1      -1.099  11.059  22.499  0.00  0.00    +0.000 S 
ATOM     18  C   UNL     1      -0.666  10.830  20.862  0.00  0.00    +0.000 A 
ATOM     19  N   UNL     1      -1.263  11.528  19.891  0.00  0.00    +0.000 NA
ATOM     20  H   UNL     1      -1.234  11.454  16.775  0.00  0.00    +0.000 HD
ATOM     21  H   UNL     1      -2.241  12.326  17.879  0.00  0.00    +0.000 HD
ENDROOT
BRANCH   9  22
ATOM     22  C   UNL     1       3.844   4.098  17.909  0.00  0.00    +0.000 A 
ATOM     23  C   UNL     1       2.829   3.402  17.245  0.00  0.00    +0.000 A 
ATOM     24  C   UNL     1       2.592   2.065  17.554  0.00  0.00    +0.000 A 
ATOM     25  C   UNL     1       3.384   1.463  18.517  0.00  0.00    +0.000 A 
ATOM     26  N   UNL     1       4.341   2.114  19.215  0.00  0.00    +0.000 NA
ATOM     27  C   UNL     1       4.518   3.426  18.919  0.00  0.00    +0.000 A 
ENDBRANCH   9  22
TORSDOF 1
ENDMDL
MODEL 6
REMARK VINA RESULT:      -7.7      3.012      4.072
REMARK  Name = 
REMARK  1 active torsions:
REMARK  status: ('A' for Active; 'I' for Inactive)
REMARK    1  A    between atoms: C_9  and  C_11
REMARK                            x       y       z     vdW  Elec       q    Type
REMARK                         _______ _______ _______ _____ _____    ______ ____
ROOT
ATOM      1  N   UNL     1       5.424   6.889  16.569  0.00  0.00    +0.000 N 
ATOM      2  C   UNL     1       4.469   6.619  17.530  0.00  0.00    +0.000 A 
ATOM      3  N   UNL     1       3.536   7.558  17.750  0.00  0.00    +0.000 NA
ATOM      4  C   UNL     1       2.575   7.351  18.678  0.00  0.00    +0.000 A 
ATOM      5  N   UNL     1       1.580   8.298  18.901  0.00  0.00    +0.000 N 
ATOM      6  C   UNL     1       1.364   9.309  17.848  0.00  0.00    +0.000 C 
ATOM      7  C   UNL     1      -0.026   9.939  18.068  0.00  0.00    +0.000 C 
ATOM      8  N   UNL     1      -0.162  10.481  19.434  0.00  0.00    +0.000 N 
ATOM      9  C   UNL     1      -0.765  11.726  19.587  0.00  0.00    +0.000 C 
ATOM     10  O   UNL     1      -1.205  12.360  18.629  0.00  0.00    +0.000 OA
ATOM     11  C   UNL     1       0.144   9.486  20.483  0.00  0.00    +0.000 C 
ATOM     12  C   UNL     1       1.541   8.875  20.259  0.00  0.00    +0.000 C 
ATOM     13  C   UNL     1       2.570   6.115  19.355  0.00  0.00    +0.000 A 
ATOM     14  C   UNL     1       1.665   5.506  20.288  0.00  0.00    +0.000 A 
ATOM     15  C   UNL     1       2.108   4.280  20.704  0.00  0.00    +0.000 A 
ATOM     16  F   UNL     1       1.463   3.552  21.577  0.00  0.00    +0.000 F 
ATOM     17  S   UNL     1       3.555   3.808  19.971  0.00  0.00    +0.000 S 
ATOM     18  C   UNL     1       3.614   5.253  19.061  0.00  0.00    +0.000 A 
ATOM     19  N   UNL     1       4.595   5.470  18.182  0.00  0.00    +0.000 NA
ATOM     20  H   UNL     1       5.513   7.890  16.445  0.00  0.00    +0.000 HD
ATOM     21  H   UNL     1       6.271   6.367  16.758  0.00  0.00    +0.000 HD
ENDROOT
BRANCH   9  22
ATOM     22  C   UNL     1      -0.905  12.361  20.917  0.00  0.00    +0.000 A 
ATOM     23  C   UNL     1      -2.106  12.222  21.618  0.00  0.00    +0.000 A 
ATOM     24  C   UNL     1      -2.254  12.831  22.861  0.00  0.00    +0.000 A 
ATOM     25  C   UNL     1      -1.189  13.559  23.368  0.00  0.00    +0.000 A 
ATOM     26  N   UNL     1      -0.031  13.756  22.700  0.00  0.00    +0.000 NA
ATOM     27  C   UNL     1       0.064  13.184  21.473  0.00  0.00    +0.000 A 
ENDBRANCH   9  22
TORSDOF 1
ENDMDL
MODEL 7
REMARK VINA RESULT:      -7.6      2.755      3.683
REMARK  Name = 
REMARK  1 active torsions:
REMARK  status: ('A' for Active; 'I' for Inactive)
REMARK    1  A    between atoms: C_9  and  C_11
REMARK                            x       y       z     vdW  Elec       q    Type
REMARK                         _______ _______ _______ _____ _____    ______ ____
ROOT
ATOM      1  N   UNL     1       6.999   5.187  17.415  0.00  0.00    +0.000 N 
ATOM      2  C   UNL     1       5.671   4.952  17.708  0.00  0.00    +0.000 A 
ATOM      3  N   UNL     1       4.887   6.024  17.907  0.00  0.00    +0.000 NA
ATOM      4  C   UNL     1       3.577   5.858  18.198  0.00  0.00    +0.000 A 
ATOM      5  N   UNL     1       2.739   6.954  18.378  0.00  0.00    +0.000 N 
ATOM      6  C   UNL     1       3.206   8.252  17.852  0.00  0.00    +0.000 C 
ATOM      7  C   UNL     1       1.986   9.189  17.741  0.00  0.00    +0.000 C 
ATOM      8  N   UNL     1       1.275   9.303  19.029  0.00  0.00    +0.000 N 
ATOM      9  C   UNL     1       0.851  10.566  19.433  0.00  0.00    +0.000 C 
ATOM     10  O   UNL     1       1.026  11.565  18.737  0.00  0.00    +0.000 OA
ATOM     11  C   UNL     1       0.891   7.993  19.595  0.00  0.00    +0.000 C 
ATOM     12  C   UNL     1       2.121   7.072  19.713  0.00  0.00    +0.000 C 
ATOM     13  C   UNL     1       3.074   4.542  18.236  0.00  0.00    +0.000 A 
ATOM     14  C   UNL     1       1.755   3.995  18.385  0.00  0.00    +0.000 A 
ATOM     15  C   UNL     1       1.766   2.627  18.392  0.00  0.00    +0.000 A 
ATOM     16  F   UNL     1       0.685   1.909  18.546  0.00  0.00    +0.000 F 
ATOM     17  S   UNL     1       3.307   1.970  18.172  0.00  0.00    +0.000 S 
ATOM     18  C   UNL     1       3.999   3.528  18.052  0.00  0.00    +0.000 A 
ATOM     19  N   UNL     1       5.304   3.682  17.814  0.00  0.00    +0.000 NA
ATOM     20  H   UNL     1       7.274   6.097  17.766  0.00  0.00    +0.000 HD
ATOM     21  H   UNL     1       7.567   4.394  17.690  0.00  0.00    +0.000 HD
ENDROOT
BRANCH   9  22
ATOM     22  C   UNL     1       0.167  10.776  20.728  0.00  0.00    +0.000 A 
ATOM     23  C   UNL     1      -0.912  11.662  20.796  0.00  0.00    +0.000 A 
ATOM     24  C   UNL     1      -1.550  11.881  22.014  0.00  0.00    +0.000 A 
ATOM     25  C   UNL     1      -1.090  11.199  23.129  0.00  0.00    +0.000 A 
ATOM     26  N   UNL     1      -0.021  10.373  23.114  0.00  0.00    +0.000 NA
ATOM     27  C   UNL     1       0.603  10.214  21.919  0.00  0.00    +0.000 A 
ENDBRANCH   9  22
TORSDOF 1
ENDMDL
MODEL 8
REMARK VINA RESULT:      -7.4      1.213      1.294
REMARK  Name = 
REMARK  1 active torsions:
REMARK  status: ('A' for Active; 'I' for Inactive)
REMARK    1  A    between atoms: C_9  and  C_11
REMARK                            x       y       z     vdW  Elec       q    Type
REMARK                         _______ _______ _______ _____ _____    ______ ____
ROOT
ATOM      1  N   UNL     1       3.653   2.172  20.279  0.00  0.00    +0.000 N 
ATOM      2  C   UNL     1       4.033   3.359  19.685  0.00  0.00    +0.000 A 
ATOM      3  N   UNL     1       3.265   4.435  19.918  0.00  0.00    +0.000 NA
ATOM      4  C   UNL     1       3.585   5.626  19.363  0.00  0.00    +0.000 A 
ATOM      5  N   UNL     1       2.822   6.762  19.615  0.00  0.00    +0.000 N 
ATOM      6  C   UNL     1       1.930   6.726  20.791  0.00  0.00    +0.000 C 
ATOM      7  C   UNL     1       1.548   8.178  21.145  0.00  0.00    +0.000 C 
ATOM      8  N   UNL     1       0.959   8.878  19.986  0.00  0.00    +0.000 N 
ATOM      9  C   UNL     1      -0.165   9.670  20.203  0.00  0.00    +0.000 C 
ATOM     10  O   UNL     1      -0.651   9.820  21.322  0.00  0.00    +0.000 OA
ATOM     11  C   UNL     1       1.818   8.831  18.785  0.00  0.00    +0.000 C 
ATOM     12  C   UNL     1       2.181   7.375  18.435  0.00  0.00    +0.000 C 
ATOM     13  C   UNL     1       4.760   5.695  18.587  0.00  0.00    +0.000 A 
ATOM     14  C   UNL     1       5.465   6.777  17.961  0.00  0.00    +0.000 A 
ATOM     15  C   UNL     1       6.564   6.342  17.273  0.00  0.00    +0.000 A 
ATOM     16  F   UNL     1       7.344   7.145  16.598  0.00  0.00    +0.000 F 
ATOM     17  S   UNL     1       6.812   4.674  17.395  0.00  0.00    +0.000 S 
ATOM     18  C   UNL     1       5.436   4.502  18.394  0.00  0.00    +0.000 A 
ATOM     19  N   UNL     1       5.099   3.311  18.897  0.00  0.00    +0.000 NA
ATOM     20  H   UNL     1       2.661   2.191  20.483  0.00  0.00    +0.000 HD
ATOM     21  H   UNL     1       4.002   1.384  19.746  0.00  0.00    +0.000 HD
ENDROOT
BRANCH   9  22
ATOM     22  C   UNL     1      -0.842  10.374  19.091  0.00  0.00    +0.000 A 
ATOM     23  C   UNL     1      -1.699   9.659  18.250  0.00  0.00    +0.000 A 
ATOM     24  C   UNL     1      -2.326  10.309  17.189  0.00  0.00    +0.000 A 
ATOM     25  C   UNL     1      -2.080  11.660  17.007  0.00  0.00    +0.000 A 
ATOM     26  N   UNL     1      -1.221  12.374  17.769  0.00  0.00    +0.000 NA
ATOM     27  C   UNL     1      -0.595  11.701  18.767  0.00  0.00    +0.000 A 
ENDBRANCH   9  22
TORSDOF 1
ENDMDL
MODEL 9
REMARK VINA RESULT:      -7.4      4.594      8.734
REMARK  Name = 
REMARK  1 active torsions:
REMARK  status: ('A' for Active; 'I' for Inactive)
REMARK    1  A    between atoms: C_9  and  C_11
REMARK                            x       y       z     vdW  Elec       q    Type
REMARK                         _______ _______ _______ _____ _____    ______ ____
ROOT
ATOM      1  N   UNL     1       1.879   8.496  19.083  0.00  0.00    +0.000 N 
ATOM      2  C   UNL     1       2.424   7.228  19.098  0.00  0.00    +0.000 A 
ATOM      3  N   UNL     1       3.277   6.914  18.110  0.00  0.00    +0.000 NA
ATOM      4  C   UNL     1       3.842   5.687  18.071  0.00  0.00    +0.000 A 
ATOM      5  N   UNL     1       4.752   5.350  17.073  0.00  0.00    +0.000 N 
ATOM      6  C   UNL     1       5.379   6.460  16.330  0.00  0.00    +0.000 C 
ATOM      7  C   UNL     1       6.641   5.916  15.630  0.00  0.00    +0.000 C 
ATOM      8  N   UNL     1       6.326   4.749  14.783  0.00  0.00    +0.000 N 
ATOM      9  C   UNL     1       6.910   4.682  13.520  0.00  0.00    +0.000 C 
ATOM     10  O   UNL     1       7.691   5.542  13.116  0.00  0.00    +0.000 OA
ATOM     11  C   UNL     1       5.618   3.678  15.513  0.00  0.00    +0.000 C 
ATOM     12  C   UNL     1       4.352   4.233  16.195  0.00  0.00    +0.000 C 
ATOM     13  C   UNL     1       3.541   4.790  19.115  0.00  0.00    +0.000 A 
ATOM     14  C   UNL     1       4.029   3.487  19.466  0.00  0.00    +0.000 A 
ATOM     15  C   UNL     1       3.399   2.985  20.573  0.00  0.00    +0.000 A 
ATOM     16  F   UNL     1       3.657   1.801  21.062  0.00  0.00    +0.000 F 
ATOM     17  S   UNL     1       2.270   4.052  21.240  0.00  0.00    +0.000 S 
ATOM     18  C   UNL     1       2.615   5.227  20.048  0.00  0.00    +0.000 A 
ATOM     19  N   UNL     1       2.013   6.419  20.066  0.00  0.00    +0.000 NA
ATOM     20  H   UNL     1       1.897   8.868  18.141  0.00  0.00    +0.000 HD
ATOM     21  H   UNL     1       0.990   8.504  19.568  0.00  0.00    +0.000 HD
ENDROOT
BRANCH   9  22
ATOM     22  C   UNL     1       6.618   3.568  12.590  0.00  0.00    +0.000 A 
ATOM     23  C   UNL     1       7.673   2.939  11.923  0.00  0.00    +0.000 A 
ATOM     24  C   UNL     1       7.406   1.903  11.032  0.00  0.00    +0.000 A 
ATOM     25  C   UNL     1       6.087   1.524  10.840  0.00  0.00    +0.000 A 
ATOM     26  N   UNL     1       5.038   2.139  11.429  0.00  0.00    +0.000 NA
ATOM     27  C   UNL     1       5.330   3.172  12.259  0.00  0.00    +0.000 A 
ENDBRANCH   9  22
TORSDOF 1
ENDMDL
