MODEL 1
REMARK VINA RESULT:      -6.3      0.000      0.000
REMARK  Name = 
REMARK  5 active torsions:
REMARK  status: ('A' for Active; 'I' for Inactive)
REMARK    1  A    between atoms: C_1  and  C_2
REMARK    2  A    between atoms: C_2  and  C_3
REMARK    3  A    between atoms: C_2  and  N_9
REMARK    4  A    between atoms: C_3  and  C_4
REMARK    5  A    between atoms: C_10  and  C_12
REMARK                            x       y       z     vdW  Elec       q    Type
REMARK                         _______ _______ _______ _____ _____    ______ ____
ROOT
ATOM      1  N   UNL     1       4.680   4.198  16.169  0.00  0.00    +0.000 N 
ATOM      2  C   UNL     1       6.030   4.305  15.914  0.00  0.00    +0.000 C 
ATOM      3  O   UNL     1       6.882   4.349  16.798  0.00  0.00    +0.000 OA
ATOM      4  H   UNL     1       4.031   4.054  15.407  0.00  0.00    +0.000 HD
ENDROOT
BRANCH   2   5
ATOM      5  C   UNL     1       6.447   4.346  14.491  0.00  0.00    +0.000 A 
ATOM      6  C   UNL     1       7.473   5.176  14.038  0.00  0.00    +0.000 A 
ATOM      7  C   UNL     1       7.809   5.112  12.696  0.00  0.00    +0.000 A 
ATOM      8  N   UNL     1       7.203   4.301  11.806  0.00  0.00    +0.000 NA
ATOM      9  C   UNL     1       6.220   3.500  12.274  0.00  0.00    +0.000 A 
ATOM     10  C   UNL     1       5.813   3.485  13.593  0.00  0.00    +0.000 A 
ENDBRANCH   2   5
BRANCH   1  12
ATOM     11  C   UNL     1       3.300   5.382  17.793  0.00  0.00    +0.000 C 
ATOM     12  C   UNL     1       4.159   4.142  17.535  0.00  0.00    +0.000 C 
BRANCH  12  13
ATOM     13  C   UNL     1       3.331   2.869  17.793  0.00  0.00    +0.000 C 
BRANCH  13  14
ATOM     14  C   UNL     1       2.756   2.802  19.183  0.00  0.00    +0.000 A 
ATOM     15  C   UNL     1       3.430   2.695  20.384  0.00  0.00    +0.000 A 
ATOM     16  C   UNL     1       2.545   2.696  21.502  0.00  0.00    +0.000 A 
ATOM     17  C   UNL     1       1.228   2.795  21.119  0.00  0.00    +0.000 A 
ATOM     18  S   UNL     1       1.060   2.894  19.420  0.00  0.00    +0.000 S 
ENDBRANCH  13  14
ENDBRANCH  12  13
ENDBRANCH   1  12
TORSDOF 4
ENDMDL
MODEL 2
REMARK VINA RESULT:      -6.2      3.289      5.010
REMARK  Name = 
REMARK  5 active torsions:
REMARK  status: ('A' for Active; 'I' for Inactive)
REMARK    1  A    between atoms: C_1  and  C_2
REMARK    2  A    between atoms: C_2  and  C_3
REMARK    3  A    between atoms: C_2  and  N_9
REMARK    4  A    between atoms: C_3  and  C_4
REMARK    5  A    between atoms: C_10  and  C_12
REMARK                            x       y       z     vdW  Elec       q    Type
REMARK                         _______ _______ _______ _____ _____    ______ ____
ROOT
ATOM      1  N   UNL     1       3.541   5.349  19.215  0.00  0.00    +0.000 N 
ATOM      2  C   UNL     1       3.708   4.708  18.006  0.00  0.00    +0.000 C 
ATOM      3  O   UNL     1       2.775   4.245  17.354  0.00  0.00    +0.000 OA
ATOM      4  H   UNL     1       4.327   5.809  19.656  0.00  0.00    +0.000 HD
ENDROOT
BRANCH   2   5
ATOM      5  C   UNL     1       5.091   4.606  17.482  0.00  0.00    +0.000 A 
ATOM      6  C   UNL     1       5.362   4.365  16.134  0.00  0.00    +0.000 A 
ATOM      7  C   UNL     1       6.689   4.323  15.740  0.00  0.00    +0.000 A 
ATOM      8  N   UNL     1       7.729   4.499  16.580  0.00  0.00    +0.000 NA
ATOM      9  C   UNL     1       7.438   4.741  17.877  0.00  0.00    +0.000 A 
ATOM     10  C   UNL     1       6.150   4.806  18.370  0.00  0.00    +0.000 A 
ENDBRANCH   2   5
BRANCH   1  12
ATOM     11  C   UNL     1       1.966   4.354  20.788  0.00  0.00    +0.000 C 
ATOM     12  C   UNL     1       2.220   5.513  19.821  0.00  0.00    +0.000 C 
BRANCH  12  13
ATOM     13  C   UNL     1       2.081   6.855  20.566  0.00  0.00    +0.000 C 
BRANCH  13  14
ATOM     14  C   UNL     1       1.820   8.022  19.650  0.00  0.00    +0.000 A 
ATOM     15  C   UNL     1       2.219   8.188  18.338  0.00  0.00    +0.000 A 
ATOM     16  C   UNL     1       1.752   9.414  17.782  0.00  0.00    +0.000 A 
ATOM     17  C   UNL     1       1.018  10.146  18.687  0.00  0.00    +0.000 A 
ATOM     18  S   UNL     1       0.889   9.355  20.197  0.00  0.00    +0.000 S 
ENDBRANCH  13  14
ENDBRANCH  12  13
ENDBRANCH   1  12
TORSDOF 4
ENDMDL
MODEL 3
REMARK VINA RESULT:      -6.2      0.870      1.586
REMARK  Name = 
REMARK  5 active torsions:
REMARK  status: ('A' for Active; 'I' for Inactive)
REMARK    1  A    between atoms: C_1  and  C_2
REMARK    2  A    between atoms: C_2  and  C_3
REMARK    3  A    between atoms: C_2  and  N_9
REMARK    4  A    between atoms: C_3  and  C_4
REMARK    5  A    between atoms: C_10  and  C_12
REMARK                            x       y       z     vdW  Elec       q    Type
REMARK                         _______ _______ _______ _____ _____    ______ ____
ROOT
ATOM      1  N   UNL     1       4.476   4.442  16.109  0.00  0.00    +0.000 N 
ATOM      2  C   UNL     1       5.818   4.639  15.865  0.00  0.00    +0.000 C 
ATOM      3  O   UNL     1       6.625   4.939  16.742  0.00  0.00    +0.000 OA
ATOM      4  H   UNL     1       3.875   4.088  15.375  0.00  0.00    +0.000 HD
ENDROOT
BRANCH   2   5
ATOM      5  C   UNL     1       6.286   4.453  14.470  0.00  0.00    +0.000 A 
ATOM      6  C   UNL     1       5.639   3.600  13.575  0.00  0.00    +0.000 A 
ATOM      7  C   UNL     1       6.134   3.524  12.284  0.00  0.00    +0.000 A 
ATOM      8  N   UNL     1       7.202   4.222  11.846  0.00  0.00    +0.000 NA
ATOM      9  C   UNL     1       7.803   5.047  12.731  0.00  0.00    +0.000 A 
ATOM     10  C   UNL     1       7.385   5.198  14.038  0.00  0.00    +0.000 A 
ENDBRANCH   2   5
BRANCH   1  12
ATOM     11  C   UNL     1       3.633   6.074  17.711  0.00  0.00    +0.000 C 
ATOM     12  C   UNL     1       3.909   4.591  17.448  0.00  0.00    +0.000 C 
BRANCH  12  13
ATOM     13  C   UNL     1       2.612   3.778  17.629  0.00  0.00    +0.000 C 
BRANCH  13  14
ATOM     14  C   UNL     1       2.320   3.430  19.065  0.00  0.00    +0.000 A 
ATOM     15  C   UNL     1       1.112   3.493  19.733  0.00  0.00    +0.000 A 
ATOM     16  C   UNL     1       1.217   3.047  21.082  0.00  0.00    +0.000 A 
ATOM     17  C   UNL     1       2.500   2.666  21.402  0.00  0.00    +0.000 A 
ATOM     18  S   UNL     1       3.569   2.839  20.080  0.00  0.00    +0.000 S 
ENDBRANCH  13  14
ENDBRANCH  12  13
ENDBRANCH   1  12
TORSDOF 4
ENDMDL
MODEL 4
REMARK VINA RESULT:      -6.2      3.359      5.007
REMARK  Name = 
REMARK  5 active torsions:
REMARK  status: ('A' for Active; 'I' for Inactive)
REMARK    1  A    between atoms: C_1  and  C_2
REMARK    2  A    between atoms: C_2  and  C_3
REMARK    3  A    between atoms: C_2  and  N_9
REMARK    4  A    between atoms: C_3  and  C_4
REMARK    5  A    between atoms: C_10  and  C_12
REMARK                            x       y       z     vdW  Elec       q    Type
REMARK                         _______ _______ _______ _____ _____    ______ ____
ROOT
ATOM      1  N   UNL     1       3.564   5.431  19.371  0.00  0.00    +0.000 N 
ATOM      2  C   UNL     1       3.761   4.893  18.117  0.00  0.00    +0.000 C 
ATOM      3  O   UNL     1       2.842   4.524  17.390  0.00  0.00    +0.000 OA
ATOM      4  H   UNL     1       4.344   5.821  19.882  0.00  0.00    +0.000 HD
ENDROOT
BRANCH   2   5
ATOM      5  C   UNL     1       5.162   4.785  17.642  0.00  0.00    +0.000 A 
ATOM      6  C   UNL     1       6.253   5.024  18.477  0.00  0.00    +0.000 A 
ATOM      7  C   UNL     1       7.521   4.862  17.945  0.00  0.00    +0.000 A 
ATOM      8  N   UNL     1       7.760   4.491  16.670  0.00  0.00    +0.000 NA
ATOM      9  C   UNL     1       6.685   4.256  15.886  0.00  0.00    +0.000 A 
ATOM     10  C   UNL     1       5.381   4.386  16.322  0.00  0.00    +0.000 A 
ENDBRANCH   2   5
BRANCH   1  12
ATOM     11  C   UNL     1       1.952   4.442  20.910  0.00  0.00    +0.000 C 
ATOM     12  C   UNL     1       2.224   5.591  19.935  0.00  0.00    +0.000 C 
BRANCH  12  13
ATOM     13  C   UNL     1       2.051   6.941  20.658  0.00  0.00    +0.000 C 
BRANCH  13  14
ATOM     14  C   UNL     1       1.755   8.085  19.724  0.00  0.00    +0.000 A 
ATOM     15  C   UNL     1       2.141   8.237  18.406  0.00  0.00    +0.000 A 
ATOM     16  C   UNL     1       1.639   9.441  17.831  0.00  0.00    +0.000 A 
ATOM     17  C   UNL     1       0.895  10.171  18.729  0.00  0.00    +0.000 A 
ATOM     18  S   UNL     1       0.796   9.405  20.254  0.00  0.00    +0.000 S 
ENDBRANCH  13  14
ENDBRANCH  12  13
ENDBRANCH   1  12
TORSDOF 4
ENDMDL
MODEL 5
REMARK VINA RESULT:      -6.2      2.983      3.694
REMARK  Name = 
REMARK  5 active torsions:
REMARK  status: ('A' for Active; 'I' for Inactive)
REMARK    1  A    between atoms: C_1  and  C_2
REMARK    2  A    between atoms: C_2  and  C_3
REMARK    3  A    between atoms: C_2  and  N_9
REMARK    4  A    between atoms: C_3  and  C_4
REMARK    5  A    between atoms: C_10  and  C_12
REMARK                            x       y       z     vdW  Elec       q    Type
REMARK                         _______ _______ _______ _____ _____    ______ ____
ROOT
ATOM      1  N   UNL     1       4.013   4.585  17.615  0.00  0.00    +0.000 N 
ATOM      2  C   UNL     1       5.128   4.780  16.828  0.00  0.00    +0.000 C 
ATOM      3  O   UNL     1       5.257   4.291  15.708  0.00  0.00    +0.000 OA
ATOM      4  H   UNL     1       3.908   5.099  18.480  0.00  0.00    +0.000 HD
ENDROOT
BRANCH   2   5
ATOM      5  C   UNL     1       6.199   5.646  17.379  0.00  0.00    +0.000 A 
ATOM      6  C   UNL     1       6.456   6.923  16.879  0.00  0.00    +0.000 A 
ATOM      7  C   UNL     1       7.455   7.664  17.487  0.00  0.00    +0.000 A 
ATOM      8  N   UNL     1       8.192   7.224  18.527  0.00  0.00    +0.000 NA
ATOM      9  C   UNL     1       7.915   5.988  18.997  0.00  0.00    +0.000 A 
ATOM     10  C   UNL     1       6.937   5.171  18.465  0.00  0.00    +0.000 A 
ENDBRANCH   2   5
BRANCH   1  12
ATOM     11  C   UNL     1       3.242   2.283  17.391  0.00  0.00    +0.000 C 
ATOM     12  C   UNL     1       2.894   3.757  17.168  0.00  0.00    +0.000 C 
BRANCH  12  13
ATOM     13  C   UNL     1       1.582   4.101  17.900  0.00  0.00    +0.000 C 
BRANCH  13  14
ATOM     14  C   UNL     1       1.610   3.760  19.367  0.00  0.00    +0.000 A 
ATOM     15  C   UNL     1       0.983   2.714  20.015  0.00  0.00    +0.000 A 
ATOM     16  C   UNL     1       1.271   2.692  21.411  0.00  0.00    +0.000 A 
ATOM     17  C   UNL     1       2.101   3.724  21.783  0.00  0.00    +0.000 A 
ATOM     18  S   UNL     1       2.535   4.709  20.455  0.00  0.00    +0.000 S 
ENDBRANCH  13  14
ENDBRANCH  12  13
ENDBRANCH   1  12
TORSDOF 4
ENDMDL
MODEL 6
REMARK VINA RESULT:      -6.1      3.038      3.758
REMARK  Name = 
REMARK  5 active torsions:
REMARK  status: ('A' for Active; 'I' for Inactive)
REMARK    1  A    between atoms: C_1  and  C_2
REMARK    2  A    between atoms: C_2  and  C_3
REMARK    3  A    between atoms: C_2  and  N_9
REMARK    4  A    between atoms: C_3  and  C_4
REMARK    5  A    between atoms: C_10  and  C_12
REMARK                            x       y       z     vdW  Elec       q    Type
REMARK                         _______ _______ _______ _____ _____    ______ ____
ROOT
ATOM      1  N   UNL     1       3.967   4.548  17.666  0.00  0.00    +0.000 N 
ATOM      2  C   UNL     1       5.033   4.881  16.857  0.00  0.00    +0.000 C 
ATOM      3  O   UNL     1       5.105   4.565  15.672  0.00  0.00    +0.000 OA
ATOM      4  H   UNL     1       3.904   4.927  18.602  0.00  0.00    +0.000 HD
ENDROOT
BRANCH   2   5
ATOM      5  C   UNL     1       6.121   5.681  17.471  0.00  0.00    +0.000 A 
ATOM      6  C   UNL     1       6.902   5.195  18.520  0.00  0.00    +0.000 A 
ATOM      7  C   UNL     1       7.917   6.007  18.999  0.00  0.00    +0.000 A 
ATOM      8  N   UNL     1       8.190   7.235  18.512  0.00  0.00    +0.000 NA
ATOM      9  C   UNL     1       7.425   7.676  17.490  0.00  0.00    +0.000 A 
ATOM     10  C   UNL     1       6.393   6.943  16.939  0.00  0.00    +0.000 A 
ENDBRANCH   2   5
BRANCH   1  12
ATOM     11  C   UNL     1       3.160   2.278  17.289  0.00  0.00    +0.000 C 
ATOM     12  C   UNL     1       2.836   3.770  17.162  0.00  0.00    +0.000 C 
BRANCH  12  13
ATOM     13  C   UNL     1       1.528   4.086  17.912  0.00  0.00    +0.000 C 
BRANCH  13  14
ATOM     14  C   UNL     1       1.583   3.747  19.379  0.00  0.00    +0.000 A 
ATOM     15  C   UNL     1       1.068   2.637  20.021  0.00  0.00    +0.000 A 
ATOM     16  C   UNL     1       1.348   2.644  21.419  0.00  0.00    +0.000 A 
ATOM     17  C   UNL     1       2.059   3.759  21.798  0.00  0.00    +0.000 A 
ATOM     18  S   UNL     1       2.393   4.788  20.475  0.00  0.00    +0.000 S 
ENDBRANCH  13  14
ENDBRANCH  12  13
ENDBRANCH   1  12
TORSDOF 4
ENDMDL
MODEL 7
REMARK VINA RESULT:      -6.1      4.034      5.862
REMARK  Name = 
REMARK  5 active torsions:
REMARK  status: ('A' for Active; 'I' for Inactive)
REMARK    1  A    between atoms: C_1  and  C_2
REMARK    2  A    between atoms: C_2  and  C_3
REMARK    3  A    between atoms: C_2  and  N_9
REMARK    4  A    between atoms: C_3  and  C_4
REMARK    5  A    between atoms: C_10  and  C_12
REMARK                            x       y       z     vdW  Elec       q    Type
REMARK                         _______ _______ _______ _____ _____    ______ ____
ROOT
ATOM      1  N   UNL     1       3.973   5.809  19.024  0.00  0.00    +0.000 N 
ATOM      2  C   UNL     1       3.594   6.769  18.112  0.00  0.00    +0.000 C 
ATOM      3  O   UNL     1       4.028   6.817  16.963  0.00  0.00    +0.000 OA
ATOM      4  H   UNL     1       3.504   5.747  19.919  0.00  0.00    +0.000 HD
ENDROOT
BRANCH   2   5
ATOM      5  C   UNL     1       2.594   7.769  18.560  0.00  0.00    +0.000 A 
ATOM      6  C   UNL     1       2.094   8.756  17.710  0.00  0.00    +0.000 A 
ATOM      7  C   UNL     1       1.137   9.620  18.217  0.00  0.00    +0.000 A 
ATOM      8  N   UNL     1       0.665   9.563  19.479  0.00  0.00    +0.000 NA
ATOM      9  C   UNL     1       1.159   8.590  20.276  0.00  0.00    +0.000 A 
ATOM     10  C   UNL     1       2.112   7.679  19.867  0.00  0.00    +0.000 A 
ENDBRANCH   2   5
BRANCH   1  12
ATOM     11  C   UNL     1       6.344   5.243  19.094  0.00  0.00    +0.000 C 
ATOM     12  C   UNL     1       4.946   4.770  18.686  0.00  0.00    +0.000 C 
BRANCH  12  13
ATOM     13  C   UNL     1       4.628   3.426  19.370  0.00  0.00    +0.000 C 
BRANCH  13  14
ATOM     14  C   UNL     1       3.154   3.126  19.441  0.00  0.00    +0.000 A 
ATOM     15  C   UNL     1       2.307   3.245  20.526  0.00  0.00    +0.000 A 
ATOM     16  C   UNL     1       0.962   2.902  20.201  0.00  0.00    +0.000 A 
ATOM     17  C   UNL     1       0.828   2.525  18.885  0.00  0.00    +0.000 A 
ATOM     18  S   UNL     1       2.314   2.592  18.044  0.00  0.00    +0.000 S 
ENDBRANCH  13  14
ENDBRANCH  12  13
ENDBRANCH   1  12
TORSDOF 4
ENDMDL
MODEL 8
REMARK VINA RESULT:      -6.1      3.036      3.819
REMARK  Name = 
REMARK  5 active torsions:
REMARK  status: ('A' for Active; 'I' for Inactive)
REMARK    1  A    between atoms: C_1  and  C_2
REMARK    2  A    between atoms: C_2  and  C_3
REMARK    3  A    between atoms: C_2  and  N_9
REMARK    4  A    between atoms: C_3  and  C_4
REMARK    5  A    between atoms: C_10  and  C_12
REMARK                            x       y       z     vdW  Elec       q    Type
REMARK                         _______ _______ _______ _____ _____    ______ ____
ROOT
ATOM      1  N   UNL     1       4.779   3.494  17.828  0.00  0.00    +0.000 N 
ATOM      2  C   UNL     1       5.322   4.411  16.954  0.00  0.00    +0.000 C 
ATOM      3  O   UNL     1       4.998   4.489  15.771  0.00  0.00    +0.000 OA
ATOM      4  H   UNL     1       4.998   3.544  18.815  0.00  0.00    +0.000 HD
ENDROOT
BRANCH   2   5
ATOM      5  C   UNL     1       6.330   5.352  17.502  0.00  0.00    +0.000 A 
ATOM      6  C   UNL     1       6.602   6.583  16.906  0.00  0.00    +0.000 A 
ATOM      7  C   UNL     1       7.536   7.403  17.517  0.00  0.00    +0.000 A 
ATOM      8  N   UNL     1       8.195   7.080  18.648  0.00  0.00    +0.000 NA
ATOM      9  C   UNL     1       7.904   5.887  19.210  0.00  0.00    +0.000 A 
ATOM     10  C   UNL     1       6.987   4.999  18.682  0.00  0.00    +0.000 A 
ENDBRANCH   2   5
BRANCH   1  12
ATOM     11  C   UNL     1       3.799   1.322  18.343  0.00  0.00    +0.000 C 
ATOM     12  C   UNL     1       3.772   2.525  17.397  0.00  0.00    +0.000 C 
BRANCH  12  13
ATOM     13  C   UNL     1       2.356   3.131  17.360  0.00  0.00    +0.000 C 
BRANCH  13  14
ATOM     14  C   UNL     1       1.927   3.728  18.675  0.00  0.00    +0.000 A 
ATOM     15  C   UNL     1       1.214   3.129  19.695  0.00  0.00    +0.000 A 
ATOM     16  C   UNL     1       1.027   4.001  20.807  0.00  0.00    +0.000 A 
ATOM     17  C   UNL     1       1.594   5.237  20.596  0.00  0.00    +0.000 A 
ATOM     18  S   UNL     1       2.355   5.341  19.069  0.00  0.00    +0.000 S 
ENDBRANCH  13  14
ENDBRANCH  12  13
ENDBRANCH   1  12
TORSDOF 4
ENDMDL
MODEL 9
REMARK VINA RESULT:      -6.1      1.359      1.805
REMARK  Name = 
REMARK  5 active torsions:
REMARK  status: ('A' for Active; 'I' for Inactive)
REMARK    1  A    between atoms: C_1  and  C_2
REMARK    2  A    between atoms: C_2  and  C_3
REMARK    3  A    between atoms: C_2  and  N_9
REMARK    4  A    between atoms: C_3  and  C_4
REMARK    5  A    between atoms: C_10  and  C_12
REMARK                            x       y       z     vdW  Elec       q    Type
REMARK                         _______ _______ _______ _____ _____    ______ ____
ROOT
ATOM      1  N   UNL     1       5.245   5.438  16.431  0.00  0.00    +0.000 N 
ATOM      2  C   UNL     1       6.476   5.512  15.814  0.00  0.00    +0.000 C 
ATOM      3  O   UNL     1       7.467   6.008  16.345  0.00  0.00    +0.000 OA
ATOM      4  H   UNL     1       4.492   4.922  15.996  0.00  0.00    +0.000 HD
ENDROOT
BRANCH   2   5
ATOM      5  C   UNL     1       6.583   4.937  14.451  0.00  0.00    +0.000 A 
ATOM      6  C   UNL     1       7.605   5.294  13.570  0.00  0.00    +0.000 A 
ATOM      7  C   UNL     1       7.636   4.673  12.333  0.00  0.00    +0.000 A 
ATOM      8  N   UNL     1       6.739   3.750  11.931  0.00  0.00    +0.000 NA
ATOM      9  C   UNL     1       5.766   3.416  12.808  0.00  0.00    +0.000 A 
ATOM     10  C   UNL     1       5.650   3.973  14.066  0.00  0.00    +0.000 A 
ENDBRANCH   2   5
BRANCH   1  12
ATOM     11  C   UNL     1       3.656   6.641  17.834  0.00  0.00    +0.000 C 
ATOM     12  C   UNL     1       5.029   5.965  17.777  0.00  0.00    +0.000 C 
BRANCH  12  13
ATOM     13  C   UNL     1       5.117   4.868  18.856  0.00  0.00    +0.000 C 
BRANCH  13  14
ATOM     14  C   UNL     1       4.032   3.830  18.743  0.00  0.00    +0.000 A 
ATOM     15  C   UNL     1       3.820   2.921  17.725  0.00  0.00    +0.000 A 
ATOM     16  C   UNL     1       2.708   2.067  17.985  0.00  0.00    +0.000 A 
ATOM     17  C   UNL     1       2.104   2.357  19.187  0.00  0.00    +0.000 A 
ATOM     18  S   UNL     1       2.879   3.646  20.000  0.00  0.00    +0.000 S 
ENDBRANCH  13  14
ENDBRANCH  12  13
ENDBRANCH   1  12
TORSDOF 4
ENDMDL
