MODEL 1
REMARK VINA RESULT:      -6.6      0.000      0.000
REMARK  Name = 
REMARK  3 active torsions:
REMARK  status: ('A' for Active; 'I' for Inactive)
REMARK    1  A    between atoms: C_1  and  C_2
REMARK    2  A    between atoms: C_6  and  C_8
REMARK    3  A    between atoms: N_13  and  C_14
REMARK                            x       y       z     vdW  Elec       q    Type
REMARK                         _______ _______ _______ _____ _____    ______ ____
ROOT
ATOM      1  C   UNL     1       6.738   4.457  13.683  0.00  0.00    +0.000 C 
ATOM      2  C   UNL     1       6.590   4.426  15.149  0.00  0.00    +0.000 A 
ATOM      3  N   UNL     1       5.431   4.046  15.762  0.00  0.00    +0.000 NA
ATOM      4  C   UNL     1       5.668   4.201  17.045  0.00  0.00    +0.000 A 
ATOM      5  N   UNL     1       4.800   3.966  18.093  0.00  0.00    +0.000 N 
ATOM      6  C   UNL     1       3.500   3.545  17.864  0.00  0.00    +0.000 C 
ATOM      7  O   UNL     1       3.010   3.284  16.771  0.00  0.00    +0.000 OA
ATOM      8  N   UNL     1       6.954   4.672  17.180  0.00  0.00    +0.000 N 
ATOM      9  C   UNL     1       7.677   5.069  18.360  0.00  0.00    +0.000 C 
ATOM     10  N   UNL     1       7.563   4.800  15.985  0.00  0.00    +0.000 NA
ATOM     11  H   UNL     1       5.103   4.153  19.032  0.00  0.00    +0.000 HD
ENDROOT
BRANCH   6  12
ATOM     12  C   UNL     1       2.664   3.449  19.078  0.00  0.00    +0.000 A 
ATOM     13  C   UNL     1       1.241   3.597  19.233  0.00  0.00    +0.000 A 
ATOM     14  C   UNL     1       0.818   3.399  20.531  0.00  0.00    +0.000 A 
ATOM     15  S   UNL     1       2.116   3.066  21.587  0.00  0.00    +0.000 S 
ATOM     16  C   UNL     1       3.244   3.184  20.312  0.00  0.00    +0.000 A 
ENDBRANCH   6  12
TORSDOF 1
ENDMDL
MODEL 2
REMARK VINA RESULT:      -6.3      1.905      2.595
REMARK  Name = 
REMARK  3 active torsions:
REMARK  status: ('A' for Active; 'I' for Inactive)
REMARK    1  A    between atoms: C_1  and  C_2
REMARK    2  A    between atoms: C_6  and  C_8
REMARK    3  A    between atoms: N_13  and  C_14
REMARK                            x       y       z     vdW  Elec       q    Type
REMARK                         _______ _______ _______ _____ _____    ______ ____
ROOT
ATOM      1  C   UNL     1       7.982   8.248  17.602  0.00  0.00    +0.000 C 
ATOM      2  C   UNL     1       7.171   7.081  17.210  0.00  0.00    +0.000 A 
ATOM      3  N   UNL     1       6.049   6.706  17.888  0.00  0.00    +0.000 NA
ATOM      4  C   UNL     1       5.645   5.611  17.283  0.00  0.00    +0.000 A 
ATOM      5  N   UNL     1       4.553   4.829  17.602  0.00  0.00    +0.000 N 
ATOM      6  C   UNL     1       3.746   5.137  18.686  0.00  0.00    +0.000 C 
ATOM      7  O   UNL     1       3.859   6.117  19.413  0.00  0.00    +0.000 OA
ATOM      8  N   UNL     1       6.529   5.347  16.261  0.00  0.00    +0.000 N 
ATOM      9  C   UNL     1       6.582   4.239  15.344  0.00  0.00    +0.000 C 
ATOM     10  N   UNL     1       7.493   6.286  16.185  0.00  0.00    +0.000 NA
ATOM     11  H   UNL     1       4.373   3.997  17.070  0.00  0.00    +0.000 HD
ENDROOT
BRANCH   6  12
ATOM     12  C   UNL     1       2.690   4.143  18.965  0.00  0.00    +0.000 A 
ATOM     13  C   UNL     1       1.728   3.543  18.077  0.00  0.00    +0.000 A 
ATOM     14  C   UNL     1       0.919   2.619  18.707  0.00  0.00    +0.000 A 
ATOM     15  S   UNL     1       1.274   2.479  20.369  0.00  0.00    +0.000 S 
ATOM     16  C   UNL     1       2.510   3.650  20.251  0.00  0.00    +0.000 A 
ENDBRANCH   6  12
TORSDOF 1
ENDMDL
MODEL 3
REMARK VINA RESULT:      -6.3      1.989      2.673
REMARK  Name = 
REMARK  3 active torsions:
REMARK  status: ('A' for Active; 'I' for Inactive)
REMARK    1  A    between atoms: C_1  and  C_2
REMARK    2  A    between atoms: C_6  and  C_8
REMARK    3  A    between atoms: N_13  and  C_14
REMARK                            x       y       z     vdW  Elec       q    Type
REMARK                         _______ _______ _______ _____ _____    ______ ____
ROOT
ATOM      1  C   UNL     1       7.864   8.130  17.552  0.00  0.00    +0.000 C 
ATOM      2  C   UNL     1       7.052   6.941  17.235  0.00  0.00    +0.000 A 
ATOM      3  N   UNL     1       5.950   6.590  17.959  0.00  0.00    +0.000 NA
ATOM      4  C   UNL     1       5.539   5.467  17.415  0.00  0.00    +0.000 A 
ATOM      5  N   UNL     1       4.461   4.694  17.798  0.00  0.00    +0.000 N 
ATOM      6  C   UNL     1       3.681   5.046  18.888  0.00  0.00    +0.000 C 
ATOM      7  O   UNL     1       3.806   6.059  19.566  0.00  0.00    +0.000 OA
ATOM      8  N   UNL     1       6.397   5.162  16.383  0.00  0.00    +0.000 N 
ATOM      9  C   UNL     1       6.435   4.014  15.516  0.00  0.00    +0.000 C 
ATOM     10  N   UNL     1       7.353   6.102  16.240  0.00  0.00    +0.000 NA
ATOM     11  H   UNL     1       4.273   3.837  17.309  0.00  0.00    +0.000 HD
ENDROOT
BRANCH   6  12
ATOM     12  C   UNL     1       2.639   4.059  19.239  0.00  0.00    +0.000 A 
ATOM     13  C   UNL     1       2.140   3.664  20.530  0.00  0.00    +0.000 A 
ATOM     14  C   UNL     1       1.127   2.730  20.451  0.00  0.00    +0.000 A 
ATOM     15  S   UNL     1       0.782   2.288  18.841  0.00  0.00    +0.000 S 
ATOM     16  C   UNL     1       1.982   3.345  18.245  0.00  0.00    +0.000 A 
ENDBRANCH   6  12
TORSDOF 1
ENDMDL
MODEL 4
REMARK VINA RESULT:      -6.2      0.877      1.236
REMARK  Name = 
REMARK  3 active torsions:
REMARK  status: ('A' for Active; 'I' for Inactive)
REMARK    1  A    between atoms: C_1  and  C_2
REMARK    2  A    between atoms: C_6  and  C_8
REMARK    3  A    between atoms: N_13  and  C_14
REMARK                            x       y       z     vdW  Elec       q    Type
REMARK                         _______ _______ _______ _____ _____    ______ ____
ROOT
ATOM      1  C   UNL     1       6.726   4.341  13.397  0.00  0.00    +0.000 C 
ATOM      2  C   UNL     1       6.588   4.605  14.841  0.00  0.00    +0.000 A 
ATOM      3  N   UNL     1       5.642   3.994  15.612  0.00  0.00    +0.000 NA
ATOM      4  C   UNL     1       5.797   4.521  16.806  0.00  0.00    +0.000 A 
ATOM      5  N   UNL     1       5.066   4.247  17.945  0.00  0.00    +0.000 N 
ATOM      6  C   UNL     1       4.010   3.351  17.919  0.00  0.00    +0.000 C 
ATOM      7  O   UNL     1       3.656   2.683  16.953  0.00  0.00    +0.000 OA
ATOM      8  N   UNL     1       6.822   5.436  16.731  0.00  0.00    +0.000 N 
ATOM      9  C   UNL     1       7.343   6.330  17.732  0.00  0.00    +0.000 C 
ATOM     10  N   UNL     1       7.352   5.485  15.493  0.00  0.00    +0.000 NA
ATOM     11  H   UNL     1       5.272   4.745  18.793  0.00  0.00    +0.000 HD
ENDROOT
BRANCH   6  12
ATOM     12  C   UNL     1       3.257   3.254  19.186  0.00  0.00    +0.000 A 
ATOM     13  C   UNL     1       3.616   2.621  20.427  0.00  0.00    +0.000 A 
ATOM     14  C   UNL     1       2.656   2.776  21.407  0.00  0.00    +0.000 A 
ATOM     15  S   UNL     1       1.301   3.648  20.848  0.00  0.00    +0.000 S 
ATOM     16  C   UNL     1       1.995   3.823  19.299  0.00  0.00    +0.000 A 
ENDBRANCH   6  12
TORSDOF 1
ENDMDL
MODEL 5
REMARK VINA RESULT:      -5.6      4.039      6.184
REMARK  Name = 
REMARK  3 active torsions:
REMARK  status: ('A' for Active; 'I' for Inactive)
REMARK    1  A    between atoms: C_1  and  C_2
REMARK    2  A    between atoms: C_6  and  C_8
REMARK    3  A    between atoms: N_13  and  C_14
REMARK                            x       y       z     vdW  Elec       q    Type
REMARK                         _______ _______ _______ _____ _____    ______ ____
ROOT
ATOM      1  C   UNL     1       8.081   7.989  18.023  0.00  0.00    +0.000 C 
ATOM      2  C   UNL     1       7.354   6.780  17.594  0.00  0.00    +0.000 A 
ATOM      3  N   UNL     1       7.420   6.297  16.320  0.00  0.00    +0.000 NA
ATOM      4  C   UNL     1       6.610   5.262  16.314  0.00  0.00    +0.000 A 
ATOM      5  N   UNL     1       6.310   4.437  15.249  0.00  0.00    +0.000 N 
ATOM      6  C   UNL     1       6.855   4.661  13.995  0.00  0.00    +0.000 C 
ATOM      7  O   UNL     1       7.669   5.532  13.709  0.00  0.00    +0.000 OA
ATOM      8  N   UNL     1       6.072   5.145  17.576  0.00  0.00    +0.000 N 
ATOM      9  C   UNL     1       5.084   4.228  18.081  0.00  0.00    +0.000 C 
ATOM     10  N   UNL     1       6.552   6.089  18.409  0.00  0.00    +0.000 NA
ATOM     11  H   UNL     1       5.648   3.693  15.376  0.00  0.00    +0.000 HD
ENDROOT
BRANCH   6  12
ATOM     12  C   UNL     1       6.349   3.763  12.937  0.00  0.00    +0.000 A 
ATOM     13  C   UNL     1       4.996   3.483  12.533  0.00  0.00    +0.000 A 
ATOM     14  C   UNL     1       4.924   2.606  11.469  0.00  0.00    +0.000 A 
ATOM     15  S   UNL     1       6.466   2.083  10.961  0.00  0.00    +0.000 S 
ATOM     16  C   UNL     1       7.232   3.026  12.159  0.00  0.00    +0.000 A 
ENDBRANCH   6  12
TORSDOF 1
ENDMDL
MODEL 6
REMARK VINA RESULT:      -5.6      3.110      6.044
REMARK  Name = 
REMARK  3 active torsions:
REMARK  status: ('A' for Active; 'I' for Inactive)
REMARK    1  A    between atoms: C_1  and  C_2
REMARK    2  A    between atoms: C_6  and  C_8
REMARK    3  A    between atoms: N_13  and  C_14
REMARK                            x       y       z     vdW  Elec       q    Type
REMARK                         _______ _______ _______ _____ _____    ______ ____
ROOT
ATOM      1  C   UNL     1       1.256   2.805  21.544  0.00  0.00    +0.000 C 
ATOM      2  C   UNL     1       1.825   3.803  20.621  0.00  0.00    +0.000 A 
ATOM      3  N   UNL     1       2.667   3.464  19.601  0.00  0.00    +0.000 NA
ATOM      4  C   UNL     1       2.998   4.610  19.049  0.00  0.00    +0.000 A 
ATOM      5  N   UNL     1       3.849   4.811  17.981  0.00  0.00    +0.000 N 
ATOM      6  C   UNL     1       4.498   3.749  17.373  0.00  0.00    +0.000 C 
ATOM      7  O   UNL     1       4.356   2.564  17.652  0.00  0.00    +0.000 OA
ATOM      8  N   UNL     1       2.358   5.610  19.745  0.00  0.00    +0.000 N 
ATOM      9  C   UNL     1       2.434   7.040  19.593  0.00  0.00    +0.000 C 
ATOM     10  N   UNL     1       1.589   5.113  20.734  0.00  0.00    +0.000 NA
ATOM     11  H   UNL     1       4.038   5.749  17.675  0.00  0.00    +0.000 HD
ENDROOT
BRANCH   6  12
ATOM     12  C   UNL     1       5.460   4.139  16.323  0.00  0.00    +0.000 A 
ATOM     13  C   UNL     1       6.726   4.815  16.435  0.00  0.00    +0.000 A 
ATOM     14  C   UNL     1       7.361   4.971  15.220  0.00  0.00    +0.000 A 
ATOM     15  S   UNL     1       6.442   4.343  13.928  0.00  0.00    +0.000 S 
ATOM     16  C   UNL     1       5.196   3.860  14.988  0.00  0.00    +0.000 A 
ENDBRANCH   6  12
TORSDOF 1
ENDMDL
MODEL 7
REMARK VINA RESULT:      -5.5      3.580      3.685
REMARK  Name = 
REMARK  3 active torsions:
REMARK  status: ('A' for Active; 'I' for Inactive)
REMARK    1  A    between atoms: C_1  and  C_2
REMARK    2  A    between atoms: C_6  and  C_8
REMARK    3  A    between atoms: N_13  and  C_14
REMARK                            x       y       z     vdW  Elec       q    Type
REMARK                         _______ _______ _______ _____ _____    ______ ____
ROOT
ATOM      1  C   UNL     1       6.253   3.744  15.036  0.00  0.00    +0.000 C 
ATOM      2  C   UNL     1       6.138   4.905  15.936  0.00  0.00    +0.000 A 
ATOM      3  N   UNL     1       4.979   5.222  16.582  0.00  0.00    +0.000 NA
ATOM      4  C   UNL     1       5.252   6.331  17.231  0.00  0.00    +0.000 A 
ATOM      5  N   UNL     1       4.400   7.069  18.027  0.00  0.00    +0.000 N 
ATOM      6  C   UNL     1       3.078   6.694  18.200  0.00  0.00    +0.000 C 
ATOM      7  O   UNL     1       2.550   5.685  17.745  0.00  0.00    +0.000 OA
ATOM      8  N   UNL     1       6.561   6.663  16.962  0.00  0.00    +0.000 N 
ATOM      9  C   UNL     1       7.329   7.811  17.365  0.00  0.00    +0.000 C 
ATOM     10  N   UNL     1       7.147   5.753  16.157  0.00  0.00    +0.000 NA
ATOM     11  H   UNL     1       4.733   7.920  18.446  0.00  0.00    +0.000 HD
ENDROOT
BRANCH   6  12
ATOM     12  C   UNL     1       2.267   7.647  18.985  0.00  0.00    +0.000 A 
ATOM     13  C   UNL     1       1.831   7.578  20.355  0.00  0.00    +0.000 A 
ATOM     14  C   UNL     1       1.113   8.690  20.746  0.00  0.00    +0.000 A 
ATOM     15  S   UNL     1       0.922   9.813  19.477  0.00  0.00    +0.000 S 
ATOM     16  C   UNL     1       1.800   8.818  18.403  0.00  0.00    +0.000 A 
ENDBRANCH   6  12
TORSDOF 1
ENDMDL
MODEL 8
REMARK VINA RESULT:      -5.5      3.038      5.956
REMARK  Name = 
REMARK  3 active torsions:
REMARK  status: ('A' for Active; 'I' for Inactive)
REMARK    1  A    between atoms: C_1  and  C_2
REMARK    2  A    between atoms: C_6  and  C_8
REMARK    3  A    between atoms: N_13  and  C_14
REMARK                            x       y       z     vdW  Elec       q    Type
REMARK                         _______ _______ _______ _____ _____    ______ ____
ROOT
ATOM      1  C   UNL     1       1.283   2.745  21.621  0.00  0.00    +0.000 C 
ATOM      2  C   UNL     1       1.823   3.731  20.667  0.00  0.00    +0.000 A 
ATOM      3  N   UNL     1       2.611   3.377  19.612  0.00  0.00    +0.000 NA
ATOM      4  C   UNL     1       2.933   4.515  19.039  0.00  0.00    +0.000 A 
ATOM      5  N   UNL     1       3.736   4.700  17.932  0.00  0.00    +0.000 N 
ATOM      6  C   UNL     1       4.342   3.627  17.301  0.00  0.00    +0.000 C 
ATOM      7  O   UNL     1       4.197   2.445  17.591  0.00  0.00    +0.000 OA
ATOM      8  N   UNL     1       2.339   5.528  19.759  0.00  0.00    +0.000 N 
ATOM      9  C   UNL     1       2.428   6.955  19.597  0.00  0.00    +0.000 C 
ATOM     10  N   UNL     1       1.610   5.045  20.785  0.00  0.00    +0.000 NA
ATOM     11  H   UNL     1       3.924   5.634  17.613  0.00  0.00    +0.000 HD
ENDROOT
BRANCH   6  12
ATOM     12  C   UNL     1       5.260   3.998  16.205  0.00  0.00    +0.000 A 
ATOM     13  C   UNL     1       5.147   3.771  14.788  0.00  0.00    +0.000 A 
ATOM     14  C   UNL     1       6.200   4.304  14.073  0.00  0.00    +0.000 A 
ATOM     15  S   UNL     1       7.351   5.053  15.084  0.00  0.00    +0.000 S 
ATOM     16  C   UNL     1       6.445   4.669  16.478  0.00  0.00    +0.000 A 
ENDBRANCH   6  12
TORSDOF 1
ENDMDL
MODEL 9
REMARK VINA RESULT:      -5.5      3.464      3.531
REMARK  Name = 
REMARK  3 active torsions:
REMARK  status: ('A' for Active; 'I' for Inactive)
REMARK    1  A    between atoms: C_1  and  C_2
REMARK    2  A    between atoms: C_6  and  C_8
REMARK    3  A    between atoms: N_13  and  C_14
REMARK                            x       y       z     vdW  Elec       q    Type
REMARK                         _______ _______ _______ _____ _____    ______ ____
ROOT
ATOM      1  C   UNL     1       6.122   3.942  14.695  0.00  0.00    +0.000 C 
ATOM      2  C   UNL     1       6.051   5.033  15.684  0.00  0.00    +0.000 A 
ATOM      3  N   UNL     1       4.904   5.344  16.353  0.00  0.00    +0.000 NA
ATOM      4  C   UNL     1       5.220   6.387  17.088  0.00  0.00    +0.000 A 
ATOM      5  N   UNL     1       4.395   7.094  17.940  0.00  0.00    +0.000 N 
ATOM      6  C   UNL     1       3.058   6.760  18.081  0.00  0.00    +0.000 C 
ATOM      7  O   UNL     1       2.492   5.813  17.547  0.00  0.00    +0.000 OA
ATOM      8  N   UNL     1       6.542   6.684  16.846  0.00  0.00    +0.000 N 
ATOM      9  C   UNL     1       7.354   7.765  17.339  0.00  0.00    +0.000 C 
ATOM     10  N   UNL     1       7.093   5.818  15.972  0.00  0.00    +0.000 NA
ATOM     11  H   UNL     1       4.761   7.894  18.424  0.00  0.00    +0.000 HD
ENDROOT
BRANCH   6  12
ATOM     12  C   UNL     1       2.284   7.681  18.939  0.00  0.00    +0.000 A 
ATOM     13  C   UNL     1       1.676   8.947  18.622  0.00  0.00    +0.000 A 
ATOM     14  C   UNL     1       0.998   9.499  19.689  0.00  0.00    +0.000 A 
ATOM     15  S   UNL     1       1.105   8.532  21.090  0.00  0.00    +0.000 S 
ATOM     16  C   UNL     1       2.055   7.373  20.274  0.00  0.00    +0.000 A 
ENDBRANCH   6  12
TORSDOF 1
ENDMDL
