MODEL 1
REMARK VINA RESULT:      -7.6      0.000      0.000
REMARK  Name = 
REMARK  6 active torsions:
REMARK  status: ('A' for Active; 'I' for Inactive)
REMARK    1  A    between atoms: C_1  and  C_2
REMARK    2  A    between atoms: C_2  and  N_3
REMARK    3  A    between atoms: C_7  and  C_9
REMARK    4  A    between atoms: C_12  and  N_13
REMARK    5  A    between atoms: N_13  and  S_14
REMARK    6  A    between atoms: S_14  and  C_17
REMARK                            x       y       z     vdW  Elec       q    Type
REMARK                         _______ _______ _______ _____ _____    ______ ____
ROOT
ATOM      1  C   UNL     1       1.430   8.464  20.153  0.00  0.00    +0.000 A 
ATOM      2  C   UNL     1       2.065   8.482  18.903  0.00  0.00    +0.000 A 
ATOM      3  C   UNL     1       2.525   7.304  18.317  0.00  0.00    +0.000 A 
ATOM      4  C   UNL     1       2.476   6.116  19.039  0.00  0.00    +0.000 A 
ATOM      5  C   UNL     1       1.934   6.097  20.324  0.00  0.00    +0.000 A 
ATOM      6  C   UNL     1       1.396   7.265  20.876  0.00  0.00    +0.000 A 
ENDROOT
BRANCH   1  11
ATOM      7  N   UNL     1      -1.884  12.129  18.448  0.00  0.00    +0.000 NA
ATOM      8  C   UNL     1      -1.056  12.661  19.562  0.00  0.00    +0.000 C 
ATOM      9  C   UNL     1      -0.669  11.650  20.671  0.00  0.00    +0.000 C 
ATOM     10  N   UNL     1      -0.180  10.380  20.109  0.00  0.00    +0.000 N 
ATOM     11  C   UNL     1       0.843   9.697  20.765  0.00  0.00    +0.000 C 
ATOM     12  O   UNL     1       1.313  10.072  21.832  0.00  0.00    +0.000 OA
ATOM     13  C   UNL     1      -1.053   9.838  19.067  0.00  0.00    +0.000 C 
ATOM     14  C   UNL     1      -1.241  10.886  17.953  0.00  0.00    +0.000 C 
BRANCH   7  16
ATOM     15  C   UNL     1      -4.196  11.447  17.654  0.00  0.00    +0.000 C 
ATOM     16  C   UNL     1      -3.281  11.832  18.803  0.00  0.00    +0.000 C 
ENDBRANCH   7  16
ENDBRANCH   1  11
BRANCH   4  17
ATOM     17  N   UNL     1       3.001   4.918  18.489  0.00  0.00    +0.000 N 
ATOM     18  H   UNL     1       2.808   4.710  17.510  0.00  0.00    +0.000 HD
BRANCH  17  19
ATOM     19  S   UNL     1       4.563   4.448  18.930  0.00  0.00    +0.000 S 
ATOM     20  O   UNL     1       5.082   5.517  19.758  0.00  0.00    +0.000 OA
ATOM     21  O   UNL     1       4.532   3.084  19.419  0.00  0.00    +0.000 OA
BRANCH  19  22
ATOM     22  C   UNL     1       5.424   4.484  17.380  0.00  0.00    +0.000 A 
ATOM     23  C   UNL     1       6.804   4.701  17.362  0.00  0.00    +0.000 A 
ATOM     24  C   UNL     1       7.477   4.726  16.140  0.00  0.00    +0.000 A 
ATOM     25  C   UNL     1       6.772   4.531  14.950  0.00  0.00    +0.000 A 
ATOM     26  C   UNL     1       5.395   4.305  14.976  0.00  0.00    +0.000 A 
ATOM     27  C   UNL     1       4.715   4.275  16.193  0.00  0.00    +0.000 A 
ENDBRANCH  19  22
ENDBRANCH  17  19
ENDBRANCH   4  17
TORSDOF 5
ENDMDL
MODEL 2
REMARK VINA RESULT:      -7.5      2.242      3.176
REMARK  Name = 
REMARK  6 active torsions:
REMARK  status: ('A' for Active; 'I' for Inactive)
REMARK    1  A    between atoms: C_1  and  C_2
REMARK    2  A    between atoms: C_2  and  N_3
REMARK    3  A    between atoms: C_7  and  C_9
REMARK    4  A    between atoms: C_12  and  N_13
REMARK    5  A    between atoms: N_13  and  S_14
REMARK    6  A    between atoms: S_14  and  C_17
REMARK                            x       y       z     vdW  Elec       q    Type
REMARK                         _______ _______ _______ _____ _____    ______ ____
ROOT
ATOM      1  C   UNL     1       0.981   9.273  18.756  0.00  0.00    +0.000 A 
ATOM      2  C   UNL     1       1.871   8.695  17.840  0.00  0.00    +0.000 A 
ATOM      3  C   UNL     1       2.621   7.571  18.181  0.00  0.00    +0.000 A 
ATOM      4  C   UNL     1       2.587   7.098  19.489  0.00  0.00    +0.000 A 
ATOM      5  C   UNL     1       1.779   7.720  20.441  0.00  0.00    +0.000 A 
ATOM      6  C   UNL     1       0.963   8.796  20.073  0.00  0.00    +0.000 A 
ENDROOT
BRANCH   1  11
ATOM      7  N   UNL     1       0.963  14.360  19.955  0.00  0.00    +0.000 NA
ATOM      8  C   UNL     1      -0.397  13.923  19.547  0.00  0.00    +0.000 C 
ATOM      9  C   UNL     1      -0.465  12.829  18.452  0.00  0.00    +0.000 C 
ATOM     10  N   UNL     1       0.469  11.723  18.722  0.00  0.00    +0.000 N 
ATOM     11  C   UNL     1       0.096  10.422  18.389  0.00  0.00    +0.000 C 
ATOM     12  O   UNL     1      -0.955  10.160  17.815  0.00  0.00    +0.000 OA
ATOM     13  C   UNL     1       1.822  12.179  19.047  0.00  0.00    +0.000 C 
ATOM     14  C   UNL     1       1.767  13.147  20.245  0.00  0.00    +0.000 C 
BRANCH   7  16
ATOM     15  C   UNL     1       3.071  15.635  19.343  0.00  0.00    +0.000 C 
ATOM     16  C   UNL     1       1.676  15.175  18.958  0.00  0.00    +0.000 C 
ENDBRANCH   7  16
ENDBRANCH   1  11
BRANCH   4  17
ATOM     17  N   UNL     1       3.394   5.997  19.876  0.00  0.00    +0.000 N 
ATOM     18  H   UNL     1       3.553   5.839  20.871  0.00  0.00    +0.000 HD
BRANCH  17  19
ATOM     19  S   UNL     1       3.225   4.542  19.033  0.00  0.00    +0.000 S 
ATOM     20  O   UNL     1       3.342   3.492  20.022  0.00  0.00    +0.000 OA
ATOM     21  O   UNL     1       2.059   4.621  18.175  0.00  0.00    +0.000 OA
BRANCH  19  22
ATOM     22  C   UNL     1       4.682   4.515  18.023  0.00  0.00    +0.000 A 
ATOM     23  C   UNL     1       4.579   4.173  16.673  0.00  0.00    +0.000 A 
ATOM     24  C   UNL     1       5.729   4.154  15.882  0.00  0.00    +0.000 A 
ATOM     25  C   UNL     1       6.967   4.479  16.442  0.00  0.00    +0.000 A 
ATOM     26  C   UNL     1       7.061   4.829  17.789  0.00  0.00    +0.000 A 
ATOM     27  C   UNL     1       5.917   4.853  18.586  0.00  0.00    +0.000 A 
ENDBRANCH  19  22
ENDBRANCH  17  19
ENDBRANCH   4  17
TORSDOF 5
ENDMDL
MODEL 3
REMARK VINA RESULT:      -7.5      2.626      3.408
REMARK  Name = 
REMARK  6 active torsions:
REMARK  status: ('A' for Active; 'I' for Inactive)
REMARK    1  A    between atoms: C_1  and  C_2
REMARK    2  A    between atoms: C_2  and  N_3
REMARK    3  A    between atoms: C_7  and  C_9
REMARK    4  A    between atoms: C_12  and  N_13
REMARK    5  A    between atoms: N_13  and  S_14
REMARK    6  A    between atoms: S_14  and  C_17
REMARK                            x       y       z     vdW  Elec       q    Type
REMARK                         _______ _______ _______ _____ _____    ______ ____
ROOT
ATOM      1  C   UNL     1       1.348   8.929  19.811  0.00  0.00    +0.000 A 
ATOM      2  C   UNL     1       1.749   9.028  18.471  0.00  0.00    +0.000 A 
ATOM      3  C   UNL     1       2.333   7.945  17.817  0.00  0.00    +0.000 A 
ATOM      4  C   UNL     1       2.646   6.798  18.539  0.00  0.00    +0.000 A 
ATOM      5  C   UNL     1       2.341   6.717  19.897  0.00  0.00    +0.000 A 
ATOM      6  C   UNL     1       1.678   7.774  20.531  0.00  0.00    +0.000 A 
ENDROOT
BRANCH   1  11
ATOM      7  N   UNL     1      -2.437  12.253  18.417  0.00  0.00    +0.000 NA
ATOM      8  C   UNL     1      -1.646  12.816  19.542  0.00  0.00    +0.000 C 
ATOM      9  C   UNL     1      -1.105  11.797  20.576  0.00  0.00    +0.000 C 
ATOM     10  N   UNL     1      -0.483  10.632  19.925  0.00  0.00    +0.000 N 
ATOM     11  C   UNL     1       0.635  10.042  20.513  0.00  0.00    +0.000 C 
ATOM     12  O   UNL     1       1.089  10.408  21.590  0.00  0.00    +0.000 OA
ATOM     13  C   UNL     1      -1.316  10.049  18.871  0.00  0.00    +0.000 C 
ATOM     14  C   UNL     1      -1.663  11.131  17.829  0.00  0.00    +0.000 C 
BRANCH   7  16
ATOM     15  C   UNL     1      -4.641  11.260  17.644  0.00  0.00    +0.000 C 
ATOM     16  C   UNL     1      -3.776  11.767  18.784  0.00  0.00    +0.000 C 
ENDBRANCH   7  16
ENDBRANCH   1  11
BRANCH   4  17
ATOM     17  N   UNL     1       3.303   5.709  17.909  0.00  0.00    +0.000 N 
ATOM     18  H   UNL     1       4.269   5.510  18.168  0.00  0.00    +0.000 HD
BRANCH  17  19
ATOM     19  S   UNL     1       2.425   4.291  17.637  0.00  0.00    +0.000 S 
ATOM     20  O   UNL     1       1.091   4.712  17.265  0.00  0.00    +0.000 OA
ATOM     21  O   UNL     1       3.190   3.414  16.772  0.00  0.00    +0.000 OA
BRANCH  19  22
ATOM     22  C   UNL     1       2.346   3.574  19.257  0.00  0.00    +0.000 A 
ATOM     23  C   UNL     1       1.116   3.482  19.911  0.00  0.00    +0.000 A 
ATOM     24  C   UNL     1       1.059   2.916  21.185  0.00  0.00    +0.000 A 
ATOM     25  C   UNL     1       2.225   2.445  21.793  0.00  0.00    +0.000 A 
ATOM     26  C   UNL     1       3.450   2.532  21.130  0.00  0.00    +0.000 A 
ATOM     27  C   UNL     1       3.515   3.093  19.856  0.00  0.00    +0.000 A 
ENDBRANCH  19  22
ENDBRANCH  17  19
ENDBRANCH   4  17
TORSDOF 5
ENDMDL
MODEL 4
REMARK VINA RESULT:      -7.5      2.324      3.304
REMARK  Name = 
REMARK  6 active torsions:
REMARK  status: ('A' for Active; 'I' for Inactive)
REMARK    1  A    between atoms: C_1  and  C_2
REMARK    2  A    between atoms: C_2  and  N_3
REMARK    3  A    between atoms: C_7  and  C_9
REMARK    4  A    between atoms: C_12  and  N_13
REMARK    5  A    between atoms: N_13  and  S_14
REMARK    6  A    between atoms: S_14  and  C_17
REMARK                            x       y       z     vdW  Elec       q    Type
REMARK                         _______ _______ _______ _____ _____    ______ ____
ROOT
ATOM      1  C   UNL     1       0.889   9.489  18.869  0.00  0.00    +0.000 A 
ATOM      2  C   UNL     1       0.823   8.918  20.148  0.00  0.00    +0.000 A 
ATOM      3  C   UNL     1       1.662   7.865  20.506  0.00  0.00    +0.000 A 
ATOM      4  C   UNL     1       2.478   7.283  19.542  0.00  0.00    +0.000 A 
ATOM      5  C   UNL     1       2.487   7.776  18.238  0.00  0.00    +0.000 A 
ATOM      6  C   UNL     1       1.706   8.889  17.903  0.00  0.00    +0.000 A 
ENDROOT
BRANCH   1  11
ATOM      7  N   UNL     1       1.185  14.593  19.953  0.00  0.00    +0.000 NA
ATOM      8  C   UNL     1      -0.204  14.228  19.570  0.00  0.00    +0.000 C 
ATOM      9  C   UNL     1      -0.349  13.116  18.500  0.00  0.00    +0.000 C 
ATOM     10  N   UNL     1       0.521  11.963  18.786  0.00  0.00    +0.000 N 
ATOM     11  C   UNL     1       0.068  10.680  18.486  0.00  0.00    +0.000 C 
ATOM     12  O   UNL     1      -1.003  10.468  17.929  0.00  0.00    +0.000 OA
ATOM     13  C   UNL     1       1.902  12.346  19.086  0.00  0.00    +0.000 C 
ATOM     14  C   UNL     1       1.919  13.341  20.262  0.00  0.00    +0.000 C 
BRANCH   7  16
ATOM     15  C   UNL     1       1.302  16.641  18.458  0.00  0.00    +0.000 C 
ATOM     16  C   UNL     1       1.932  15.343  18.930  0.00  0.00    +0.000 C 
ENDBRANCH   7  16
ENDBRANCH   1  11
BRANCH   4  17
ATOM     17  N   UNL     1       3.290   6.165  19.867  0.00  0.00    +0.000 N 
ATOM     18  H   UNL     1       3.490   5.982  20.850  0.00  0.00    +0.000 HD
BRANCH  17  19
ATOM     19  S   UNL     1       3.072   4.733  18.997  0.00  0.00    +0.000 S 
ATOM     20  O   UNL     1       3.090   3.666  19.975  0.00  0.00    +0.000 OA
ATOM     21  O   UNL     1       1.948   4.889  18.095  0.00  0.00    +0.000 OA
BRANCH  19  22
ATOM     22  C   UNL     1       4.564   4.634  18.045  0.00  0.00    +0.000 A 
ATOM     23  C   UNL     1       4.504   4.237  16.707  0.00  0.00    +0.000 A 
ATOM     24  C   UNL     1       5.681   4.162  15.962  0.00  0.00    +0.000 A 
ATOM     25  C   UNL     1       6.904   4.486  16.553  0.00  0.00    +0.000 A 
ATOM     26  C   UNL     1       6.956   4.890  17.888  0.00  0.00    +0.000 A 
ATOM     27  C   UNL     1       5.785   4.971  18.639  0.00  0.00    +0.000 A 
ENDBRANCH  19  22
ENDBRANCH  17  19
ENDBRANCH   4  17
TORSDOF 5
ENDMDL
MODEL 5
REMARK VINA RESULT:      -7.4      2.646      3.340
REMARK  Name = 
REMARK  6 active torsions:
REMARK  status: ('A' for Active; 'I' for Inactive)
REMARK    1  A    between atoms: C_1  and  C_2
REMARK    2  A    between atoms: C_2  and  N_3
REMARK    3  A    between atoms: C_7  and  C_9
REMARK    4  A    between atoms: C_12  and  N_13
REMARK    5  A    between atoms: N_13  and  S_14
REMARK    6  A    between atoms: S_14  and  C_17
REMARK                            x       y       z     vdW  Elec       q    Type
REMARK                         _______ _______ _______ _____ _____    ______ ____
ROOT
ATOM      1  C   UNL     1       1.316   8.911  19.869  0.00  0.00    +0.000 A 
ATOM      2  C   UNL     1       1.707   9.028  18.528  0.00  0.00    +0.000 A 
ATOM      3  C   UNL     1       2.289   7.954  17.856  0.00  0.00    +0.000 A 
ATOM      4  C   UNL     1       2.610   6.799  18.562  0.00  0.00    +0.000 A 
ATOM      5  C   UNL     1       2.314   6.700  19.921  0.00  0.00    +0.000 A 
ATOM      6  C   UNL     1       1.653   7.748  20.573  0.00  0.00    +0.000 A 
ENDROOT
BRANCH   1  11
ATOM      7  N   UNL     1      -2.452  12.276  18.528  0.00  0.00    +0.000 NA
ATOM      8  C   UNL     1      -1.662  12.815  19.666  0.00  0.00    +0.000 C 
ATOM      9  C   UNL     1      -1.129  11.774  20.682  0.00  0.00    +0.000 C 
ATOM     10  N   UNL     1      -0.509  10.619  20.010  0.00  0.00    +0.000 N 
ATOM     11  C   UNL     1       0.605  10.013  20.590  0.00  0.00    +0.000 C 
ATOM     12  O   UNL     1       1.057  10.357  21.675  0.00  0.00    +0.000 OA
ATOM     13  C   UNL     1      -1.341  10.060  18.943  0.00  0.00    +0.000 C 
ATOM     14  C   UNL     1      -1.681  11.162  17.922  0.00  0.00    +0.000 C 
BRANCH   7  16
ATOM     15  C   UNL     1      -4.583  12.644  19.857  0.00  0.00    +0.000 C 
ATOM     16  C   UNL     1      -3.794  11.788  18.882  0.00  0.00    +0.000 C 
ENDBRANCH   7  16
ENDBRANCH   1  11
BRANCH   4  17
ATOM     17  N   UNL     1       3.264   5.720  17.913  0.00  0.00    +0.000 N 
ATOM     18  H   UNL     1       4.234   5.524  18.157  0.00  0.00    +0.000 HD
BRANCH  17  19
ATOM     19  S   UNL     1       2.392   4.298  17.640  0.00  0.00    +0.000 S 
ATOM     20  O   UNL     1       1.053   4.715  17.279  0.00  0.00    +0.000 OA
ATOM     21  O   UNL     1       3.155   3.429  16.767  0.00  0.00    +0.000 OA
BRANCH  19  22
ATOM     22  C   UNL     1       2.326   3.575  19.258  0.00  0.00    +0.000 A 
ATOM     23  C   UNL     1       3.498   3.092  19.846  0.00  0.00    +0.000 A 
ATOM     24  C   UNL     1       3.441   2.525  21.120  0.00  0.00    +0.000 A 
ATOM     25  C   UNL     1       2.221   2.447  21.796  0.00  0.00    +0.000 A 
ATOM     26  C   UNL     1       1.056   2.940  21.206  0.00  0.00    +0.000 A 
ATOM     27  C   UNL     1       1.104   3.510  19.935  0.00  0.00    +0.000 A 
ENDBRANCH  19  22
ENDBRANCH  17  19
ENDBRANCH   4  17
TORSDOF 5
ENDMDL
MODEL 6
REMARK VINA RESULT:      -7.4      2.491      3.232
REMARK  Name = 
REMARK  6 active torsions:
REMARK  status: ('A' for Active; 'I' for Inactive)
REMARK    1  A    between atoms: C_1  and  C_2
REMARK    2  A    between atoms: C_2  and  N_3
REMARK    3  A    between atoms: C_7  and  C_9
REMARK    4  A    between atoms: C_12  and  N_13
REMARK    5  A    between atoms: N_13  and  S_14
REMARK    6  A    between atoms: S_14  and  C_17
REMARK                            x       y       z     vdW  Elec       q    Type
REMARK                         _______ _______ _______ _____ _____    ______ ____
ROOT
ATOM      1  C   UNL     1       0.830   9.697  18.927  0.00  0.00    +0.000 A 
ATOM      2  C   UNL     1       1.704   9.071  18.027  0.00  0.00    +0.000 A 
ATOM      3  C   UNL     1       2.371   7.898  18.376  0.00  0.00    +0.000 A 
ATOM      4  C   UNL     1       2.273   7.417  19.678  0.00  0.00    +0.000 A 
ATOM      5  C   UNL     1       1.483   8.081  20.615  0.00  0.00    +0.000 A 
ATOM      6  C   UNL     1       0.748   9.211  20.238  0.00  0.00    +0.000 A 
ENDROOT
BRANCH   1  11
ATOM      7  N   UNL     1       1.383  14.823  19.787  0.00  0.00    +0.000 NA
ATOM      8  C   UNL     1      -0.041  14.499  19.508  0.00  0.00    +0.000 C 
ATOM      9  C   UNL     1      -0.296  13.354  18.494  0.00  0.00    +0.000 C 
ATOM     10  N   UNL     1       0.549  12.179  18.769  0.00  0.00    +0.000 N 
ATOM     11  C   UNL     1       0.030  10.904  18.550  0.00  0.00    +0.000 C 
ATOM     12  O   UNL     1      -1.082  10.714  18.071  0.00  0.00    +0.000 OA
ATOM     13  C   UNL     1       1.959  12.518  18.965  0.00  0.00    +0.000 C 
ATOM     14  C   UNL     1       2.089  13.555  20.098  0.00  0.00    +0.000 C 
BRANCH   7  16
ATOM     15  C   UNL     1       1.542  16.861  18.282  0.00  0.00    +0.000 C 
ATOM     16  C   UNL     1       2.089  15.505  18.690  0.00  0.00    +0.000 C 
ENDBRANCH   7  16
ENDBRANCH   1  11
BRANCH   4  17
ATOM     17  N   UNL     1       2.997   6.263  20.073  0.00  0.00    +0.000 N 
ATOM     18  H   UNL     1       2.901   5.936  21.034  0.00  0.00    +0.000 HD
BRANCH  17  19
ATOM     19  S   UNL     1       3.110   4.974  18.986  0.00  0.00    +0.000 S 
ATOM     20  O   UNL     1       3.290   3.786  19.792  0.00  0.00    +0.000 OA
ATOM     21  O   UNL     1       2.024   5.059  18.029  0.00  0.00    +0.000 OA
BRANCH  19  22
ATOM     22  C   UNL     1       4.638   5.311  18.151  0.00  0.00    +0.000 A 
ATOM     23  C   UNL     1       5.827   5.362  18.883  0.00  0.00    +0.000 A 
ATOM     24  C   UNL     1       7.027   5.625  18.221  0.00  0.00    +0.000 A 
ATOM     25  C   UNL     1       7.032   5.832  16.840  0.00  0.00    +0.000 A 
ATOM     26  C   UNL     1       5.842   5.770  16.114  0.00  0.00    +0.000 A 
ATOM     27  C   UNL     1       4.639   5.504  16.767  0.00  0.00    +0.000 A 
ENDBRANCH  19  22
ENDBRANCH  17  19
ENDBRANCH   4  17
TORSDOF 5
ENDMDL
MODEL 7
REMARK VINA RESULT:      -7.4      0.713      1.582
REMARK  Name = 
REMARK  6 active torsions:
REMARK  status: ('A' for Active; 'I' for Inactive)
REMARK    1  A    between atoms: C_1  and  C_2
REMARK    2  A    between atoms: C_2  and  N_3
REMARK    3  A    between atoms: C_7  and  C_9
REMARK    4  A    between atoms: C_12  and  N_13
REMARK    5  A    between atoms: N_13  and  S_14
REMARK    6  A    between atoms: S_14  and  C_17
REMARK                            x       y       z     vdW  Elec       q    Type
REMARK                         _______ _______ _______ _____ _____    ______ ____
ROOT
ATOM      1  C   UNL     1       1.511   8.205  20.550  0.00  0.00    +0.000 A 
ATOM      2  C   UNL     1       1.405   6.900  21.052  0.00  0.00    +0.000 A 
ATOM      3  C   UNL     1       1.964   5.823  20.366  0.00  0.00    +0.000 A 
ATOM      4  C   UNL     1       2.514   6.026  19.104  0.00  0.00    +0.000 A 
ATOM      5  C   UNL     1       2.541   7.305  18.547  0.00  0.00    +0.000 A 
ATOM      6  C   UNL     1       2.056   8.397  19.275  0.00  0.00    +0.000 A 
ENDROOT
BRANCH   1  11
ATOM      7  N   UNL     1      -1.341  12.387  19.246  0.00  0.00    +0.000 NA
ATOM      8  C   UNL     1      -0.537  12.671  20.464  0.00  0.00    +0.000 C 
ATOM      9  C   UNL     1      -0.314  11.480  21.430  0.00  0.00    +0.000 C 
ATOM     10  N   UNL     1       0.090  10.260  20.712  0.00  0.00    +0.000 N 
ATOM     11  C   UNL     1       1.003   9.392  21.308  0.00  0.00    +0.000 C 
ATOM     12  O   UNL     1       1.439   9.563  22.440  0.00  0.00    +0.000 OA
ATOM     13  C   UNL     1      -0.764   9.961  19.561  0.00  0.00    +0.000 C 
ATOM     14  C   UNL     1      -0.785  11.169  18.605  0.00  0.00    +0.000 C 
BRANCH   7  16
ATOM     15  C   UNL     1      -3.450  13.183  20.413  0.00  0.00    +0.000 C 
ATOM     16  C   UNL     1      -2.778  12.185  19.486  0.00  0.00    +0.000 C 
ENDBRANCH   7  16
ENDBRANCH   1  11
BRANCH   4  17
ATOM     17  N   UNL     1       3.027   4.933  18.359  0.00  0.00    +0.000 N 
ATOM     18  H   UNL     1       2.877   4.921  17.351  0.00  0.00    +0.000 HD
BRANCH  17  19
ATOM     19  S   UNL     1       4.549   4.325  18.771  0.00  0.00    +0.000 S 
ATOM     20  O   UNL     1       5.124   5.280  19.694  0.00  0.00    +0.000 OA
ATOM     21  O   UNL     1       4.422   2.928  19.137  0.00  0.00    +0.000 OA
BRANCH  19  22
ATOM     22  C   UNL     1       5.433   4.439  17.238  0.00  0.00    +0.000 A 
ATOM     23  C   UNL     1       4.769   4.177  16.037  0.00  0.00    +0.000 A 
ATOM     24  C   UNL     1       5.468   4.270  14.834  0.00  0.00    +0.000 A 
ATOM     25  C   UNL     1       6.819   4.625  14.836  0.00  0.00    +0.000 A 
ATOM     26  C   UNL     1       7.474   4.895  16.039  0.00  0.00    +0.000 A 
ATOM     27  C   UNL     1       6.782   4.807  17.246  0.00  0.00    +0.000 A 
ENDBRANCH  19  22
ENDBRANCH  17  19
ENDBRANCH   4  17
TORSDOF 5
ENDMDL
MODEL 8
REMARK VINA RESULT:      -7.3      2.638      3.563
REMARK  Name = 
REMARK  6 active torsions:
REMARK  status: ('A' for Active; 'I' for Inactive)
REMARK    1  A    between atoms: C_1  and  C_2
REMARK    2  A    between atoms: C_2  and  N_3
REMARK    3  A    between atoms: C_7  and  C_9
REMARK    4  A    between atoms: C_12  and  N_13
REMARK    5  A    between atoms: N_13  and  S_14
REMARK    6  A    between atoms: S_14  and  C_17
REMARK                            x       y       z     vdW  Elec       q    Type
REMARK                         _______ _______ _______ _____ _____    ______ ____
ROOT
ATOM      1  C   UNL     1       1.358   8.958  19.854  0.00  0.00    +0.000 A 
ATOM      2  C   UNL     1       1.600   7.762  20.543  0.00  0.00    +0.000 A 
ATOM      3  C   UNL     1       2.309   6.722  19.945  0.00  0.00    +0.000 A 
ATOM      4  C   UNL     1       2.662   6.818  18.603  0.00  0.00    +0.000 A 
ATOM      5  C   UNL     1       2.345   7.964  17.873  0.00  0.00    +0.000 A 
ATOM      6  C   UNL     1       1.708   9.041  18.500  0.00  0.00    +0.000 A 
ENDROOT
BRANCH   1  11
ATOM      7  N   UNL     1      -2.463  12.205  18.378  0.00  0.00    +0.000 NA
ATOM      8  C   UNL     1      -1.621  12.843  19.424  0.00  0.00    +0.000 C 
ATOM      9  C   UNL     1      -1.043  11.897  20.507  0.00  0.00    +0.000 C 
ATOM     10  N   UNL     1      -0.456  10.682  19.918  0.00  0.00    +0.000 N 
ATOM     11  C   UNL     1       0.682  10.127  20.500  0.00  0.00    +0.000 C 
ATOM     12  O   UNL     1       1.184  10.567  21.528  0.00  0.00    +0.000 OA
ATOM     13  C   UNL     1      -1.337  10.031  18.947  0.00  0.00    +0.000 C 
ATOM     14  C   UNL     1      -1.722  11.036  17.843  0.00  0.00    +0.000 C 
BRANCH   7  16
ATOM     15  C   UNL     1      -4.472  12.641  19.866  0.00  0.00    +0.000 C 
ATOM     16  C   UNL     1      -3.788  11.760  18.837  0.00  0.00    +0.000 C 
ENDBRANCH   7  16
ENDBRANCH   1  11
BRANCH   4  17
ATOM     17  N   UNL     1       3.324   5.743  17.955  0.00  0.00    +0.000 N 
ATOM     18  H   UNL     1       4.290   5.545  18.212  0.00  0.00    +0.000 HD
BRANCH  17  19
ATOM     19  S   UNL     1       2.453   4.326  17.659  0.00  0.00    +0.000 S 
ATOM     20  O   UNL     1       1.121   4.747  17.281  0.00  0.00    +0.000 OA
ATOM     21  O   UNL     1       3.228   3.462  16.790  0.00  0.00    +0.000 OA
BRANCH  19  22
ATOM     22  C   UNL     1       2.362   3.590  19.270  0.00  0.00    +0.000 A 
ATOM     23  C   UNL     1       1.132   3.515  19.926  0.00  0.00    +0.000 A 
ATOM     24  C   UNL     1       1.066   2.933  21.192  0.00  0.00    +0.000 A 
ATOM     25  C   UNL     1       2.223   2.430  21.791  0.00  0.00    +0.000 A 
ATOM     26  C   UNL     1       3.448   2.499  21.126  0.00  0.00    +0.000 A 
ATOM     27  C   UNL     1       3.522   3.076  19.859  0.00  0.00    +0.000 A 
ENDBRANCH  19  22
ENDBRANCH  17  19
ENDBRANCH   4  17
TORSDOF 5
ENDMDL
MODEL 9
REMARK VINA RESULT:      -7.2      1.323      1.829
REMARK  Name = 
REMARK  6 active torsions:
REMARK  status: ('A' for Active; 'I' for Inactive)
REMARK    1  A    between atoms: C_1  and  C_2
REMARK    2  A    between atoms: C_2  and  N_3
REMARK    3  A    between atoms: C_7  and  C_9
REMARK    4  A    between atoms: C_12  and  N_13
REMARK    5  A    between atoms: N_13  and  S_14
REMARK    6  A    between atoms: S_14  and  C_17
REMARK                            x       y       z     vdW  Elec       q    Type
REMARK                         _______ _______ _______ _____ _____    ______ ____
ROOT
ATOM      1  C   UNL     1       1.641   7.695  20.367  0.00  0.00    +0.000 A 
ATOM      2  C   UNL     1       2.271   7.806  19.119  0.00  0.00    +0.000 A 
ATOM      3  C   UNL     1       2.508   6.678  18.336  0.00  0.00    +0.000 A 
ATOM      4  C   UNL     1       2.241   5.415  18.855  0.00  0.00    +0.000 A 
ATOM      5  C   UNL     1       1.701   5.281  20.134  0.00  0.00    +0.000 A 
ATOM      6  C   UNL     1       1.386   6.420  20.885  0.00  0.00    +0.000 A 
ENDROOT
BRANCH   1  11
ATOM      7  N   UNL     1      -0.697  12.250  19.314  0.00  0.00    +0.000 NA
ATOM      8  C   UNL     1       0.148  12.374  20.530  0.00  0.00    +0.000 C 
ATOM      9  C   UNL     1       0.236  11.119  21.434  0.00  0.00    +0.000 C 
ATOM     10  N   UNL     1       0.481   9.895  20.651  0.00  0.00    +0.000 N 
ATOM     11  C   UNL     1       1.289   8.895  21.189  0.00  0.00    +0.000 C 
ATOM     12  O   UNL     1       1.756   8.957  22.321  0.00  0.00    +0.000 OA
ATOM     13  C   UNL     1      -0.415   9.759  19.502  0.00  0.00    +0.000 C 
ATOM     14  C   UNL     1      -0.301  11.007  18.605  0.00  0.00    +0.000 C 
BRANCH   7  16
ATOM     15  C   UNL     1      -2.682  13.237  20.550  0.00  0.00    +0.000 C 
ATOM     16  C   UNL     1      -2.146  12.211  19.568  0.00  0.00    +0.000 C 
ENDBRANCH   7  16
ENDBRANCH   1  11
BRANCH   4  17
ATOM     17  N   UNL     1       2.538   4.251  18.101  0.00  0.00    +0.000 N 
ATOM     18  H   UNL     1       2.376   4.271  17.094  0.00  0.00    +0.000 HD
BRANCH  17  19
ATOM     19  S   UNL     1       3.928   3.374  18.491  0.00  0.00    +0.000 S 
ATOM     20  O   UNL     1       3.935   3.259  19.934  0.00  0.00    +0.000 OA
ATOM     21  O   UNL     1       3.998   2.191  17.656  0.00  0.00    +0.000 OA
BRANCH  19  22
ATOM     22  C   UNL     1       5.226   4.487  18.021  0.00  0.00    +0.000 A 
ATOM     23  C   UNL     1       5.451   4.752  16.668  0.00  0.00    +0.000 A 
ATOM     24  C   UNL     1       6.473   5.630  16.303  0.00  0.00    +0.000 A 
ATOM     25  C   UNL     1       7.256   6.237  17.287  0.00  0.00    +0.000 A 
ATOM     26  C   UNL     1       7.019   5.976  18.638  0.00  0.00    +0.000 A 
ATOM     27  C   UNL     1       5.999   5.102  19.011  0.00  0.00    +0.000 A 
ENDBRANCH  19  22
ENDBRANCH  17  19
ENDBRANCH   4  17
TORSDOF 5
ENDMDL
