MODEL 1
REMARK VINA RESULT:      -9.2      0.000      0.000
REMARK  Name = 
REMARK  8 active torsions:
REMARK  status: ('A' for Active; 'I' for Inactive)
REMARK    1  A    between atoms: C_1  and  C_2
REMARK    2  A    between atoms: C_4  and  C_5
REMARK    3  A    between atoms: C_7  and  N_8
REMARK    4  A    between atoms: C_9  and  C_11
REMARK    5  A    between atoms: C_11  and  N_12
REMARK    6  A    between atoms: N_21  and  C_22
REMARK    7  A    between atoms: C_25  and  C_26
REMARK    8  A    between atoms: C_27  and  C_28
REMARK                            x       y       z     vdW  Elec       q    Type
REMARK                         _______ _______ _______ _____ _____    ______ ____
ROOT
ATOM      1  N   UNL     1       3.195   5.336  17.953  0.00  0.00    +0.000 N 
ATOM      2  C   UNL     1       3.210   3.934  18.265  0.00  0.00    +0.000 A 
ATOM      3  N   UNL     1       3.994   2.995  17.709  0.00  0.00    +0.000 NA
ATOM      4  C   UNL     1       3.784   1.718  18.138  0.00  0.00    +0.000 A 
ATOM      5  C   UNL     1       2.806   1.334  19.062  0.00  0.00    +0.000 A 
ATOM      6  C   UNL     1       2.019   2.319  19.641  0.00  0.00    +0.000 A 
ATOM      7  C   UNL     1       2.275   3.614  19.240  0.00  0.00    +0.000 A 
ATOM      8  C   UNL     1       1.744   4.861  19.748  0.00  0.00    +0.000 A 
ATOM      9  O   UNL     1       0.900   4.915  20.624  0.00  0.00    +0.000 OA
ATOM     10  N   UNL     1       2.384   5.864  19.029  0.00  0.00    +0.000 N 
ENDROOT
BRANCH  10  11
ATOM     11  C   UNL     1       2.050   7.226  19.118  0.00  0.00    +0.000 A 
ATOM     12  C   UNL     1       2.103   8.061  18.007  0.00  0.00    +0.000 A 
ATOM     13  C   UNL     1       1.694   9.390  18.120  0.00  0.00    +0.000 A 
ATOM     14  C   UNL     1       1.280   9.923  19.356  0.00  0.00    +0.000 A 
ATOM     15  C   UNL     1       0.834  11.357  19.411  0.00  0.00    +0.000 C 
ATOM     16  C   UNL     1       1.297   9.104  20.498  0.00  0.00    +0.000 A 
ATOM     17  C   UNL     1       0.991   9.602  21.882  0.00  0.00    +0.000 C 
ATOM     18  C   UNL     1       1.644   7.750  20.353  0.00  0.00    +0.000 A 
ENDBRANCH  10  11
BRANCH   1  19
ATOM     19  C   UNL     1       4.569   5.882  17.847  0.00  0.00    +0.000 C 
BRANCH  19  21
ATOM     20  N   UNL     1       5.531   4.768  15.867  0.00  0.00    +0.000 N 
ATOM     21  C   UNL     1       5.050   5.960  16.390  0.00  0.00    +0.000 C 
ATOM     22  O   UNL     1       5.028   7.040  15.799  0.00  0.00    +0.000 OA
ATOM     23  H   UNL     1       5.399   3.949  16.453  0.00  0.00    +0.000 HD
BRANCH  20  30
ATOM     24  C   UNL     1       8.928   5.960  12.489  0.00  0.00    +0.000 C 
ATOM     25  C   UNL     1       7.731   5.145  12.894  0.00  0.00    +0.000 A 
ATOM     26  C   UNL     1       7.213   4.176  12.029  0.00  0.00    +0.000 A 
ATOM     27  C   UNL     1       6.112   3.405  12.410  0.00  0.00    +0.000 A 
ATOM     28  C   UNL     1       5.546   2.363  11.486  0.00  0.00    +0.000 C 
ATOM     29  C   UNL     1       5.536   3.602  13.674  0.00  0.00    +0.000 A 
ATOM     30  C   UNL     1       6.044   4.556  14.563  0.00  0.00    +0.000 A 
ATOM     31  C   UNL     1       7.130   5.339  14.150  0.00  0.00    +0.000 A 
ENDBRANCH  20  30
ENDBRANCH  19  21
ENDBRANCH   1  19
TORSDOF 4
ENDMDL
MODEL 2
REMARK VINA RESULT:      -9.2      0.098      1.573
REMARK  Name = 
REMARK  8 active torsions:
REMARK  status: ('A' for Active; 'I' for Inactive)
REMARK    1  A    between atoms: C_1  and  C_2
REMARK    2  A    between atoms: C_4  and  C_5
REMARK    3  A    between atoms: C_7  and  N_8
REMARK    4  A    between atoms: C_9  and  C_11
REMARK    5  A    between atoms: C_11  and  N_12
REMARK    6  A    between atoms: N_21  and  C_22
REMARK    7  A    between atoms: C_25  and  C_26
REMARK    8  A    between atoms: C_27  and  C_28
REMARK                            x       y       z     vdW  Elec       q    Type
REMARK                         _______ _______ _______ _____ _____    ______ ____
ROOT
ATOM      1  N   UNL     1       3.231   5.318  17.975  0.00  0.00    +0.000 N 
ATOM      2  C   UNL     1       3.233   3.911  18.267  0.00  0.00    +0.000 A 
ATOM      3  N   UNL     1       4.032   2.978  17.722  0.00  0.00    +0.000 NA
ATOM      4  C   UNL     1       3.804   1.696  18.125  0.00  0.00    +0.000 A 
ATOM      5  C   UNL     1       2.796   1.300  19.011  0.00  0.00    +0.000 A 
ATOM      6  C   UNL     1       1.993   2.279  19.578  0.00  0.00    +0.000 A 
ATOM      7  C   UNL     1       2.266   3.580  19.206  0.00  0.00    +0.000 A 
ATOM      8  C   UNL     1       1.721   4.820  19.715  0.00  0.00    +0.000 A 
ATOM      9  O   UNL     1       0.849   4.864  20.563  0.00  0.00    +0.000 OA
ATOM     10  N   UNL     1       2.387   5.832  19.032  0.00  0.00    +0.000 N 
ENDROOT
BRANCH  10  11
ATOM     11  C   UNL     1       2.054   7.193  19.131  0.00  0.00    +0.000 A 
ATOM     12  C   UNL     1       2.088   8.032  18.022  0.00  0.00    +0.000 A 
ATOM     13  C   UNL     1       1.681   9.361  18.146  0.00  0.00    +0.000 A 
ATOM     14  C   UNL     1       1.286   9.889  19.390  0.00  0.00    +0.000 A 
ATOM     15  C   UNL     1       0.840  11.323  19.456  0.00  0.00    +0.000 C 
ATOM     16  C   UNL     1       1.322   9.067  20.528  0.00  0.00    +0.000 A 
ATOM     17  C   UNL     1       1.037   9.560  21.919  0.00  0.00    +0.000 C 
ATOM     18  C   UNL     1       1.667   7.713  20.374  0.00  0.00    +0.000 A 
ENDBRANCH  10  11
BRANCH   1  19
ATOM     19  C   UNL     1       4.609   5.861  17.922  0.00  0.00    +0.000 C 
BRANCH  19  21
ATOM     20  N   UNL     1       5.638   4.798  15.947  0.00  0.00    +0.000 N 
ATOM     21  C   UNL     1       5.132   5.974  16.482  0.00  0.00    +0.000 C 
ATOM     22  O   UNL     1       5.117   7.067  15.914  0.00  0.00    +0.000 OA
ATOM     23  H   UNL     1       5.496   3.965  16.511  0.00  0.00    +0.000 HD
BRANCH  20  30
ATOM     24  C   UNL     1       5.408   2.439  11.617  0.00  0.00    +0.000 C 
ATOM     25  C   UNL     1       6.071   3.452  12.509  0.00  0.00    +0.000 A 
ATOM     26  C   UNL     1       7.137   4.220  12.033  0.00  0.00    +0.000 A 
ATOM     27  C   UNL     1       7.744   5.174  12.853  0.00  0.00    +0.000 A 
ATOM     28  C   UNL     1       8.893   6.004  12.352  0.00  0.00    +0.000 C 
ATOM     29  C   UNL     1       7.265   5.365  14.159  0.00  0.00    +0.000 A 
ATOM     30  C   UNL     1       6.190   4.618  14.655  0.00  0.00    +0.000 A 
ATOM     31  C   UNL     1       5.616   3.646  13.825  0.00  0.00    +0.000 A 
ENDBRANCH  20  30
ENDBRANCH  19  21
ENDBRANCH   1  19
TORSDOF 4
ENDMDL
MODEL 3
REMARK VINA RESULT:      -8.7      4.519      9.954
REMARK  Name = 
REMARK  8 active torsions:
REMARK  status: ('A' for Active; 'I' for Inactive)
REMARK    1  A    between atoms: C_1  and  C_2
REMARK    2  A    between atoms: C_4  and  C_5
REMARK    3  A    between atoms: C_7  and  N_8
REMARK    4  A    between atoms: C_9  and  C_11
REMARK    5  A    between atoms: C_11  and  N_12
REMARK    6  A    between atoms: N_21  and  C_22
REMARK    7  A    between atoms: C_25  and  C_26
REMARK    8  A    between atoms: C_27  and  C_28
REMARK                            x       y       z     vdW  Elec       q    Type
REMARK                         _______ _______ _______ _____ _____    ______ ____
ROOT
ATOM      1  N   UNL     1       1.267   8.908  20.554  0.00  0.00    +0.000 N 
ATOM      2  C   UNL     1       1.772   7.633  20.122  0.00  0.00    +0.000 A 
ATOM      3  N   UNL     1       1.809   6.498  20.840  0.00  0.00    +0.000 NA
ATOM      4  C   UNL     1       2.387   5.427  20.225  0.00  0.00    +0.000 A 
ATOM      5  C   UNL     1       2.961   5.449  18.949  0.00  0.00    +0.000 A 
ATOM      6  C   UNL     1       2.896   6.624  18.215  0.00  0.00    +0.000 A 
ATOM      7  C   UNL     1       2.262   7.687  18.824  0.00  0.00    +0.000 A 
ATOM      8  C   UNL     1       1.904   8.982  18.285  0.00  0.00    +0.000 A 
ATOM      9  O   UNL     1       2.191   9.334  17.156  0.00  0.00    +0.000 OA
ATOM     10  N   UNL     1       1.230   9.641  19.307  0.00  0.00    +0.000 N 
ENDROOT
BRANCH  10  11
ATOM     11  C   UNL     1       0.833  10.988  19.241  0.00  0.00    +0.000 A 
ATOM     12  C   UNL     1      -0.338  11.369  18.594  0.00  0.00    +0.000 A 
ATOM     13  C   UNL     1      -0.735  12.706  18.612  0.00  0.00    +0.000 A 
ATOM     14  C   UNL     1       0.058  13.694  19.227  0.00  0.00    +0.000 A 
ATOM     15  C   UNL     1      -0.432  15.115  19.229  0.00  0.00    +0.000 C 
ATOM     16  C   UNL     1       1.279  13.327  19.816  0.00  0.00    +0.000 A 
ATOM     17  C   UNL     1       2.255  14.314  20.391  0.00  0.00    +0.000 C 
ATOM     18  C   UNL     1       1.630  11.966  19.850  0.00  0.00    +0.000 A 
ENDBRANCH  10  11
BRANCH   1  19
ATOM     19  C   UNL     1      -0.026   8.765  21.263  0.00  0.00    +0.000 C 
BRANCH  19  21
ATOM     20  N   UNL     1      -1.181  10.862  21.862  0.00  0.00    +0.000 N 
ATOM     21  C   UNL     1      -0.263   9.903  22.268  0.00  0.00    +0.000 C 
ATOM     22  O   UNL     1       0.378   9.929  23.320  0.00  0.00    +0.000 OA
ATOM     23  H   UNL     1      -1.687  10.647  21.008  0.00  0.00    +0.000 HD
BRANCH  20  30
ATOM     24  C   UNL     1      -4.489  12.947  24.874  0.00  0.00    +0.000 C 
ATOM     25  C   UNL     1      -3.218  13.045  24.077  0.00  0.00    +0.000 A 
ATOM     26  C   UNL     1      -2.447  14.210  24.119  0.00  0.00    +0.000 A 
ATOM     27  C   UNL     1      -1.257  14.296  23.393  0.00  0.00    +0.000 A 
ATOM     28  C   UNL     1      -0.421  15.545  23.430  0.00  0.00    +0.000 C 
ATOM     29  C   UNL     1      -0.833  13.198  22.629  0.00  0.00    +0.000 A 
ATOM     30  C   UNL     1      -1.580  12.016  22.581  0.00  0.00    +0.000 A 
ATOM     31  C   UNL     1      -2.786  11.960  23.292  0.00  0.00    +0.000 A 
ENDBRANCH  20  30
ENDBRANCH  19  21
ENDBRANCH   1  19
TORSDOF 4
ENDMDL
MODEL 4
REMARK VINA RESULT:      -8.6      4.498      9.804
REMARK  Name = 
REMARK  8 active torsions:
REMARK  status: ('A' for Active; 'I' for Inactive)
REMARK    1  A    between atoms: C_1  and  C_2
REMARK    2  A    between atoms: C_4  and  C_5
REMARK    3  A    between atoms: C_7  and  N_8
REMARK    4  A    between atoms: C_9  and  C_11
REMARK    5  A    between atoms: C_11  and  N_12
REMARK    6  A    between atoms: N_21  and  C_22
REMARK    7  A    between atoms: C_25  and  C_26
REMARK    8  A    between atoms: C_27  and  C_28
REMARK                            x       y       z     vdW  Elec       q    Type
REMARK                         _______ _______ _______ _____ _____    ______ ____
ROOT
ATOM      1  N   UNL     1       1.273   8.868  20.551  0.00  0.00    +0.000 N 
ATOM      2  C   UNL     1       1.787   7.598  20.117  0.00  0.00    +0.000 A 
ATOM      3  N   UNL     1       1.829   6.462  20.833  0.00  0.00    +0.000 NA
ATOM      4  C   UNL     1       2.415   5.396  20.217  0.00  0.00    +0.000 A 
ATOM      5  C   UNL     1       2.992   5.424  18.943  0.00  0.00    +0.000 A 
ATOM      6  C   UNL     1       2.921   6.600  18.210  0.00  0.00    +0.000 A 
ATOM      7  C   UNL     1       2.279   7.658  18.821  0.00  0.00    +0.000 A 
ATOM      8  C   UNL     1       1.915   8.952  18.284  0.00  0.00    +0.000 A 
ATOM      9  O   UNL     1       2.202   9.308  17.156  0.00  0.00    +0.000 OA
ATOM     10  N   UNL     1       1.234   9.605  19.306  0.00  0.00    +0.000 N 
ENDROOT
BRANCH  10  11
ATOM     11  C   UNL     1       0.829  10.949  19.241  0.00  0.00    +0.000 A 
ATOM     12  C   UNL     1      -0.352  11.322  18.607  0.00  0.00    +0.000 A 
ATOM     13  C   UNL     1      -0.756  12.657  18.626  0.00  0.00    +0.000 A 
ATOM     14  C   UNL     1       0.038  13.651  19.231  0.00  0.00    +0.000 A 
ATOM     15  C   UNL     1      -0.459  15.068  19.236  0.00  0.00    +0.000 C 
ATOM     16  C   UNL     1       1.268  13.291  19.807  0.00  0.00    +0.000 A 
ATOM     17  C   UNL     1       2.245  14.284  20.369  0.00  0.00    +0.000 C 
ATOM     18  C   UNL     1       1.627  11.932  19.840  0.00  0.00    +0.000 A 
ENDBRANCH  10  11
BRANCH   1  19
ATOM     19  C   UNL     1      -0.021   8.716  21.257  0.00  0.00    +0.000 C 
BRANCH  19  21
ATOM     20  N   UNL     1      -1.198  10.791  21.885  0.00  0.00    +0.000 N 
ATOM     21  C   UNL     1      -0.262   9.843  22.273  0.00  0.00    +0.000 C 
ATOM     22  O   UNL     1       0.392   9.872  23.316  0.00  0.00    +0.000 OA
ATOM     23  H   UNL     1      -1.712  10.576  21.036  0.00  0.00    +0.000 HD
BRANCH  20  30
ATOM     24  C   UNL     1      -0.255  15.466  23.160  0.00  0.00    +0.000 C 
ATOM     25  C   UNL     1      -1.138  14.252  23.242  0.00  0.00    +0.000 A 
ATOM     26  C   UNL     1      -2.338  14.300  23.957  0.00  0.00    +0.000 A 
ATOM     27  C   UNL     1      -3.169  13.179  24.021  0.00  0.00    +0.000 A 
ATOM     28  C   UNL     1      -4.461  13.220  24.789  0.00  0.00    +0.000 C 
ATOM     29  C   UNL     1      -2.794  12.004  23.350  0.00  0.00    +0.000 A 
ATOM     30  C   UNL     1      -1.605  11.935  22.617  0.00  0.00    +0.000 A 
ATOM     31  C   UNL     1      -0.772  13.061  22.590  0.00  0.00    +0.000 A 
ENDBRANCH  20  30
ENDBRANCH  19  21
ENDBRANCH   1  19
TORSDOF 4
ENDMDL
MODEL 5
REMARK VINA RESULT:      -8.5      4.550      9.360
REMARK  Name = 
REMARK  8 active torsions:
REMARK  status: ('A' for Active; 'I' for Inactive)
REMARK    1  A    between atoms: C_1  and  C_2
REMARK    2  A    between atoms: C_4  and  C_5
REMARK    3  A    between atoms: C_7  and  N_8
REMARK    4  A    between atoms: C_9  and  C_11
REMARK    5  A    between atoms: C_11  and  N_12
REMARK    6  A    between atoms: N_21  and  C_22
REMARK    7  A    between atoms: C_25  and  C_26
REMARK    8  A    between atoms: C_27  and  C_28
REMARK                            x       y       z     vdW  Elec       q    Type
REMARK                         _______ _______ _______ _____ _____    ______ ____
ROOT
ATOM      1  N   UNL     1       1.327  11.122  20.526  0.00  0.00    +0.000 N 
ATOM      2  C   UNL     1       0.365  11.731  21.403  0.00  0.00    +0.000 A 
ATOM      3  N   UNL     1       0.227  13.043  21.658  0.00  0.00    +0.000 NA
ATOM      4  C   UNL     1      -0.730  13.371  22.572  0.00  0.00    +0.000 A 
ATOM      5  C   UNL     1      -1.522  12.452  23.268  0.00  0.00    +0.000 A 
ATOM      6  C   UNL     1      -1.380  11.102  22.978  0.00  0.00    +0.000 A 
ATOM      7  C   UNL     1      -0.446  10.784  22.013  0.00  0.00    +0.000 A 
ATOM      8  C   UNL     1      -0.162   9.510  21.387  0.00  0.00    +0.000 A 
ATOM      9  O   UNL     1      -0.721   8.475  21.702  0.00  0.00    +0.000 OA
ATOM     10  N   UNL     1       0.825   9.767  20.443  0.00  0.00    +0.000 N 
ENDROOT
BRANCH  10  11
ATOM     11  C   UNL     1       1.485   8.767  19.709  0.00  0.00    +0.000 A 
ATOM     12  C   UNL     1       1.839   8.957  18.377  0.00  0.00    +0.000 A 
ATOM     13  C   UNL     1       2.557   7.968  17.704  0.00  0.00    +0.000 A 
ATOM     14  C   UNL     1       2.885   6.750  18.331  0.00  0.00    +0.000 A 
ATOM     15  C   UNL     1       3.676   5.731  17.560  0.00  0.00    +0.000 C 
ATOM     16  C   UNL     1       2.465   6.522  19.652  0.00  0.00    +0.000 A 
ATOM     17  C   UNL     1       2.656   5.217  20.372  0.00  0.00    +0.000 C 
ATOM     18  C   UNL     1       1.804   7.555  20.338  0.00  0.00    +0.000 A 
ENDBRANCH  10  11
BRANCH   1  19
ATOM     19  C   UNL     1       1.431  11.857  19.244  0.00  0.00    +0.000 C 
BRANCH  19  21
ATOM     20  N   UNL     1      -0.734  11.136  18.304  0.00  0.00    +0.000 N 
ATOM     21  C   UNL     1       0.052  12.220  18.671  0.00  0.00    +0.000 C 
ATOM     22  O   UNL     1      -0.256  13.404  18.531  0.00  0.00    +0.000 OA
ATOM     23  H   UNL     1      -0.371  10.225  18.567  0.00  0.00    +0.000 HD
BRANCH  20  30
ATOM     24  C   UNL     1      -3.629  10.140  14.432  0.00  0.00    +0.000 C 
ATOM     25  C   UNL     1      -3.468  10.680  15.826  0.00  0.00    +0.000 A 
ATOM     26  C   UNL     1      -4.581  11.131  16.541  0.00  0.00    +0.000 A 
ATOM     27  C   UNL     1      -4.436  11.617  17.842  0.00  0.00    +0.000 A 
ATOM     28  C   UNL     1      -5.626  12.106  18.619  0.00  0.00    +0.000 C 
ATOM     29  C   UNL     1      -3.163  11.638  18.433  0.00  0.00    +0.000 A 
ATOM     30  C   UNL     1      -2.035  11.179  17.744  0.00  0.00    +0.000 A 
ATOM     31  C   UNL     1      -2.198  10.724  16.428  0.00  0.00    +0.000 A 
ENDBRANCH  20  30
ENDBRANCH  19  21
ENDBRANCH   1  19
TORSDOF 4
ENDMDL
MODEL 6
REMARK VINA RESULT:      -8.4      4.584      9.353
REMARK  Name = 
REMARK  8 active torsions:
REMARK  status: ('A' for Active; 'I' for Inactive)
REMARK    1  A    between atoms: C_1  and  C_2
REMARK    2  A    between atoms: C_4  and  C_5
REMARK    3  A    between atoms: C_7  and  N_8
REMARK    4  A    between atoms: C_9  and  C_11
REMARK    5  A    between atoms: C_11  and  N_12
REMARK    6  A    between atoms: N_21  and  C_22
REMARK    7  A    between atoms: C_25  and  C_26
REMARK    8  A    between atoms: C_27  and  C_28
REMARK                            x       y       z     vdW  Elec       q    Type
REMARK                         _______ _______ _______ _____ _____    ______ ____
ROOT
ATOM      1  N   UNL     1       1.312  11.219  20.486  0.00  0.00    +0.000 N 
ATOM      2  C   UNL     1       0.356  11.832  21.366  0.00  0.00    +0.000 A 
ATOM      3  N   UNL     1       0.211  13.146  21.605  0.00  0.00    +0.000 NA
ATOM      4  C   UNL     1      -0.738  13.480  22.526  0.00  0.00    +0.000 A 
ATOM      5  C   UNL     1      -1.515  12.564  23.243  0.00  0.00    +0.000 A 
ATOM      6  C   UNL     1      -1.366  11.212  22.969  0.00  0.00    +0.000 A 
ATOM      7  C   UNL     1      -0.441  10.888  21.998  0.00  0.00    +0.000 A 
ATOM      8  C   UNL     1      -0.154   9.608  21.386  0.00  0.00    +0.000 A 
ATOM      9  O   UNL     1      -0.702   8.574  21.721  0.00  0.00    +0.000 OA
ATOM     10  N   UNL     1       0.820   9.860  20.427  0.00  0.00    +0.000 N 
ENDROOT
BRANCH  10  11
ATOM     11  C   UNL     1       1.479   8.854  19.699  0.00  0.00    +0.000 A 
ATOM     12  C   UNL     1       1.824   9.032  18.363  0.00  0.00    +0.000 A 
ATOM     13  C   UNL     1       2.541   8.039  17.695  0.00  0.00    +0.000 A 
ATOM     14  C   UNL     1       2.878   6.829  18.332  0.00  0.00    +0.000 A 
ATOM     15  C   UNL     1       3.668   5.806  17.566  0.00  0.00    +0.000 C 
ATOM     16  C   UNL     1       2.466   6.613  19.657  0.00  0.00    +0.000 A 
ATOM     17  C   UNL     1       2.667   5.316  20.389  0.00  0.00    +0.000 C 
ATOM     18  C   UNL     1       1.806   7.651  20.338  0.00  0.00    +0.000 A 
ENDBRANCH  10  11
BRANCH   1  19
ATOM     19  C   UNL     1       1.395  11.937  19.193  0.00  0.00    +0.000 C 
BRANCH  19  21
ATOM     20  N   UNL     1      -0.709  11.112  18.204  0.00  0.00    +0.000 N 
ATOM     21  C   UNL     1       0.007  12.231  18.603  0.00  0.00    +0.000 C 
ATOM     22  O   UNL     1      -0.366  13.398  18.479  0.00  0.00    +0.000 OA
ATOM     23  H   UNL     1      -0.299  10.218  18.456  0.00  0.00    +0.000 HD
BRANCH  20  30
ATOM     24  C   UNL     1      -5.498  12.213  18.669  0.00  0.00    +0.000 C 
ATOM     25  C   UNL     1      -4.372  11.642  17.854  0.00  0.00    +0.000 A 
ATOM     26  C   UNL     1      -4.605  11.184  16.553  0.00  0.00    +0.000 A 
ATOM     27  C   UNL     1      -3.557  10.668  15.787  0.00  0.00    +0.000 A 
ATOM     28  C   UNL     1      -3.797  10.171  14.389  0.00  0.00    +0.000 C 
ATOM     29  C   UNL     1      -2.263  10.625  16.329  0.00  0.00    +0.000 A 
ATOM     30  C   UNL     1      -2.001  11.090  17.622  0.00  0.00    +0.000 A 
ATOM     31  C   UNL     1      -3.072  11.575  18.385  0.00  0.00    +0.000 A 
ENDBRANCH  20  30
ENDBRANCH  19  21
ENDBRANCH   1  19
TORSDOF 4
ENDMDL
MODEL 7
REMARK VINA RESULT:      -8.2      3.853      7.241
REMARK  Name = 
REMARK  8 active torsions:
REMARK  status: ('A' for Active; 'I' for Inactive)
REMARK    1  A    between atoms: C_1  and  C_2
REMARK    2  A    between atoms: C_4  and  C_5
REMARK    3  A    between atoms: C_7  and  N_8
REMARK    4  A    between atoms: C_9  and  C_11
REMARK    5  A    between atoms: C_11  and  N_12
REMARK    6  A    between atoms: N_21  and  C_22
REMARK    7  A    between atoms: C_25  and  C_26
REMARK    8  A    between atoms: C_27  and  C_28
REMARK                            x       y       z     vdW  Elec       q    Type
REMARK                         _______ _______ _______ _____ _____    ______ ____
ROOT
ATOM      1  N   UNL     1       0.439  11.141  18.498  0.00  0.00    +0.000 N 
ATOM      2  C   UNL     1      -0.958  10.862  18.307  0.00  0.00    +0.000 A 
ATOM      3  N   UNL     1      -1.500   9.693  17.929  0.00  0.00    +0.000 NA
ATOM      4  C   UNL     1      -2.853   9.692  17.766  0.00  0.00    +0.000 A 
ATOM      5  C   UNL     1      -3.680  10.810  17.923  0.00  0.00    +0.000 A 
ATOM      6  C   UNL     1      -3.106  12.005  18.333  0.00  0.00    +0.000 A 
ATOM      7  C   UNL     1      -1.743  11.982  18.548  0.00  0.00    +0.000 A 
ATOM      8  C   UNL     1      -0.878  12.998  19.107  0.00  0.00    +0.000 A 
ATOM      9  O   UNL     1      -1.275  14.103  19.431  0.00  0.00    +0.000 OA
ATOM     10  N   UNL     1       0.390  12.430  19.153  0.00  0.00    +0.000 N 
ENDROOT
BRANCH  10  11
ATOM     11  C   UNL     1       1.552  13.138  19.504  0.00  0.00    +0.000 A 
ATOM     12  C   UNL     1       1.971  13.236  20.827  0.00  0.00    +0.000 A 
ATOM     13  C   UNL     1       3.168  13.886  21.128  0.00  0.00    +0.000 A 
ATOM     14  C   UNL     1       3.939  14.498  20.120  0.00  0.00    +0.000 A 
ATOM     15  C   UNL     1       5.229  15.166  20.504  0.00  0.00    +0.000 C 
ATOM     16  C   UNL     1       3.482  14.467  18.792  0.00  0.00    +0.000 A 
ATOM     17  C   UNL     1       4.162  15.188  17.662  0.00  0.00    +0.000 C 
ATOM     18  C   UNL     1       2.311  13.749  18.497  0.00  0.00    +0.000 A 
ENDBRANCH  10  11
BRANCH   1  19
ATOM     19  C   UNL     1       1.109  10.055  19.250  0.00  0.00    +0.000 C 
BRANCH  19  21
ATOM     20  N   UNL     1       2.184   7.860  18.909  0.00  0.00    +0.000 N 
ATOM     21  C   UNL     1       1.828   9.064  18.320  0.00  0.00    +0.000 C 
ATOM     22  O   UNL     1       2.080   9.393  17.160  0.00  0.00    +0.000 OA
ATOM     23  H   UNL     1       1.825   7.709  19.847  0.00  0.00    +0.000 HD
BRANCH  20  30
ATOM     24  C   UNL     1       2.163   3.062  17.748  0.00  0.00    +0.000 C 
ATOM     25  C   UNL     1       2.845   4.401  17.715  0.00  0.00    +0.000 A 
ATOM     26  C   UNL     1       4.056   4.560  17.036  0.00  0.00    +0.000 A 
ATOM     27  C   UNL     1       4.683   5.807  16.989  0.00  0.00    +0.000 A 
ATOM     28  C   UNL     1       5.987   5.987  16.263  0.00  0.00    +0.000 C 
ATOM     29  C   UNL     1       4.079   6.906  17.619  0.00  0.00    +0.000 A 
ATOM     30  C   UNL     1       2.860   6.777  18.293  0.00  0.00    +0.000 A 
ATOM     31  C   UNL     1       2.263   5.511  18.354  0.00  0.00    +0.000 A 
ENDBRANCH  20  30
ENDBRANCH  19  21
ENDBRANCH   1  19
TORSDOF 4
ENDMDL
MODEL 8
REMARK VINA RESULT:      -8.2      4.344      9.534
REMARK  Name = 
REMARK  8 active torsions:
REMARK  status: ('A' for Active; 'I' for Inactive)
REMARK    1  A    between atoms: C_1  and  C_2
REMARK    2  A    between atoms: C_4  and  C_5
REMARK    3  A    between atoms: C_7  and  N_8
REMARK    4  A    between atoms: C_9  and  C_11
REMARK    5  A    between atoms: C_11  and  N_12
REMARK    6  A    between atoms: N_21  and  C_22
REMARK    7  A    between atoms: C_25  and  C_26
REMARK    8  A    between atoms: C_27  and  C_28
REMARK                            x       y       z     vdW  Elec       q    Type
REMARK                         _______ _______ _______ _____ _____    ______ ____
ROOT
ATOM      1  N   UNL     1       1.489   8.515  20.574  0.00  0.00    +0.000 N 
ATOM      2  C   UNL     1       2.002   7.235  20.168  0.00  0.00    +0.000 A 
ATOM      3  N   UNL     1       2.099   6.131  20.927  0.00  0.00    +0.000 NA
ATOM      4  C   UNL     1       2.671   5.048  20.326  0.00  0.00    +0.000 A 
ATOM      5  C   UNL     1       3.183   5.032  19.024  0.00  0.00    +0.000 A 
ATOM      6  C   UNL     1       3.056   6.175  18.248  0.00  0.00    +0.000 A 
ATOM      7  C   UNL     1       2.427   7.248  18.847  0.00  0.00    +0.000 A 
ATOM      8  C   UNL     1       2.014   8.513  18.277  0.00  0.00    +0.000 A 
ATOM      9  O   UNL     1       2.238   8.825  17.121  0.00  0.00    +0.000 OA
ATOM     10  N   UNL     1       1.375   9.198  19.304  0.00  0.00    +0.000 N 
ENDROOT
BRANCH  10  11
ATOM     11  C   UNL     1       0.944  10.532  19.205  0.00  0.00    +0.000 A 
ATOM     12  C   UNL     1       1.790  11.592  19.515  0.00  0.00    +0.000 A 
ATOM     13  C   UNL     1       1.349  12.904  19.336  0.00  0.00    +0.000 A 
ATOM     14  C   UNL     1       0.039  13.180  18.898  0.00  0.00    +0.000 A 
ATOM     15  C   UNL     1      -0.371  14.612  18.705  0.00  0.00    +0.000 C 
ATOM     16  C   UNL     1      -0.843  12.113  18.656  0.00  0.00    +0.000 A 
ATOM     17  C   UNL     1      -2.292  12.297  18.303  0.00  0.00    +0.000 C 
ATOM     18  C   UNL     1      -0.362  10.798  18.774  0.00  0.00    +0.000 A 
ENDBRANCH  10  11
BRANCH   1  19
ATOM     19  C   UNL     1       0.235   8.373  21.351  0.00  0.00    +0.000 C 
BRANCH  19  21
ATOM     20  N   UNL     1      -0.972  10.462  21.867  0.00  0.00    +0.000 N 
ATOM     21  C   UNL     1      -0.002   9.565  22.291  0.00  0.00    +0.000 C 
ATOM     22  O   UNL     1       0.683   9.684  23.308  0.00  0.00    +0.000 OA
ATOM     23  H   UNL     1      -1.507  10.174  21.053  0.00  0.00    +0.000 HD
BRANCH  20  30
ATOM     24  C   UNL     1      -0.125  15.246  22.742  0.00  0.00    +0.000 C 
ATOM     25  C   UNL     1      -0.964  14.017  22.956  0.00  0.00    +0.000 A 
ATOM     26  C   UNL     1      -2.134  14.086  23.717  0.00  0.00    +0.000 A 
ATOM     27  C   UNL     1      -2.925  12.950  23.902  0.00  0.00    +0.000 A 
ATOM     28  C   UNL     1      -4.184  13.013  24.722  0.00  0.00    +0.000 C 
ATOM     29  C   UNL     1      -2.543  11.738  23.306  0.00  0.00    +0.000 A 
ATOM     30  C   UNL     1      -1.384  11.646  22.528  0.00  0.00    +0.000 A 
ATOM     31  C   UNL     1      -0.588  12.790  22.379  0.00  0.00    +0.000 A 
ENDBRANCH  20  30
ENDBRANCH  19  21
ENDBRANCH   1  19
TORSDOF 4
ENDMDL
MODEL 9
REMARK VINA RESULT:      -8.2      3.844      7.058
REMARK  Name = 
REMARK  8 active torsions:
REMARK  status: ('A' for Active; 'I' for Inactive)
REMARK    1  A    between atoms: C_1  and  C_2
REMARK    2  A    between atoms: C_4  and  C_5
REMARK    3  A    between atoms: C_7  and  N_8
REMARK    4  A    between atoms: C_9  and  C_11
REMARK    5  A    between atoms: C_11  and  N_12
REMARK    6  A    between atoms: N_21  and  C_22
REMARK    7  A    between atoms: C_25  and  C_26
REMARK    8  A    between atoms: C_27  and  C_28
REMARK                            x       y       z     vdW  Elec       q    Type
REMARK                         _______ _______ _______ _____ _____    ______ ____
ROOT
ATOM      1  N   UNL     1       0.412  11.112  18.488  0.00  0.00    +0.000 N 
ATOM      2  C   UNL     1      -0.985  10.833  18.299  0.00  0.00    +0.000 A 
ATOM      3  N   UNL     1      -1.526   9.664  17.915  0.00  0.00    +0.000 NA
ATOM      4  C   UNL     1      -2.880   9.664  17.754  0.00  0.00    +0.000 A 
ATOM      5  C   UNL     1      -3.708  10.780  17.918  0.00  0.00    +0.000 A 
ATOM      6  C   UNL     1      -3.134  11.973  18.334  0.00  0.00    +0.000 A 
ATOM      7  C   UNL     1      -1.771  11.950  18.546  0.00  0.00    +0.000 A 
ATOM      8  C   UNL     1      -0.907  12.965  19.110  0.00  0.00    +0.000 A 
ATOM      9  O   UNL     1      -1.304  14.067  19.440  0.00  0.00    +0.000 OA
ATOM     10  N   UNL     1       0.362  12.398  19.151  0.00  0.00    +0.000 N 
ENDROOT
BRANCH  10  11
ATOM     11  C   UNL     1       1.524  13.105  19.504  0.00  0.00    +0.000 A 
ATOM     12  C   UNL     1       1.914  13.245  20.832  0.00  0.00    +0.000 A 
ATOM     13  C   UNL     1       3.111  13.893  21.137  0.00  0.00    +0.000 A 
ATOM     14  C   UNL     1       3.912  14.460  20.127  0.00  0.00    +0.000 A 
ATOM     15  C   UNL     1       5.200  15.128  20.517  0.00  0.00    +0.000 C 
ATOM     16  C   UNL     1       3.485  14.388  18.790  0.00  0.00    +0.000 A 
ATOM     17  C   UNL     1       4.199  15.060  17.652  0.00  0.00    +0.000 C 
ATOM     18  C   UNL     1       2.313  13.672  18.494  0.00  0.00    +0.000 A 
ENDBRANCH  10  11
BRANCH   1  19
ATOM     19  C   UNL     1       1.085  10.023  19.233  0.00  0.00    +0.000 C 
BRANCH  19  21
ATOM     20  N   UNL     1       2.134   7.818  18.875  0.00  0.00    +0.000 N 
ATOM     21  C   UNL     1       1.795   9.033  18.297  0.00  0.00    +0.000 C 
ATOM     22  O   UNL     1       2.056   9.370  17.141  0.00  0.00    +0.000 OA
ATOM     23  H   UNL     1       1.769   7.663  19.810  0.00  0.00    +0.000 HD
BRANCH  20  30
ATOM     24  C   UNL     1       6.186   6.198  16.568  0.00  0.00    +0.000 C 
ATOM     25  C   UNL     1       4.810   5.933  17.113  0.00  0.00    +0.000 A 
ATOM     26  C   UNL     1       4.265   4.647  17.058  0.00  0.00    +0.000 A 
ATOM     27  C   UNL     1       2.995   4.394  17.578  0.00  0.00    +0.000 A 
ATOM     28  C   UNL     1       2.399   3.015  17.522  0.00  0.00    +0.000 C 
ATOM     29  C   UNL     1       2.271   5.441  18.171  0.00  0.00    +0.000 A 
ATOM     30  C   UNL     1       2.799   6.734  18.251  0.00  0.00    +0.000 A 
ATOM     31  C   UNL     1       4.063   6.973  17.696  0.00  0.00    +0.000 A 
ENDBRANCH  20  30
ENDBRANCH  19  21
ENDBRANCH   1  19
TORSDOF 4
ENDMDL
