MODEL 1
REMARK VINA RESULT:      -9.0      0.000      0.000
REMARK  Name = 
REMARK  6 active torsions:
REMARK  status: ('A' for Active; 'I' for Inactive)
REMARK    1  A    between atoms: C_4  and  O_5
REMARK    2  A    between atoms: O_5  and  C_6
REMARK    3  A    between atoms: C_9  and  N_10
REMARK    4  A    between atoms: C_11  and  C_13
REMARK    5  A    between atoms: C_13  and  C_14
REMARK    6  A    between atoms: N_16  and  C_17
REMARK                            x       y       z     vdW  Elec       q    Type
REMARK                         _______ _______ _______ _____ _____    ______ ____
ROOT
ATOM      1  N   UNL     1       2.612   5.915  20.093  0.00  0.00    +0.000 N 
ATOM      2  C   UNL     1       1.907   4.739  19.940  0.00  0.00    +0.000 C 
ATOM      3  O   UNL     1       0.730   4.609  19.626  0.00  0.00    +0.000 OA
ATOM      4  H   UNL     1       3.613   5.846  20.245  0.00  0.00    +0.000 HD
ENDROOT
BRANCH   1   8
ATOM      5  C   UNL     1       0.810   9.708  19.617  0.00  0.00    +0.000 A 
ATOM      6  C   UNL     1       0.699   9.039  20.832  0.00  0.00    +0.000 A 
ATOM      7  C   UNL     1       1.316   7.800  21.007  0.00  0.00    +0.000 A 
ATOM      8  C   UNL     1       2.050   7.205  19.975  0.00  0.00    +0.000 A 
ATOM      9  C   UNL     1       2.236   7.920  18.792  0.00  0.00    +0.000 A 
ATOM     10  C   UNL     1       1.622   9.163  18.621  0.00  0.00    +0.000 A 
ATOM     11  F   UNL     1       1.817   9.807  17.461  0.00  0.00    +0.000 F 
BRANCH   5  12
ATOM     12  O   UNL     1       0.147  10.907  19.552  0.00  0.00    +0.000 OA
BRANCH  12  16
ATOM     13  N   UNL     1      -3.148   9.883  16.178  0.00  0.00    +0.000 N 
ATOM     14  C   UNL     1      -2.713  10.515  17.344  0.00  0.00    +0.000 A 
ATOM     15  C   UNL     1      -1.461  10.254  17.852  0.00  0.00    +0.000 A 
ATOM     16  C   UNL     1      -1.083  10.997  18.948  0.00  0.00    +0.000 A 
ATOM     17  N   UNL     1      -1.920  11.839  19.578  0.00  0.00    +0.000 NA
ATOM     18  C   UNL     1      -3.135  11.963  19.037  0.00  0.00    +0.000 A 
ATOM     19  N   UNL     1      -3.574  11.353  17.929  0.00  0.00    +0.000 NA
ATOM     20  H   UNL     1      -2.495  10.022  15.414  0.00  0.00    +0.000 HD
ATOM     21  H   UNL     1      -4.064  10.267  15.955  0.00  0.00    +0.000 HD
ENDBRANCH  12  16
ENDBRANCH   5  12
ENDBRANCH   1   8
BRANCH   2  22
ATOM     22  C   UNL     1       2.683   3.494  20.215  0.00  0.00    +0.000 C 
ATOM     23  C   UNL     1       2.699   3.015  21.671  0.00  0.00    +0.000 C 
ATOM     24  C   UNL     1       1.959   2.221  20.643  0.00  0.00    +0.000 C 
BRANCH  22  25
ATOM     25  C   UNL     1       3.946   3.372  19.432  0.00  0.00    +0.000 C 
ATOM     26  O   UNL     1       4.850   2.683  19.881  0.00  0.00    +0.000 OA
ATOM     27  N   UNL     1       3.935   4.096  18.256  0.00  0.00    +0.000 N 
ATOM     28  H   UNL     1       3.104   4.649  18.073  0.00  0.00    +0.000 HD
BRANCH  27  29
ATOM     29  C   UNL     1       5.024   4.270  17.382  0.00  0.00    +0.000 A 
ATOM     30  C   UNL     1       6.145   5.042  17.703  0.00  0.00    +0.000 A 
ATOM     31  C   UNL     1       7.129   5.293  16.745  0.00  0.00    +0.000 A 
ATOM     32  C   UNL     1       6.993   4.762  15.471  0.00  0.00    +0.000 A 
ATOM     33  F   UNL     1       7.906   5.050  14.534  0.00  0.00    +0.000 F 
ATOM     34  C   UNL     1       5.919   3.939  15.153  0.00  0.00    +0.000 A 
ATOM     35  C   UNL     1       4.942   3.676  16.117  0.00  0.00    +0.000 A 
ENDBRANCH  27  29
ENDBRANCH  22  25
ENDBRANCH   2  22
TORSDOF 6
ENDMDL
MODEL 2
REMARK VINA RESULT:      -8.9      3.397     10.436
REMARK  Name = 
REMARK  6 active torsions:
REMARK  status: ('A' for Active; 'I' for Inactive)
REMARK    1  A    between atoms: C_4  and  O_5
REMARK    2  A    between atoms: O_5  and  C_6
REMARK    3  A    between atoms: C_9  and  N_10
REMARK    4  A    between atoms: C_11  and  C_13
REMARK    5  A    between atoms: C_13  and  C_14
REMARK    6  A    between atoms: N_16  and  C_17
REMARK                            x       y       z     vdW  Elec       q    Type
REMARK                         _______ _______ _______ _____ _____    ______ ____
ROOT
ATOM      1  N   UNL     1       1.083   9.851  19.533  0.00  0.00    +0.000 N 
ATOM      2  C   UNL     1       0.042  10.357  18.783  0.00  0.00    +0.000 C 
ATOM      3  O   UNL     1      -0.479   9.855  17.794  0.00  0.00    +0.000 OA
ATOM      4  H   UNL     1       1.321  10.336  20.392  0.00  0.00    +0.000 HD
ENDROOT
BRANCH   1   8
ATOM      5  C   UNL     1       3.024   6.215  18.603  0.00  0.00    +0.000 A 
ATOM      6  C   UNL     1       3.110   7.288  17.722  0.00  0.00    +0.000 A 
ATOM      7  C   UNL     1       2.497   8.501  18.034  0.00  0.00    +0.000 A 
ATOM      8  C   UNL     1       1.786   8.665  19.228  0.00  0.00    +0.000 A 
ATOM      9  C   UNL     1       1.780   7.618  20.150  0.00  0.00    +0.000 A 
ATOM     10  C   UNL     1       2.400   6.406  19.836  0.00  0.00    +0.000 A 
ATOM     11  F   UNL     1       2.356   5.423  20.747  0.00  0.00    +0.000 F 
BRANCH   5  12
ATOM     12  O   UNL     1       3.647   5.067  18.183  0.00  0.00    +0.000 OA
BRANCH  12  16
ATOM     13  N   UNL     1       8.179   5.551  19.770  0.00  0.00    +0.000 N 
ATOM     14  C   UNL     1       7.225   5.216  18.809  0.00  0.00    +0.000 A 
ATOM     15  C   UNL     1       5.884   5.263  19.113  0.00  0.00    +0.000 A 
ATOM     16  C   UNL     1       5.016   5.011  18.074  0.00  0.00    +0.000 A 
ATOM     17  N   UNL     1       5.433   4.614  16.859  0.00  0.00    +0.000 NA
ATOM     18  C   UNL     1       6.756   4.538  16.696  0.00  0.00    +0.000 A 
ATOM     19  N   UNL     1       7.685   4.840  17.612  0.00  0.00    +0.000 NA
ATOM     20  H   UNL     1       8.007   6.472  20.161  0.00  0.00    +0.000 HD
ATOM     21  H   UNL     1       9.089   5.508  19.315  0.00  0.00    +0.000 HD
ENDBRANCH  12  16
ENDBRANCH   5  12
ENDBRANCH   1   8
BRANCH   2  22
ATOM     22  C   UNL     1      -0.481  11.680  19.234  0.00  0.00    +0.000 C 
ATOM     23  C   UNL     1       0.412  12.892  18.951  0.00  0.00    +0.000 C 
ATOM     24  C   UNL     1      -0.875  12.736  18.207  0.00  0.00    +0.000 C 
BRANCH  22  25
ATOM     25  C   UNL     1      -1.205  11.642  20.537  0.00  0.00    +0.000 C 
ATOM     26  O   UNL     1      -0.882  10.801  21.363  0.00  0.00    +0.000 OA
ATOM     27  N   UNL     1      -2.199  12.596  20.641  0.00  0.00    +0.000 N 
ATOM     28  H   UNL     1      -2.351  13.182  19.826  0.00  0.00    +0.000 HD
BRANCH  27  29
ATOM     29  C   UNL     1      -3.122  12.716  21.697  0.00  0.00    +0.000 A 
ATOM     30  C   UNL     1      -2.769  12.560  23.040  0.00  0.00    +0.000 A 
ATOM     31  C   UNL     1      -3.752  12.550  24.032  0.00  0.00    +0.000 A 
ATOM     32  C   UNL     1      -5.083  12.708  23.678  0.00  0.00    +0.000 A 
ATOM     33  F   UNL     1      -6.031  12.640  24.622  0.00  0.00    +0.000 F 
ATOM     34  C   UNL     1      -5.446  12.928  22.355  0.00  0.00    +0.000 A 
ATOM     35  C   UNL     1      -4.461  12.953  21.363  0.00  0.00    +0.000 A 
ENDBRANCH  27  29
ENDBRANCH  22  25
ENDBRANCH   2  22
TORSDOF 6
ENDMDL
MODEL 3
REMARK VINA RESULT:      -8.9      2.850      9.833
REMARK  Name = 
REMARK  6 active torsions:
REMARK  status: ('A' for Active; 'I' for Inactive)
REMARK    1  A    between atoms: C_4  and  O_5
REMARK    2  A    between atoms: O_5  and  C_6
REMARK    3  A    between atoms: C_9  and  N_10
REMARK    4  A    between atoms: C_11  and  C_13
REMARK    5  A    between atoms: C_13  and  C_14
REMARK    6  A    between atoms: N_16  and  C_17
REMARK                            x       y       z     vdW  Elec       q    Type
REMARK                         _______ _______ _______ _____ _____    ______ ____
ROOT
ATOM      1  N   UNL     1       1.389   8.950  19.339  0.00  0.00    +0.000 N 
ATOM      2  C   UNL     1       1.487  10.075  18.548  0.00  0.00    +0.000 C 
ATOM      3  O   UNL     1       2.179  10.227  17.548  0.00  0.00    +0.000 OA
ATOM      4  H   UNL     1       0.681   8.949  20.067  0.00  0.00    +0.000 HD
ENDROOT
BRANCH   1   8
ATOM      5  C   UNL     1       3.510   5.339  18.775  0.00  0.00    +0.000 A 
ATOM      6  C   UNL     1       3.611   6.354  17.829  0.00  0.00    +0.000 A 
ATOM      7  C   UNL     1       2.938   7.561  18.022  0.00  0.00    +0.000 A 
ATOM      8  C   UNL     1       2.151   7.775  19.158  0.00  0.00    +0.000 A 
ATOM      9  C   UNL     1       2.125   6.791  20.147  0.00  0.00    +0.000 A 
ATOM     10  C   UNL     1       2.805   5.587  19.954  0.00  0.00    +0.000 A 
ATOM     11  F   UNL     1       2.740   4.664  20.925  0.00  0.00    +0.000 F 
BRANCH   5  12
ATOM     12  O   UNL     1       4.197   4.191  18.471  0.00  0.00    +0.000 OA
BRANCH  12  16
ATOM     13  N   UNL     1       6.520   3.765  14.262  0.00  0.00    +0.000 N 
ATOM     14  C   UNL     1       6.456   4.050  15.627  0.00  0.00    +0.000 A 
ATOM     15  C   UNL     1       5.248   4.032  16.286  0.00  0.00    +0.000 A 
ATOM     16  C   UNL     1       5.296   4.229  17.648  0.00  0.00    +0.000 A 
ATOM     17  N   UNL     1       6.430   4.549  18.296  0.00  0.00    +0.000 NA
ATOM     18  C   UNL     1       7.532   4.605  17.544  0.00  0.00    +0.000 A 
ATOM     19  N   UNL     1       7.609   4.350  16.231  0.00  0.00    +0.000 NA
ATOM     20  H   UNL     1       6.090   2.870  14.049  0.00  0.00    +0.000 HD
ATOM     21  H   UNL     1       7.504   3.773  14.002  0.00  0.00    +0.000 HD
ENDBRANCH  12  16
ENDBRANCH   5  12
ENDBRANCH   1   8
BRANCH   2  22
ATOM     22  C   UNL     1       0.662  11.237  18.991  0.00  0.00    +0.000 C 
ATOM     23  C   UNL     1       1.285  12.140  20.061  0.00  0.00    +0.000 C 
ATOM     24  C   UNL     1       1.110  12.659  18.670  0.00  0.00    +0.000 C 
BRANCH  22  25
ATOM     25  C   UNL     1      -0.798  10.951  19.091  0.00  0.00    +0.000 C 
ATOM     26  O   UNL     1      -1.166  10.010  19.779  0.00  0.00    +0.000 OA
ATOM     27  N   UNL     1      -1.579  11.817  18.350  0.00  0.00    +0.000 N 
ATOM     28  H   UNL     1      -1.087  12.515  17.802  0.00  0.00    +0.000 HD
BRANCH  27  29
ATOM     29  C   UNL     1      -2.969  11.714  18.155  0.00  0.00    +0.000 A 
ATOM     30  C   UNL     1      -3.541  11.265  16.961  0.00  0.00    +0.000 A 
ATOM     31  C   UNL     1      -4.924  11.318  16.776  0.00  0.00    +0.000 A 
ATOM     32  C   UNL     1      -5.731  11.810  17.791  0.00  0.00    +0.000 A 
ATOM     33  F   UNL     1      -7.051  11.915  17.592  0.00  0.00    +0.000 F 
ATOM     34  C   UNL     1      -5.186  12.200  19.008  0.00  0.00    +0.000 A 
ATOM     35  C   UNL     1      -3.803  12.133  19.198  0.00  0.00    +0.000 A 
ENDBRANCH  27  29
ENDBRANCH  22  25
ENDBRANCH   2  22
TORSDOF 6
ENDMDL
MODEL 4
REMARK VINA RESULT:      -8.7      2.661      3.464
REMARK  Name = 
REMARK  6 active torsions:
REMARK  status: ('A' for Active; 'I' for Inactive)
REMARK    1  A    between atoms: C_4  and  O_5
REMARK    2  A    between atoms: O_5  and  C_6
REMARK    3  A    between atoms: C_9  and  N_10
REMARK    4  A    between atoms: C_11  and  C_13
REMARK    5  A    between atoms: C_13  and  C_14
REMARK    6  A    between atoms: N_16  and  C_17
REMARK                            x       y       z     vdW  Elec       q    Type
REMARK                         _______ _______ _______ _____ _____    ______ ____
ROOT
ATOM      1  N   UNL     1       1.186   7.415  21.154  0.00  0.00    +0.000 N 
ATOM      2  C   UNL     1       2.006   7.073  20.098  0.00  0.00    +0.000 C 
ATOM      3  O   UNL     1       2.441   7.811  19.222  0.00  0.00    +0.000 OA
ATOM      4  H   UNL     1       1.010   6.706  21.859  0.00  0.00    +0.000 HD
ENDROOT
BRANCH   1   8
ATOM      5  C   UNL     1      -0.607  11.200  21.710  0.00  0.00    +0.000 A 
ATOM      6  C   UNL     1      -0.178  10.471  22.814  0.00  0.00    +0.000 A 
ATOM      7  C   UNL     1       0.441   9.234  22.638  0.00  0.00    +0.000 A 
ATOM      8  C   UNL     1       0.642   8.701  21.361  0.00  0.00    +0.000 A 
ATOM      9  C   UNL     1       0.294   9.475  20.253  0.00  0.00    +0.000 A 
ATOM     10  C   UNL     1      -0.320  10.717  20.433  0.00  0.00    +0.000 A 
ATOM     11  F   UNL     1      -0.650  11.420  19.339  0.00  0.00    +0.000 F 
BRANCH   5  12
ATOM     12  O   UNL     1      -1.220  12.392  22.003  0.00  0.00    +0.000 OA
BRANCH  12  16
ATOM     13  N   UNL     1      -5.005  12.156  24.989  0.00  0.00    +0.000 N 
ATOM     14  C   UNL     1      -4.414  12.345  23.739  0.00  0.00    +0.000 A 
ATOM     15  C   UNL     1      -3.044  12.340  23.608  0.00  0.00    +0.000 A 
ATOM     16  C   UNL     1      -2.555  12.434  22.324  0.00  0.00    +0.000 A 
ATOM     17  N   UNL     1      -3.347  12.649  21.260  0.00  0.00    +0.000 NA
ATOM     18  C   UNL     1      -4.658  12.704  21.513  0.00  0.00    +0.000 A 
ATOM     19  N   UNL     1      -5.241  12.541  22.708  0.00  0.00    +0.000 NA
ATOM     20  H   UNL     1      -4.678  11.302  25.430  0.00  0.00    +0.000 HD
ATOM     21  H   UNL     1      -6.012  12.134  24.842  0.00  0.00    +0.000 HD
ENDBRANCH  12  16
ENDBRANCH   5  12
ENDBRANCH   1   8
BRANCH   2  22
ATOM     22  C   UNL     1       2.376   5.629  20.023  0.00  0.00    +0.000 C 
ATOM     23  C   UNL     1       2.139   4.804  21.292  0.00  0.00    +0.000 C 
ATOM     24  C   UNL     1       1.292   4.558  20.085  0.00  0.00    +0.000 C 
BRANCH  22  25
ATOM     25  C   UNL     1       3.613   5.352  19.238  0.00  0.00    +0.000 C 
ATOM     26  O   UNL     1       4.680   5.279  19.830  0.00  0.00    +0.000 OA
ATOM     27  N   UNL     1       3.385   5.223  17.882  0.00  0.00    +0.000 N 
ATOM     28  H   UNL     1       2.430   5.362  17.568  0.00  0.00    +0.000 HD
BRANCH  27  29
ATOM     29  C   UNL     1       4.371   5.086  16.887  0.00  0.00    +0.000 A 
ATOM     30  C   UNL     1       4.905   3.851  16.507  0.00  0.00    +0.000 A 
ATOM     31  C   UNL     1       5.979   3.789  15.617  0.00  0.00    +0.000 A 
ATOM     32  C   UNL     1       6.509   4.962  15.102  0.00  0.00    +0.000 A 
ATOM     33  F   UNL     1       7.576   4.907  14.295  0.00  0.00    +0.000 F 
ATOM     34  C   UNL     1       5.950   6.195  15.419  0.00  0.00    +0.000 A 
ATOM     35  C   UNL     1       4.866   6.256  16.298  0.00  0.00    +0.000 A 
ENDBRANCH  27  29
ENDBRANCH  22  25
ENDBRANCH   2  22
TORSDOF 6
ENDMDL
MODEL 5
REMARK VINA RESULT:      -8.7      0.753      1.261
REMARK  Name = 
REMARK  6 active torsions:
REMARK  status: ('A' for Active; 'I' for Inactive)
REMARK    1  A    between atoms: C_4  and  O_5
REMARK    2  A    between atoms: O_5  and  C_6
REMARK    3  A    between atoms: C_9  and  N_10
REMARK    4  A    between atoms: C_11  and  C_13
REMARK    5  A    between atoms: C_13  and  C_14
REMARK    6  A    between atoms: N_16  and  C_17
REMARK                            x       y       z     vdW  Elec       q    Type
REMARK                         _______ _______ _______ _____ _____    ______ ____
ROOT
ATOM      1  N   UNL     1       2.467   5.919  20.139  0.00  0.00    +0.000 N 
ATOM      2  C   UNL     1       1.671   4.793  20.122  0.00  0.00    +0.000 C 
ATOM      3  O   UNL     1       0.465   4.734  19.914  0.00  0.00    +0.000 OA
ATOM      4  H   UNL     1       3.470   5.783  20.213  0.00  0.00    +0.000 HD
ENDROOT
BRANCH   1   8
ATOM      5  C   UNL     1       0.910   9.804  19.557  0.00  0.00    +0.000 A 
ATOM      6  C   UNL     1       0.782   9.187  20.798  0.00  0.00    +0.000 A 
ATOM      7  C   UNL     1       1.318   7.917  21.007  0.00  0.00    +0.000 A 
ATOM      8  C   UNL     1       1.989   7.239  19.985  0.00  0.00    +0.000 A 
ATOM      9  C   UNL     1       2.197   7.897  18.772  0.00  0.00    +0.000 A 
ATOM     10  C   UNL     1       1.664   9.171  18.568  0.00  0.00    +0.000 A 
ATOM     11  F   UNL     1       1.876   9.759  17.381  0.00  0.00    +0.000 F 
BRANCH   5  12
ATOM     12  O   UNL     1       0.328  11.042  19.460  0.00  0.00    +0.000 OA
BRANCH  12  16
ATOM     13  N   UNL     1      -4.093  12.964  19.704  0.00  0.00    +0.000 N 
ATOM     14  C   UNL     1      -3.143  12.084  19.182  0.00  0.00    +0.000 A 
ATOM     15  C   UNL     1      -1.835  12.141  19.604  0.00  0.00    +0.000 A 
ATOM     16  C   UNL     1      -0.994  11.170  19.108  0.00  0.00    +0.000 A 
ATOM     17  N   UNL     1      -1.376  10.290  18.167  0.00  0.00    +0.000 NA
ATOM     18  C   UNL     1      -2.653  10.370  17.781  0.00  0.00    +0.000 A 
ATOM     19  N   UNL     1      -3.572  11.218  18.260  0.00  0.00    +0.000 NA
ATOM     20  H   UNL     1      -4.117  12.926  20.718  0.00  0.00    +0.000 HD
ATOM     21  H   UNL     1      -4.991  12.704  19.304  0.00  0.00    +0.000 HD
ENDBRANCH  12  16
ENDBRANCH   5  12
ENDBRANCH   1   8
BRANCH   2  22
ATOM     22  C   UNL     1       2.378   3.511  20.412  0.00  0.00    +0.000 C 
ATOM     23  C   UNL     1       2.594   3.178  21.892  0.00  0.00    +0.000 C 
ATOM     24  C   UNL     1       1.634   2.363  21.087  0.00  0.00    +0.000 C 
BRANCH  22  25
ATOM     25  C   UNL     1       3.482   3.189  19.462  0.00  0.00    +0.000 C 
ATOM     26  O   UNL     1       3.983   2.075  19.502  0.00  0.00    +0.000 OA
ATOM     27  N   UNL     1       3.818   4.242  18.635  0.00  0.00    +0.000 N 
ATOM     28  H   UNL     1       3.316   5.112  18.781  0.00  0.00    +0.000 HD
BRANCH  27  29
ATOM     29  C   UNL     1       4.897   4.271  17.731  0.00  0.00    +0.000 A 
ATOM     30  C   UNL     1       6.197   4.625  18.105  0.00  0.00    +0.000 A 
ATOM     31  C   UNL     1       7.194   4.772  17.140  0.00  0.00    +0.000 A 
ATOM     32  C   UNL     1       6.891   4.555  15.804  0.00  0.00    +0.000 A 
ATOM     33  F   UNL     1       7.832   4.754  14.872  0.00  0.00    +0.000 F 
ATOM     34  C   UNL     1       5.621   4.141  15.421  0.00  0.00    +0.000 A 
ATOM     35  C   UNL     1       4.626   3.979  16.389  0.00  0.00    +0.000 A 
ENDBRANCH  27  29
ENDBRANCH  22  25
ENDBRANCH   2  22
TORSDOF 6
ENDMDL
MODEL 6
REMARK VINA RESULT:      -8.7      2.916     10.040
REMARK  Name = 
REMARK  6 active torsions:
REMARK  status: ('A' for Active; 'I' for Inactive)
REMARK    1  A    between atoms: C_4  and  O_5
REMARK    2  A    between atoms: O_5  and  C_6
REMARK    3  A    between atoms: C_9  and  N_10
REMARK    4  A    between atoms: C_11  and  C_13
REMARK    5  A    between atoms: C_13  and  C_14
REMARK    6  A    between atoms: N_16  and  C_17
REMARK                            x       y       z     vdW  Elec       q    Type
REMARK                         _______ _______ _______ _____ _____    ______ ____
ROOT
ATOM      1  N   UNL     1       1.018   9.842  19.455  0.00  0.00    +0.000 N 
ATOM      2  C   UNL     1       1.309  11.094  18.954  0.00  0.00    +0.000 C 
ATOM      3  O   UNL     1       2.175  11.390  18.139  0.00  0.00    +0.000 OA
ATOM      4  H   UNL     1       0.192   9.751  20.038  0.00  0.00    +0.000 HD
ENDROOT
BRANCH   1   8
ATOM      5  C   UNL     1       3.028   6.242  18.533  0.00  0.00    +0.000 A 
ATOM      6  C   UNL     1       3.047   7.295  17.624  0.00  0.00    +0.000 A 
ATOM      7  C   UNL     1       2.411   8.498  17.933  0.00  0.00    +0.000 A 
ATOM      8  C   UNL     1       1.743   8.670  19.150  0.00  0.00    +0.000 A 
ATOM      9  C   UNL     1       1.805   7.646  20.095  0.00  0.00    +0.000 A 
ATOM     10  C   UNL     1       2.448   6.446  19.785  0.00  0.00    +0.000 A 
ATOM     11  F   UNL     1       2.469   5.484  20.720  0.00  0.00    +0.000 F 
BRANCH   5  12
ATOM     12  O   UNL     1       3.668   5.103  18.115  0.00  0.00    +0.000 OA
BRANCH  12  16
ATOM     13  N   UNL     1       8.155   5.591  19.823  0.00  0.00    +0.000 N 
ATOM     14  C   UNL     1       7.227   5.262  18.834  0.00  0.00    +0.000 A 
ATOM     15  C   UNL     1       5.878   5.299  19.104  0.00  0.00    +0.000 A 
ATOM     16  C   UNL     1       5.039   5.055  18.040  0.00  0.00    +0.000 A 
ATOM     17  N   UNL     1       5.489   4.675  16.832  0.00  0.00    +0.000 NA
ATOM     18  C   UNL     1       6.816   4.608  16.702  0.00  0.00    +0.000 A 
ATOM     19  N   UNL     1       7.720   4.904  17.645  0.00  0.00    +0.000 NA
ATOM     20  H   UNL     1       7.967   6.506  20.220  0.00  0.00    +0.000 HD
ATOM     21  H   UNL     1       9.076   5.558  19.391  0.00  0.00    +0.000 HD
ENDBRANCH  12  16
ENDBRANCH   5  12
ENDBRANCH   1   8
BRANCH   2  22
ATOM     22  C   UNL     1       0.474  12.206  19.498  0.00  0.00    +0.000 C 
ATOM     23  C   UNL     1       1.172  13.162  20.470  0.00  0.00    +0.000 C 
ATOM     24  C   UNL     1       0.778  13.649  19.113  0.00  0.00    +0.000 C 
BRANCH  22  25
ATOM     25  C   UNL     1      -0.938  11.825  19.794  0.00  0.00    +0.000 C 
ATOM     26  O   UNL     1      -1.167  11.146  20.784  0.00  0.00    +0.000 OA
ATOM     27  N   UNL     1      -1.841  12.298  18.862  0.00  0.00    +0.000 N 
ATOM     28  H   UNL     1      -1.454  12.810  18.076  0.00  0.00    +0.000 HD
BRANCH  27  29
ATOM     29  C   UNL     1      -3.214  11.993  18.813  0.00  0.00    +0.000 A 
ATOM     30  C   UNL     1      -3.792  11.235  17.791  0.00  0.00    +0.000 A 
ATOM     31  C   UNL     1      -5.178  11.085  17.720  0.00  0.00    +0.000 A 
ATOM     32  C   UNL     1      -5.981  11.685  18.679  0.00  0.00    +0.000 A 
ATOM     33  F   UNL     1      -7.313  11.590  18.578  0.00  0.00    +0.000 F 
ATOM     34  C   UNL     1      -5.420  12.387  19.739  0.00  0.00    +0.000 A 
ATOM     35  C   UNL     1      -4.032  12.525  19.817  0.00  0.00    +0.000 A 
ENDBRANCH  27  29
ENDBRANCH  22  25
ENDBRANCH   2  22
TORSDOF 6
ENDMDL
MODEL 7
REMARK VINA RESULT:      -8.6      1.990      2.761
REMARK  Name = 
REMARK  6 active torsions:
REMARK  status: ('A' for Active; 'I' for Inactive)
REMARK    1  A    between atoms: C_4  and  O_5
REMARK    2  A    between atoms: O_5  and  C_6
REMARK    3  A    between atoms: C_9  and  N_10
REMARK    4  A    between atoms: C_11  and  C_13
REMARK    5  A    between atoms: C_13  and  C_14
REMARK    6  A    between atoms: N_16  and  C_17
REMARK                            x       y       z     vdW  Elec       q    Type
REMARK                         _______ _______ _______ _____ _____    ______ ____
ROOT
ATOM      1  N   UNL     1       3.321   6.692  18.415  0.00  0.00    +0.000 N 
ATOM      2  C   UNL     1       2.969   5.394  18.107  0.00  0.00    +0.000 C 
ATOM      3  O   UNL     1       1.840   4.935  17.986  0.00  0.00    +0.000 OA
ATOM      4  H   UNL     1       4.305   6.936  18.364  0.00  0.00    +0.000 HD
ENDROOT
BRANCH   1   8
ATOM      5  C   UNL     1       0.697   9.844  19.435  0.00  0.00    +0.000 A 
ATOM      6  C   UNL     1       1.168   9.732  18.131  0.00  0.00    +0.000 A 
ATOM      7  C   UNL     1       2.010   8.678  17.778  0.00  0.00    +0.000 A 
ATOM      8  C   UNL     1       2.401   7.720  18.719  0.00  0.00    +0.000 A 
ATOM      9  C   UNL     1       1.855   7.782  20.001  0.00  0.00    +0.000 A 
ATOM     10  C   UNL     1       1.006   8.835  20.349  0.00  0.00    +0.000 A 
ATOM     11  F   UNL     1       0.516   8.862  21.598  0.00  0.00    +0.000 F 
BRANCH   5  12
ATOM     12  O   UNL     1      -0.107  10.929  19.672  0.00  0.00    +0.000 OA
BRANCH  12  16
ATOM     13  N   UNL     1      -4.516  12.810  19.103  0.00  0.00    +0.000 N 
ATOM     14  C   UNL     1      -3.512  11.881  18.825  0.00  0.00    +0.000 A 
ATOM     15  C   UNL     1      -2.267  12.009  19.397  0.00  0.00    +0.000 A 
ATOM     16  C   UNL     1      -1.373  10.992  19.142  0.00  0.00    +0.000 A 
ATOM     17  N   UNL     1      -1.638   9.992  18.285  0.00  0.00    +0.000 NA
ATOM     18  C   UNL     1      -2.855  10.004  17.735  0.00  0.00    +0.000 A 
ATOM     19  N   UNL     1      -3.824  10.896  17.978  0.00  0.00    +0.000 NA
ATOM     20  H   UNL     1      -4.668  12.905  20.102  0.00  0.00    +0.000 HD
ATOM     21  H   UNL     1      -5.358  12.489  18.630  0.00  0.00    +0.000 HD
ENDBRANCH  12  16
ENDBRANCH   5  12
ENDBRANCH   1   8
BRANCH   2  22
ATOM     22  C   UNL     1       4.113   4.452  17.926  0.00  0.00    +0.000 C 
ATOM     23  C   UNL     1       4.679   3.822  19.203  0.00  0.00    +0.000 C 
ATOM     24  C   UNL     1       3.936   2.968  18.227  0.00  0.00    +0.000 C 
BRANCH  22  25
ATOM     25  C   UNL     1       5.081   4.859  16.867  0.00  0.00    +0.000 C 
ATOM     26  O   UNL     1       5.655   5.932  16.977  0.00  0.00    +0.000 OA
ATOM     27  N   UNL     1       5.198   3.935  15.846  0.00  0.00    +0.000 N 
ATOM     28  H   UNL     1       4.601   3.116  15.907  0.00  0.00    +0.000 HD
BRANCH  27  29
ATOM     29  C   UNL     1       5.935   4.103  14.660  0.00  0.00    +0.000 A 
ATOM     30  C   UNL     1       7.088   4.891  14.582  0.00  0.00    +0.000 A 
ATOM     31  C   UNL     1       7.696   5.134  13.349  0.00  0.00    +0.000 A 
ATOM     32  C   UNL     1       7.155   4.579  12.198  0.00  0.00    +0.000 A 
ATOM     33  F   UNL     1       7.703   4.860  11.009  0.00  0.00    +0.000 F 
ATOM     34  C   UNL     1       6.048   3.742  12.264  0.00  0.00    +0.000 A 
ATOM     35  C   UNL     1       5.448   3.487  13.501  0.00  0.00    +0.000 A 
ENDBRANCH  27  29
ENDBRANCH  22  25
ENDBRANCH   2  22
TORSDOF 6
ENDMDL
MODEL 8
REMARK VINA RESULT:      -8.6      2.015      2.636
REMARK  Name = 
REMARK  6 active torsions:
REMARK  status: ('A' for Active; 'I' for Inactive)
REMARK    1  A    between atoms: C_4  and  O_5
REMARK    2  A    between atoms: O_5  and  C_6
REMARK    3  A    between atoms: C_9  and  N_10
REMARK    4  A    between atoms: C_11  and  C_13
REMARK    5  A    between atoms: C_13  and  C_14
REMARK    6  A    between atoms: N_16  and  C_17
REMARK                            x       y       z     vdW  Elec       q    Type
REMARK                         _______ _______ _______ _____ _____    ______ ____
ROOT
ATOM      1  N   UNL     1       3.240   6.890  18.414  0.00  0.00    +0.000 N 
ATOM      2  C   UNL     1       2.857   5.625  18.022  0.00  0.00    +0.000 C 
ATOM      3  O   UNL     1       1.717   5.197  17.888  0.00  0.00    +0.000 OA
ATOM      4  H   UNL     1       4.227   7.119  18.363  0.00  0.00    +0.000 HD
ENDROOT
BRANCH   1   8
ATOM      5  C   UNL     1       0.695  10.007  19.705  0.00  0.00    +0.000 A 
ATOM      6  C   UNL     1       1.178  10.006  18.401  0.00  0.00    +0.000 A 
ATOM      7  C   UNL     1       1.995   8.966  17.957  0.00  0.00    +0.000 A 
ATOM      8  C   UNL     1       2.346   7.911  18.806  0.00  0.00    +0.000 A 
ATOM      9  C   UNL     1       1.786   7.867  20.083  0.00  0.00    +0.000 A 
ATOM     10  C   UNL     1       0.964   8.907  20.522  0.00  0.00    +0.000 A 
ATOM     11  F   UNL     1       0.459   8.830  21.762  0.00  0.00    +0.000 F 
BRANCH   5  12
ATOM     12  O   UNL     1      -0.081  11.088  20.037  0.00  0.00    +0.000 OA
BRANCH  12  16
ATOM     13  N   UNL     1      -3.579  10.261  16.816  0.00  0.00    +0.000 N 
ATOM     14  C   UNL     1      -3.057  10.863  17.961  0.00  0.00    +0.000 A 
ATOM     15  C   UNL     1      -1.799  10.531  18.411  0.00  0.00    +0.000 A 
ATOM     16  C   UNL     1      -1.331  11.248  19.490  0.00  0.00    +0.000 A 
ATOM     17  N   UNL     1      -2.091  12.133  20.158  0.00  0.00    +0.000 NA
ATOM     18  C   UNL     1      -3.320  12.327  19.673  0.00  0.00    +0.000 A 
ATOM     19  N   UNL     1      -3.842  11.746  18.585  0.00  0.00    +0.000 NA
ATOM     20  H   UNL     1      -2.954  10.366  16.022  0.00  0.00    +0.000 HD
ATOM     21  H   UNL     1      -4.481  10.696  16.635  0.00  0.00    +0.000 HD
ENDBRANCH  12  16
ENDBRANCH   5  12
ENDBRANCH   1   8
BRANCH   2  22
ATOM     22  C   UNL     1       3.979   4.677  17.754  0.00  0.00    +0.000 C 
ATOM     23  C   UNL     1       4.633   4.039  18.984  0.00  0.00    +0.000 C 
ATOM     24  C   UNL     1       3.815   3.192  18.064  0.00  0.00    +0.000 C 
BRANCH  22  25
ATOM     25  C   UNL     1       4.869   5.080  16.628  0.00  0.00    +0.000 C 
ATOM     26  O   UNL     1       5.199   6.253  16.532  0.00  0.00    +0.000 OA
ATOM     27  N   UNL     1       5.208   4.033  15.794  0.00  0.00    +0.000 N 
ATOM     28  H   UNL     1       4.797   3.130  16.010  0.00  0.00    +0.000 HD
BRANCH  27  29
ATOM     29  C   UNL     1       5.926   4.136  14.588  0.00  0.00    +0.000 A 
ATOM     30  C   UNL     1       7.099   4.886  14.460  0.00  0.00    +0.000 A 
ATOM     31  C   UNL     1       7.690   5.065  13.208  0.00  0.00    +0.000 A 
ATOM     32  C   UNL     1       7.111   4.485  12.089  0.00  0.00    +0.000 A 
ATOM     33  F   UNL     1       7.644   4.705  10.880  0.00  0.00    +0.000 F 
ATOM     34  C   UNL     1       5.983   3.683  12.206  0.00  0.00    +0.000 A 
ATOM     35  C   UNL     1       5.400   3.491  13.462  0.00  0.00    +0.000 A 
ENDBRANCH  27  29
ENDBRANCH  22  25
ENDBRANCH   2  22
TORSDOF 6
ENDMDL
MODEL 9
REMARK VINA RESULT:      -8.6      1.034      1.376
REMARK  Name = 
REMARK  6 active torsions:
REMARK  status: ('A' for Active; 'I' for Inactive)
REMARK    1  A    between atoms: C_4  and  O_5
REMARK    2  A    between atoms: O_5  and  C_6
REMARK    3  A    between atoms: C_9  and  N_10
REMARK    4  A    between atoms: C_11  and  C_13
REMARK    5  A    between atoms: C_13  and  C_14
REMARK    6  A    between atoms: N_16  and  C_17
REMARK                            x       y       z     vdW  Elec       q    Type
REMARK                         _______ _______ _______ _____ _____    ______ ____
ROOT
ATOM      1  N   UNL     1       2.582   6.089  20.067  0.00  0.00    +0.000 N 
ATOM      2  C   UNL     1       1.928   4.897  19.836  0.00  0.00    +0.000 C 
ATOM      3  O   UNL     1       0.783   4.739  19.428  0.00  0.00    +0.000 OA
ATOM      4  H   UNL     1       3.569   6.046  20.295  0.00  0.00    +0.000 HD
ENDROOT
BRANCH   1   8
ATOM      5  C   UNL     1       0.943   9.974  19.777  0.00  0.00    +0.000 A 
ATOM      6  C   UNL     1       1.542   9.393  18.665  0.00  0.00    +0.000 A 
ATOM      7  C   UNL     1       2.059   8.100  18.743  0.00  0.00    +0.000 A 
ATOM      8  C   UNL     1       1.991   7.365  19.931  0.00  0.00    +0.000 A 
ATOM      9  C   UNL     1       1.308   7.914  21.016  0.00  0.00    +0.000 A 
ATOM     10  C   UNL     1       0.786   9.207  20.933  0.00  0.00    +0.000 A 
ATOM     11  F   UNL     1       0.150   9.699  22.006  0.00  0.00    +0.000 F 
BRANCH   5  12
ATOM     12  O   UNL     1       0.488  11.254  19.590  0.00  0.00    +0.000 OA
BRANCH  12  16
ATOM     13  N   UNL     1      -3.656  11.164  17.117  0.00  0.00    +0.000 N 
ATOM     14  C   UNL     1      -2.880  11.463  18.238  0.00  0.00    +0.000 A 
ATOM     15  C   UNL     1      -1.560  11.076  18.295  0.00  0.00    +0.000 A 
ATOM     16  C   UNL     1      -0.849  11.502  19.395  0.00  0.00    +0.000 A 
ATOM     17  N   UNL     1      -1.423  12.148  20.424  0.00  0.00    +0.000 NA
ATOM     18  C   UNL     1      -2.725  12.412  20.291  0.00  0.00    +0.000 A 
ATOM     19  N   UNL     1      -3.488  12.118  19.231  0.00  0.00    +0.000 NA
ATOM     20  H   UNL     1      -3.221  11.499  16.263  0.00  0.00    +0.000 HD
ATOM     21  H   UNL     1      -4.566  11.594  17.262  0.00  0.00    +0.000 HD
ENDBRANCH  12  16
ENDBRANCH   5  12
ENDBRANCH   1   8
BRANCH   2  22
ATOM     22  C   UNL     1       2.718   3.669  20.147  0.00  0.00    +0.000 C 
ATOM     23  C   UNL     1       2.751   3.240  21.617  0.00  0.00    +0.000 C 
ATOM     24  C   UNL     1       2.011   2.405  20.623  0.00  0.00    +0.000 C 
BRANCH  22  25
ATOM     25  C   UNL     1       3.976   3.533  19.357  0.00  0.00    +0.000 C 
ATOM     26  O   UNL     1       4.887   2.859  19.816  0.00  0.00    +0.000 OA
ATOM     27  N   UNL     1       3.954   4.229  18.165  0.00  0.00    +0.000 N 
ATOM     28  H   UNL     1       3.120   4.774  17.974  0.00  0.00    +0.000 HD
BRANCH  27  29
ATOM     29  C   UNL     1       5.037   4.386  17.279  0.00  0.00    +0.000 A 
ATOM     30  C   UNL     1       6.155   5.173  17.572  0.00  0.00    +0.000 A 
ATOM     31  C   UNL     1       7.130   5.404  16.600  0.00  0.00    +0.000 A 
ATOM     32  C   UNL     1       6.990   4.839  15.342  0.00  0.00    +0.000 A 
ATOM     33  F   UNL     1       7.895   5.107  14.392  0.00  0.00    +0.000 F 
ATOM     34  C   UNL     1       5.919   4.001  15.053  0.00  0.00    +0.000 A 
ATOM     35  C   UNL     1       4.950   3.758  16.031  0.00  0.00    +0.000 A 
ENDBRANCH  27  29
ENDBRANCH  22  25
ENDBRANCH   2  22
TORSDOF 6
ENDMDL
