MODEL 1
REMARK VINA RESULT:      -6.9      0.000      0.000
REMARK  Name = 
REMARK  4 active torsions:
REMARK  status: ('A' for Active; 'I' for Inactive)
REMARK    1  A    between atoms: C_1  and  O_2
REMARK    2  A    between atoms: O_2  and  C_3
REMARK    3  A    between atoms: C_6  and  C_7
REMARK    4  A    between atoms: C_13  and  C_15
REMARK                            x       y       z     vdW  Elec       q    Type
REMARK                         _______ _______ _______ _____ _____    ______ ____
ROOT
ATOM      1  C   UNL     1       3.623   4.565  18.808  0.00  0.00    +0.000 C 
ATOM      2  O   UNL     1       3.671   3.488  19.402  0.00  0.00    +0.000 OA
ATOM      3  N   UNL     1       2.657   5.526  19.092  0.00  0.00    +0.000 N 
ATOM      4  C   UNL     1       1.832   5.385  20.299  0.00  0.00    +0.000 C 
ATOM      5  C   UNL     1       1.799   6.702  21.102  0.00  0.00    +0.000 C 
ATOM      6  N   UNL     1       1.495   7.858  20.244  0.00  0.00    +0.000 N 
ATOM      7  C   UNL     1       0.789   8.937  20.787  0.00  0.00    +0.000 C 
ATOM      8  O   UNL     1       0.518   8.971  21.988  0.00  0.00    +0.000 OA
ATOM      9  C   UNL     1       2.331   7.950  19.037  0.00  0.00    +0.000 C 
ATOM     10  C   UNL     1       2.255   6.649  18.235  0.00  0.00    +0.000 C 
ENDROOT
BRANCH   1  14
ATOM     11  C   UNL     1       6.711   5.240  15.887  0.00  0.00    +0.000 A 
ATOM     12  C   UNL     1       5.660   4.355  15.629  0.00  0.00    +0.000 A 
ATOM     13  C   UNL     1       4.643   4.163  16.571  0.00  0.00    +0.000 A 
ATOM     14  C   UNL     1       4.682   4.840  17.795  0.00  0.00    +0.000 A 
ATOM     15  C   UNL     1       5.781   5.659  18.078  0.00  0.00    +0.000 A 
ATOM     16  C   UNL     1       6.771   5.887  17.118  0.00  0.00    +0.000 A 
BRANCH  11  18
ATOM     17  C   UNL     1       7.252   4.874  13.612  0.00  0.00    +0.000 C 
ATOM     18  O   UNL     1       7.647   5.348  14.896  0.00  0.00    +0.000 OA
ENDBRANCH  11  18
ENDBRANCH   1  14
BRANCH   7  19
ATOM     19  C   UNL     1       0.396  10.014  19.894  0.00  0.00    +0.000 A 
ATOM     20  C   UNL     1      -0.686  10.129  19.038  0.00  0.00    +0.000 A 
ATOM     21  C   UNL     1      -0.580  11.396  18.409  0.00  0.00    +0.000 A 
ATOM     22  C   UNL     1       0.578  11.962  18.882  0.00  0.00    +0.000 A 
ATOM     23  O   UNL     1       1.191  11.124  19.754  0.00  0.00    +0.000 OA
ENDBRANCH   7  19
TORSDOF 3
ENDMDL
MODEL 2
REMARK VINA RESULT:      -6.7      0.355      1.062
REMARK  Name = 
REMARK  4 active torsions:
REMARK  status: ('A' for Active; 'I' for Inactive)
REMARK    1  A    between atoms: C_1  and  O_2
REMARK    2  A    between atoms: O_2  and  C_3
REMARK    3  A    between atoms: C_6  and  C_7
REMARK    4  A    between atoms: C_13  and  C_15
REMARK                            x       y       z     vdW  Elec       q    Type
REMARK                         _______ _______ _______ _____ _____    ______ ____
ROOT
ATOM      1  C   UNL     1       3.627   4.214  18.643  0.00  0.00    +0.000 C 
ATOM      2  O   UNL     1       3.650   3.127  19.218  0.00  0.00    +0.000 OA
ATOM      3  N   UNL     1       2.710   5.208  18.972  0.00  0.00    +0.000 N 
ATOM      4  C   UNL     1       1.917   5.080  20.201  0.00  0.00    +0.000 C 
ATOM      5  C   UNL     1       1.962   6.383  21.026  0.00  0.00    +0.000 C 
ATOM      6  N   UNL     1       1.679   7.566  20.195  0.00  0.00    +0.000 N 
ATOM      7  C   UNL     1       1.035   8.663  20.777  0.00  0.00    +0.000 C 
ATOM      8  O   UNL     1       0.802   8.687  21.987  0.00  0.00    +0.000 OA
ATOM      9  C   UNL     1       2.481   7.644  18.965  0.00  0.00    +0.000 C 
ATOM     10  C   UNL     1       2.328   6.361  18.146  0.00  0.00    +0.000 C 
ENDROOT
BRANCH   1  14
ATOM     11  C   UNL     1       6.600   5.054  15.646  0.00  0.00    +0.000 A 
ATOM     12  C   UNL     1       6.709   5.586  16.934  0.00  0.00    +0.000 A 
ATOM     13  C   UNL     1       5.755   5.284  17.912  0.00  0.00    +0.000 A 
ATOM     14  C   UNL     1       4.665   4.463  17.602  0.00  0.00    +0.000 A 
ATOM     15  C   UNL     1       4.520   4.004  16.288  0.00  0.00    +0.000 A 
ATOM     16  C   UNL     1       5.497   4.267  15.324  0.00  0.00    +0.000 A 
BRANCH  11  18
ATOM     17  C   UNL     1       7.457   4.918  13.444  0.00  0.00    +0.000 C 
ATOM     18  O   UNL     1       7.588   5.416  14.773  0.00  0.00    +0.000 OA
ENDBRANCH  11  18
ENDBRANCH   1  14
BRANCH   7  19
ATOM     19  C   UNL     1       0.658   9.769  19.914  0.00  0.00    +0.000 A 
ATOM     20  C   UNL     1      -0.367   9.888  18.991  0.00  0.00    +0.000 A 
ATOM     21  C   UNL     1      -0.272  11.189  18.435  0.00  0.00    +0.000 A 
ATOM     22  C   UNL     1       0.827  11.773  19.015  0.00  0.00    +0.000 A 
ATOM     23  O   UNL     1       1.415  10.914  19.885  0.00  0.00    +0.000 OA
ENDBRANCH   7  19
TORSDOF 3
ENDMDL
MODEL 3
REMARK VINA RESULT:      -6.3      2.247      7.613
REMARK  Name = 
REMARK  4 active torsions:
REMARK  status: ('A' for Active; 'I' for Inactive)
REMARK    1  A    between atoms: C_1  and  O_2
REMARK    2  A    between atoms: O_2  and  C_3
REMARK    3  A    between atoms: C_6  and  C_7
REMARK    4  A    between atoms: C_13  and  C_15
REMARK                            x       y       z     vdW  Elec       q    Type
REMARK                         _______ _______ _______ _____ _____    ______ ____
ROOT
ATOM      1  C   UNL     1      -0.215   9.983  19.954  0.00  0.00    +0.000 C 
ATOM      2  O   UNL     1      -0.635  10.282  21.071  0.00  0.00    +0.000 OA
ATOM      3  N   UNL     1       0.939   9.226  19.774  0.00  0.00    +0.000 N 
ATOM      4  C   UNL     1       1.539   8.538  20.925  0.00  0.00    +0.000 C 
ATOM      5  C   UNL     1       1.840   7.062  20.590  0.00  0.00    +0.000 C 
ATOM      6  N   UNL     1       2.559   6.928  19.312  0.00  0.00    +0.000 N 
ATOM      7  C   UNL     1       3.467   5.875  19.154  0.00  0.00    +0.000 C 
ATOM      8  O   UNL     1       3.587   5.012  20.025  0.00  0.00    +0.000 OA
ATOM      9  C   UNL     1       1.936   7.648  18.192  0.00  0.00    +0.000 C 
ATOM     10  C   UNL     1       1.741   9.124  18.548  0.00  0.00    +0.000 C 
ENDROOT
BRANCH   1  14
ATOM     11  C   UNL     1      -2.478  11.154  16.486  0.00  0.00    +0.000 A 
ATOM     12  C   UNL     1      -2.433   9.819  16.896  0.00  0.00    +0.000 A 
ATOM     13  C   UNL     1      -1.720   9.449  18.042  0.00  0.00    +0.000 A 
ATOM     14  C   UNL     1      -1.022  10.414  18.777  0.00  0.00    +0.000 A 
ATOM     15  C   UNL     1      -1.004  11.734  18.311  0.00  0.00    +0.000 A 
ATOM     16  C   UNL     1      -1.755  12.110  17.194  0.00  0.00    +0.000 A 
BRANCH  11  18
ATOM     17  C   UNL     1      -3.496  10.264  14.544  0.00  0.00    +0.000 C 
ATOM     18  O   UNL     1      -3.204  11.399  15.353  0.00  0.00    +0.000 OA
ENDBRANCH  11  18
ENDBRANCH   1  14
BRANCH   7  19
ATOM     19  C   UNL     1       4.252   5.830  17.932  0.00  0.00    +0.000 A 
ATOM     20  C   UNL     1       5.141   6.745  17.394  0.00  0.00    +0.000 A 
ATOM     21  C   UNL     1       5.625   6.185  16.184  0.00  0.00    +0.000 A 
ATOM     22  C   UNL     1       4.976   4.985  16.031  0.00  0.00    +0.000 A 
ATOM     23  O   UNL     1       4.121   4.775  17.063  0.00  0.00    +0.000 OA
ENDBRANCH   7  19
TORSDOF 3
ENDMDL
MODEL 4
REMARK VINA RESULT:      -6.2      2.072      8.138
REMARK  Name = 
REMARK  4 active torsions:
REMARK  status: ('A' for Active; 'I' for Inactive)
REMARK    1  A    between atoms: C_1  and  O_2
REMARK    2  A    between atoms: O_2  and  C_3
REMARK    3  A    between atoms: C_6  and  C_7
REMARK    4  A    between atoms: C_13  and  C_15
REMARK                            x       y       z     vdW  Elec       q    Type
REMARK                         _______ _______ _______ _____ _____    ______ ____
ROOT
ATOM      1  C   UNL     1       1.913   9.180  18.403  0.00  0.00    +0.000 C 
ATOM      2  O   UNL     1       2.047  10.146  17.653  0.00  0.00    +0.000 OA
ATOM      3  N   UNL     1       2.421   7.922  18.089  0.00  0.00    +0.000 N 
ATOM      4  C   UNL     1       3.364   7.782  16.972  0.00  0.00    +0.000 C 
ATOM      5  C   UNL     1       4.602   6.964  17.393  0.00  0.00    +0.000 C 
ATOM      6  N   UNL     1       4.225   5.717  18.079  0.00  0.00    +0.000 N 
ATOM      7  C   UNL     1       5.048   4.594  17.942  0.00  0.00    +0.000 C 
ATOM      8  O   UNL     1       6.124   4.672  17.347  0.00  0.00    +0.000 OA
ATOM      9  C   UNL     1       3.265   5.900  19.178  0.00  0.00    +0.000 C 
ATOM     10  C   UNL     1       2.020   6.640  18.682  0.00  0.00    +0.000 C 
ENDROOT
BRANCH   1  14
ATOM     11  C   UNL     1      -0.008   9.955  22.175  0.00  0.00    +0.000 A 
ATOM     12  C   UNL     1      -0.233  10.783  21.072  0.00  0.00    +0.000 A 
ATOM     13  C   UNL     1       0.371  10.508  19.840  0.00  0.00    +0.000 A 
ATOM     14  C   UNL     1       1.229   9.410  19.707  0.00  0.00    +0.000 A 
ATOM     15  C   UNL     1       1.514   8.637  20.839  0.00  0.00    +0.000 A 
ATOM     16  C   UNL     1       0.874   8.884  22.056  0.00  0.00    +0.000 A 
BRANCH  11  18
ATOM     17  C   UNL     1      -1.644  11.330  23.192  0.00  0.00    +0.000 C 
ATOM     18  O   UNL     1      -0.649  10.320  23.327  0.00  0.00    +0.000 OA
ENDBRANCH  11  18
ENDBRANCH   1  14
BRANCH   7  19
ATOM     19  C   UNL     1       4.598   3.343  18.528  0.00  0.00    +0.000 A 
ATOM     20  C   UNL     1       3.704   2.395  18.059  0.00  0.00    +0.000 A 
ATOM     21  C   UNL     1       3.642   1.369  19.037  0.00  0.00    +0.000 A 
ATOM     22  C   UNL     1       4.464   1.768  20.062  0.00  0.00    +0.000 A 
ATOM     23  O   UNL     1       5.021   2.972  19.780  0.00  0.00    +0.000 OA
ENDBRANCH   7  19
TORSDOF 3
ENDMDL
MODEL 5
REMARK VINA RESULT:      -6.1      1.574      7.452
REMARK  Name = 
REMARK  4 active torsions:
REMARK  status: ('A' for Active; 'I' for Inactive)
REMARK    1  A    between atoms: C_1  and  O_2
REMARK    2  A    between atoms: O_2  and  C_3
REMARK    3  A    between atoms: C_6  and  C_7
REMARK    4  A    between atoms: C_13  and  C_15
REMARK                            x       y       z     vdW  Elec       q    Type
REMARK                         _______ _______ _______ _____ _____    ______ ____
ROOT
ATOM      1  C   UNL     1       1.230   7.648  20.617  0.00  0.00    +0.000 C 
ATOM      2  O   UNL     1       0.416   7.367  21.496  0.00  0.00    +0.000 OA
ATOM      3  N   UNL     1       2.108   6.706  20.090  0.00  0.00    +0.000 N 
ATOM      4  C   UNL     1       1.901   5.281  20.385  0.00  0.00    +0.000 C 
ATOM      5  C   UNL     1       1.958   4.436  19.096  0.00  0.00    +0.000 C 
ATOM      6  N   UNL     1       3.140   4.761  18.281  0.00  0.00    +0.000 N 
ATOM      7  C   UNL     1       3.727   3.753  17.509  0.00  0.00    +0.000 C 
ATOM      8  O   UNL     1       3.206   2.640  17.427  0.00  0.00    +0.000 OA
ATOM      9  C   UNL     1       3.320   6.198  18.026  0.00  0.00    +0.000 C 
ATOM     10  C   UNL     1       3.344   6.975  19.344  0.00  0.00    +0.000 C 
ENDROOT
BRANCH   1  14
ATOM     11  C   UNL     1       1.058  11.675  19.108  0.00  0.00    +0.000 A 
ATOM     12  C   UNL     1       0.849  11.407  20.463  0.00  0.00    +0.000 A 
ATOM     13  C   UNL     1       0.936  10.099  20.953  0.00  0.00    +0.000 A 
ATOM     14  C   UNL     1       1.210   9.039  20.081  0.00  0.00    +0.000 A 
ATOM     15  C   UNL     1       1.334   9.307  18.713  0.00  0.00    +0.000 A 
ATOM     16  C   UNL     1       1.294  10.619  18.232  0.00  0.00    +0.000 A 
BRANCH  11  18
ATOM     17  C   UNL     1      -0.353  13.417  18.349  0.00  0.00    +0.000 C 
ATOM     18  O   UNL     1       0.947  12.988  18.742  0.00  0.00    +0.000 OA
ENDBRANCH  11  18
ENDBRANCH   1  14
BRANCH   7  19
ATOM     19  C   UNL     1       4.961   4.063  16.807  0.00  0.00    +0.000 A 
ATOM     20  C   UNL     1       5.237   4.132  15.452  0.00  0.00    +0.000 A 
ATOM     21  C   UNL     1       6.606   4.481  15.328  0.00  0.00    +0.000 A 
ATOM     22  C   UNL     1       7.097   4.563  16.609  0.00  0.00    +0.000 A 
ATOM     23  O   UNL     1       6.121   4.282  17.507  0.00  0.00    +0.000 OA
ENDBRANCH   7  19
TORSDOF 3
ENDMDL
MODEL 6
REMARK VINA RESULT:      -6.0      1.087      1.459
REMARK  Name = 
REMARK  4 active torsions:
REMARK  status: ('A' for Active; 'I' for Inactive)
REMARK    1  A    between atoms: C_1  and  O_2
REMARK    2  A    between atoms: O_2  and  C_3
REMARK    3  A    between atoms: C_6  and  C_7
REMARK    4  A    between atoms: C_13  and  C_15
REMARK                            x       y       z     vdW  Elec       q    Type
REMARK                         _______ _______ _______ _____ _____    ______ ____
ROOT
ATOM      1  C   UNL     1       3.173   5.379  19.242  0.00  0.00    +0.000 C 
ATOM      2  O   UNL     1       3.357   4.468  20.049  0.00  0.00    +0.000 OA
ATOM      3  N   UNL     1       2.218   6.371  19.448  0.00  0.00    +0.000 N 
ATOM      4  C   UNL     1       1.589   6.503  20.769  0.00  0.00    +0.000 C 
ATOM      5  C   UNL     1       1.618   7.969  21.250  0.00  0.00    +0.000 C 
ATOM      6  N   UNL     1       1.138   8.895  20.211  0.00  0.00    +0.000 N 
ATOM      7  C   UNL     1       0.474  10.063  20.600  0.00  0.00    +0.000 C 
ATOM      8  O   UNL     1       0.384  10.369  21.790  0.00  0.00    +0.000 OA
ATOM      9  C   UNL     1       1.780   8.714  18.900  0.00  0.00    +0.000 C 
ATOM     10  C   UNL     1       1.644   7.263  18.434  0.00  0.00    +0.000 C 
ENDROOT
BRANCH   1  14
ATOM     11  C   UNL     1       5.651   5.597  15.730  0.00  0.00    +0.000 A 
ATOM     12  C   UNL     1       5.486   6.707  16.562  0.00  0.00    +0.000 A 
ATOM     13  C   UNL     1       4.704   6.621  17.719  0.00  0.00    +0.000 A 
ATOM     14  C   UNL     1       4.055   5.424  18.042  0.00  0.00    +0.000 A 
ATOM     15  C   UNL     1       4.158   4.343  17.158  0.00  0.00    +0.000 A 
ATOM     16  C   UNL     1       4.978   4.415  16.028  0.00  0.00    +0.000 A 
BRANCH  11  18
ATOM     17  C   UNL     1       6.886   4.619  13.964  0.00  0.00    +0.000 C 
ATOM     18  O   UNL     1       6.436   5.797  14.628  0.00  0.00    +0.000 OA
ENDBRANCH  11  18
ENDBRANCH   1  14
BRANCH   7  19
ATOM     19  C   UNL     1      -0.096  10.902  19.559  0.00  0.00    +0.000 A 
ATOM     20  C   UNL     1      -1.117  10.656  18.657  0.00  0.00    +0.000 A 
ATOM     21  C   UNL     1      -1.263  11.828  17.871  0.00  0.00    +0.000 A 
ATOM     22  C   UNL     1      -0.298  12.702  18.307  0.00  0.00    +0.000 A 
ATOM     23  O   UNL     1       0.433  12.143  19.302  0.00  0.00    +0.000 OA
ENDBRANCH   7  19
TORSDOF 3
ENDMDL
MODEL 7
REMARK VINA RESULT:      -6.0      2.087      8.095
REMARK  Name = 
REMARK  4 active torsions:
REMARK  status: ('A' for Active; 'I' for Inactive)
REMARK    1  A    between atoms: C_1  and  O_2
REMARK    2  A    between atoms: O_2  and  C_3
REMARK    3  A    between atoms: C_6  and  C_7
REMARK    4  A    between atoms: C_13  and  C_15
REMARK                            x       y       z     vdW  Elec       q    Type
REMARK                         _______ _______ _______ _____ _____    ______ ____
ROOT
ATOM      1  C   UNL     1       2.054   9.143  18.166  0.00  0.00    +0.000 C 
ATOM      2  O   UNL     1       2.260  10.103  17.424  0.00  0.00    +0.000 OA
ATOM      3  N   UNL     1       2.566   7.877  17.900  0.00  0.00    +0.000 N 
ATOM      4  C   UNL     1       3.592   7.716  16.861  0.00  0.00    +0.000 C 
ATOM      5  C   UNL     1       4.780   6.883  17.382  0.00  0.00    +0.000 C 
ATOM      6  N   UNL     1       4.332   5.646  18.043  0.00  0.00    +0.000 N 
ATOM      7  C   UNL     1       5.147   4.511  17.977  0.00  0.00    +0.000 C 
ATOM      8  O   UNL     1       6.267   4.569  17.468  0.00  0.00    +0.000 OA
ATOM      9  C   UNL     1       3.292   5.850  19.062  0.00  0.00    +0.000 C 
ATOM     10  C   UNL     1       2.101   6.604  18.465  0.00  0.00    +0.000 C 
ENDROOT
BRANCH   1  14
ATOM     11  C   UNL     1      -0.233   9.741  21.763  0.00  0.00    +0.000 A 
ATOM     12  C   UNL     1       0.849   8.856  21.739  0.00  0.00    +0.000 A 
ATOM     13  C   UNL     1       1.607   8.689  20.575  0.00  0.00    +0.000 A 
ATOM     14  C   UNL     1       1.273   9.392  19.411  0.00  0.00    +0.000 A 
ATOM     15  C   UNL     1       0.138  10.211  19.422  0.00  0.00    +0.000 A 
ATOM     16  C   UNL     1      -0.590  10.414  20.598  0.00  0.00    +0.000 A 
BRANCH  11  18
ATOM     17  C   UNL     1      -1.507  11.081  23.240  0.00  0.00    +0.000 C 
ATOM     18  O   UNL     1      -0.901   9.824  22.953  0.00  0.00    +0.000 OA
ENDBRANCH  11  18
ENDBRANCH   1  14
BRANCH   7  19
ATOM     19  C   UNL     1       4.633   3.270  18.532  0.00  0.00    +0.000 A 
ATOM     20  C   UNL     1       3.726   2.358  18.021  0.00  0.00    +0.000 A 
ATOM     21  C   UNL     1       3.593   1.325  18.983  0.00  0.00    +0.000 A 
ATOM     22  C   UNL     1       4.391   1.684  20.041  0.00  0.00    +0.000 A 
ATOM     23  O   UNL     1       4.998   2.871  19.794  0.00  0.00    +0.000 OA
ENDBRANCH   7  19
TORSDOF 3
ENDMDL
MODEL 8
REMARK VINA RESULT:      -5.9      1.553      7.346
REMARK  Name = 
REMARK  4 active torsions:
REMARK  status: ('A' for Active; 'I' for Inactive)
REMARK    1  A    between atoms: C_1  and  O_2
REMARK    2  A    between atoms: O_2  and  C_3
REMARK    3  A    between atoms: C_6  and  C_7
REMARK    4  A    between atoms: C_13  and  C_15
REMARK                            x       y       z     vdW  Elec       q    Type
REMARK                         _______ _______ _______ _____ _____    ______ ____
ROOT
ATOM      1  C   UNL     1       1.123   7.686  20.676  0.00  0.00    +0.000 C 
ATOM      2  O   UNL     1       0.309   7.396  21.552  0.00  0.00    +0.000 OA
ATOM      3  N   UNL     1       2.014   6.753  20.154  0.00  0.00    +0.000 N 
ATOM      4  C   UNL     1       1.822   5.327  20.450  0.00  0.00    +0.000 C 
ATOM      5  C   UNL     1       1.894   4.481  19.161  0.00  0.00    +0.000 C 
ATOM      6  N   UNL     1       3.076   4.819  18.352  0.00  0.00    +0.000 N 
ATOM      7  C   UNL     1       3.678   3.816  17.583  0.00  0.00    +0.000 C 
ATOM      8  O   UNL     1       3.170   2.697  17.499  0.00  0.00    +0.000 OA
ATOM      9  C   UNL     1       3.241   6.258  18.096  0.00  0.00    +0.000 C 
ATOM     10  C   UNL     1       3.250   7.036  19.414  0.00  0.00    +0.000 C 
ENDROOT
BRANCH   1  14
ATOM     11  C   UNL     1       1.144  11.685  19.086  0.00  0.00    +0.000 A 
ATOM     12  C   UNL     1       1.337  10.580  18.253  0.00  0.00    +0.000 A 
ATOM     13  C   UNL     1       1.300   9.281  18.771  0.00  0.00    +0.000 A 
ATOM     14  C   UNL     1       1.090   9.076  20.139  0.00  0.00    +0.000 A 
ATOM     15  C   UNL     1       0.981  10.191  20.979  0.00  0.00    +0.000 A 
ATOM     16  C   UNL     1       0.972  11.486  20.454  0.00  0.00    +0.000 A 
BRANCH  11  18
ATOM     17  C   UNL     1      -0.020  13.635  18.420  0.00  0.00    +0.000 C 
ATOM     18  O   UNL     1       1.202  12.905  18.472  0.00  0.00    +0.000 OA
ENDBRANCH  11  18
ENDBRANCH   1  14
BRANCH   7  19
ATOM     19  C   UNL     1       4.912   4.140  16.886  0.00  0.00    +0.000 A 
ATOM     20  C   UNL     1       5.176   4.282  15.535  0.00  0.00    +0.000 A 
ATOM     21  C   UNL     1       6.551   4.608  15.416  0.00  0.00    +0.000 A 
ATOM     22  C   UNL     1       7.056   4.604  16.693  0.00  0.00    +0.000 A 
ATOM     23  O   UNL     1       6.084   4.291  17.585  0.00  0.00    +0.000 OA
ENDBRANCH   7  19
TORSDOF 3
ENDMDL
MODEL 9
REMARK VINA RESULT:      -5.9      3.321      5.182
REMARK  Name = 
REMARK  4 active torsions:
REMARK  status: ('A' for Active; 'I' for Inactive)
REMARK    1  A    between atoms: C_1  and  O_2
REMARK    2  A    between atoms: O_2  and  C_3
REMARK    3  A    between atoms: C_6  and  C_7
REMARK    4  A    between atoms: C_13  and  C_15
REMARK                            x       y       z     vdW  Elec       q    Type
REMARK                         _______ _______ _______ _____ _____    ______ ____
ROOT
ATOM      1  C   UNL     1       2.455   7.762  18.349  0.00  0.00    +0.000 C 
ATOM      2  O   UNL     1       3.228   7.849  17.395  0.00  0.00    +0.000 OA
ATOM      3  N   UNL     1       1.872   8.882  18.934  0.00  0.00    +0.000 N 
ATOM      4  C   UNL     1       1.959  10.181  18.253  0.00  0.00    +0.000 C 
ATOM      5  C   UNL     1       0.576  10.860  18.181  0.00  0.00    +0.000 C 
ATOM      6  N   UNL     1      -0.102  10.861  19.489  0.00  0.00    +0.000 N 
ATOM      7  C   UNL     1      -0.956  11.922  19.807  0.00  0.00    +0.000 C 
ATOM      8  O   UNL     1      -1.224  12.787  18.971  0.00  0.00    +0.000 OA
ATOM      9  C   UNL     1      -0.149   9.546  20.144  0.00  0.00    +0.000 C 
ATOM     10  C   UNL     1       1.260   8.960  20.267  0.00  0.00    +0.000 C 
ENDROOT
BRANCH   1  14
ATOM     11  C   UNL     1       1.570   3.807  19.798  0.00  0.00    +0.000 A 
ATOM     12  C   UNL     1       1.894   4.840  20.682  0.00  0.00    +0.000 A 
ATOM     13  C   UNL     1       2.151   6.131  20.207  0.00  0.00    +0.000 A 
ATOM     14  C   UNL     1       2.110   6.395  18.833  0.00  0.00    +0.000 A 
ATOM     15  C   UNL     1       1.867   5.337  17.950  0.00  0.00    +0.000 A 
ATOM     16  C   UNL     1       1.564   4.059  18.428  0.00  0.00    +0.000 A 
BRANCH  11  18
ATOM     17  C   UNL     1       1.539   2.518  21.781  0.00  0.00    +0.000 C 
ATOM     18  O   UNL     1       1.339   2.589  20.373  0.00  0.00    +0.000 OA
ENDBRANCH  11  18
ENDBRANCH   1  14
BRANCH   7  19
ATOM     19  C   UNL     1      -1.520  11.965  21.145  0.00  0.00    +0.000 A 
ATOM     20  C   UNL     1      -0.981  11.599  22.366  0.00  0.00    +0.000 A 
ATOM     21  C   UNL     1      -1.970  11.857  23.348  0.00  0.00    +0.000 A 
ATOM     22  C   UNL     1      -3.069  12.324  22.670  0.00  0.00    +0.000 A 
ATOM     23  O   UNL     1      -2.820  12.363  21.338  0.00  0.00    +0.000 OA
ENDBRANCH   7  19
TORSDOF 3
ENDMDL
