MODEL 1
REMARK VINA RESULT:      -9.1      0.000      0.000
REMARK  Name = 
REMARK  4 active torsions:
REMARK  status: ('A' for Active; 'I' for Inactive)
REMARK    1  A    between atoms: C_2  and  C_3
REMARK    2  A    between atoms: C_3  and  C_4
REMARK    3  A    between atoms: N_15  and  C_16
REMARK    4  A    between atoms: C_16  and  C_17
REMARK                            x       y       z     vdW  Elec       q    Type
REMARK                         _______ _______ _______ _____ _____    ______ ____
ROOT
ATOM      1  O   UNL     1       7.265   9.008  17.225  0.00  0.00    +0.000 OA
ATOM      2  C   UNL     1       8.005   8.507  18.068  0.00  0.00    +0.000 C 
ATOM      3  N   UNL     1       8.848   9.229  18.873  0.00  0.00    +0.000 N 
ATOM      4  H   UNL     1       9.566   8.702  19.366  0.00  0.00    +0.000 HD
ENDROOT
BRANCH   2   5
ATOM      5  C   UNL     1       7.955   7.016  18.308  0.00  0.00    +0.000 C 
BRANCH   5   6
ATOM      6  C   UNL     1       7.264   6.150  17.273  0.00  0.00    +0.000 A 
ATOM      7  N   UNL     1       7.679   6.218  16.040  0.00  0.00    +0.000 NA
ATOM      8  N   UNL     1       7.103   5.427  15.108  0.00  0.00    +0.000 N 
ATOM      9  C   UNL     1       6.072   4.556  15.318  0.00  0.00    +0.000 A 
ATOM     10  O   UNL     1       5.610   3.857  14.431  0.00  0.00    +0.000 OA
ATOM     11  C   UNL     1       5.546   4.501  16.696  0.00  0.00    +0.000 A 
ATOM     12  C   UNL     1       4.460   3.673  16.992  0.00  0.00    +0.000 A 
ATOM     13  C   UNL     1       3.963   3.630  18.287  0.00  0.00    +0.000 A 
ATOM     14  C   UNL     1       4.546   4.408  19.288  0.00  0.00    +0.000 A 
ATOM     15  C   UNL     1       5.630   5.239  18.990  0.00  0.00    +0.000 A 
ATOM     16  C   UNL     1       6.131   5.287  17.684  0.00  0.00    +0.000 A 
ATOM     17  H   UNL     1       7.476   5.487  14.162  0.00  0.00    +0.000 HD
ENDBRANCH   5   6
ENDBRANCH   2   5
BRANCH   3  18
ATOM     18  C   UNL     1       9.067  10.653  18.752  0.00  0.00    +0.000 C 
BRANCH  18  19
ATOM     19  C   UNL     1      10.263  11.123  19.604  0.00  0.00    +0.000 C 
ATOM     20  C   UNL     1       9.849  11.485  21.036  0.00  0.00    +0.000 C 
ATOM     21  C   UNL     1       8.906  12.680  21.064  0.00  0.00    +0.000 C 
ATOM     22  C   UNL     1       9.196  13.781  20.039  0.00  0.00    +0.000 C 
ATOM     23  N   UNL     1       9.989  13.455  18.846  0.00  0.00    +0.000 NA
ATOM     24  C   UNL     1      10.604  14.670  18.294  0.00  0.00    +0.000 C 
ATOM     25  C   UNL     1      11.250  14.394  16.941  0.00  0.00    +0.000 C 
ATOM     26  C   UNL     1      12.281  13.278  17.042  0.00  0.00    +0.000 C 
ATOM     27  C   UNL     1      11.647  12.039  17.665  0.00  0.00    +0.000 C 
ATOM     28  C   UNL     1      10.959  12.366  19.008  0.00  0.00    +0.000 C 
ENDBRANCH  18  19
ENDBRANCH   3  18
TORSDOF 4
ENDMDL
MODEL 2
REMARK VINA RESULT:      -8.9      6.631     10.446
REMARK  Name = 
REMARK  4 active torsions:
REMARK  status: ('A' for Active; 'I' for Inactive)
REMARK    1  A    between atoms: C_2  and  C_3
REMARK    2  A    between atoms: C_3  and  C_4
REMARK    3  A    between atoms: N_15  and  C_16
REMARK    4  A    between atoms: C_16  and  C_17
REMARK                            x       y       z     vdW  Elec       q    Type
REMARK                         _______ _______ _______ _____ _____    ______ ____
ROOT
ATOM      1  O   UNL     1       2.918   9.344  17.408  0.00  0.00    +0.000 OA
ATOM      2  C   UNL     1       2.067   8.773  18.086  0.00  0.00    +0.000 C 
ATOM      3  N   UNL     1       2.121   7.446  18.425  0.00  0.00    +0.000 N 
ATOM      4  H   UNL     1       1.263   7.035  18.789  0.00  0.00    +0.000 HD
ENDROOT
BRANCH   2   5
ATOM      5  C   UNL     1       0.916   9.569  18.656  0.00  0.00    +0.000 C 
BRANCH   5   6
ATOM      6  C   UNL     1       0.730   9.579  20.160  0.00  0.00    +0.000 A 
ATOM      7  N   UNL     1       1.414   8.727  20.868  0.00  0.00    +0.000 NA
ATOM      8  N   UNL     1       1.292   8.744  22.214  0.00  0.00    +0.000 N 
ATOM      9  C   UNL     1       0.475   9.564  22.938  0.00  0.00    +0.000 A 
ATOM     10  O   UNL     1       0.427   9.536  24.156  0.00  0.00    +0.000 OA
ATOM     11  C   UNL     1      -0.354  10.501  22.155  0.00  0.00    +0.000 A 
ATOM     12  C   UNL     1      -1.255  11.345  22.809  0.00  0.00    +0.000 A 
ATOM     13  C   UNL     1      -2.037  12.220  22.069  0.00  0.00    +0.000 A 
ATOM     14  C   UNL     1      -1.924  12.257  20.679  0.00  0.00    +0.000 A 
ATOM     15  C   UNL     1      -1.025  11.409  20.024  0.00  0.00    +0.000 A 
ATOM     16  C   UNL     1      -0.237  10.525  20.769  0.00  0.00    +0.000 A 
ATOM     17  H   UNL     1       1.867   8.083  22.734  0.00  0.00    +0.000 HD
ENDBRANCH   5   6
ENDBRANCH   2   5
BRANCH   3  18
ATOM     18  C   UNL     1       3.115   6.520  17.931  0.00  0.00    +0.000 C 
BRANCH  18  19
ATOM     19  C   UNL     1       3.770   5.718  19.073  0.00  0.00    +0.000 C 
ATOM     20  C   UNL     1       5.238   5.386  18.781  0.00  0.00    +0.000 C 
ATOM     21  C   UNL     1       5.378   4.463  17.580  0.00  0.00    +0.000 C 
ATOM     22  C   UNL     1       4.297   3.386  17.437  0.00  0.00    +0.000 C 
ATOM     23  N   UNL     1       3.007   3.576  18.116  0.00  0.00    +0.000 NA
ATOM     24  C   UNL     1       2.343   2.281  18.321  0.00  0.00    +0.000 C 
ATOM     25  C   UNL     1       0.917   2.468  18.824  0.00  0.00    +0.000 C 
ATOM     26  C   UNL     1       0.890   3.286  20.108  0.00  0.00    +0.000 C 
ATOM     27  C   UNL     1       1.627   4.605  19.900  0.00  0.00    +0.000 C 
ATOM     28  C   UNL     1       3.049   4.379  19.343  0.00  0.00    +0.000 C 
ENDBRANCH  18  19
ENDBRANCH   3  18
TORSDOF 4
ENDMDL
MODEL 3
REMARK VINA RESULT:      -8.8      1.576      2.220
REMARK  Name = 
REMARK  4 active torsions:
REMARK  status: ('A' for Active; 'I' for Inactive)
REMARK    1  A    between atoms: C_2  and  C_3
REMARK    2  A    between atoms: C_3  and  C_4
REMARK    3  A    between atoms: N_15  and  C_16
REMARK    4  A    between atoms: C_16  and  C_17
REMARK                            x       y       z     vdW  Elec       q    Type
REMARK                         _______ _______ _______ _____ _____    ______ ____
ROOT
ATOM      1  O   UNL     1       7.362   8.472  17.320  0.00  0.00    +0.000 OA
ATOM      2  C   UNL     1       8.095   8.076  18.222  0.00  0.00    +0.000 C 
ATOM      3  N   UNL     1       8.869   8.899  18.999  0.00  0.00    +0.000 N 
ATOM      4  H   UNL     1       9.595   8.449  19.553  0.00  0.00    +0.000 HD
ENDROOT
BRANCH   2   5
ATOM      5  C   UNL     1       8.115   6.605  18.569  0.00  0.00    +0.000 C 
BRANCH   5   6
ATOM      6  C   UNL     1       6.828   5.818  18.418  0.00  0.00    +0.000 A 
ATOM      7  N   UNL     1       6.083   5.654  19.473  0.00  0.00    +0.000 NA
ATOM      8  N   UNL     1       4.912   4.989  19.352  0.00  0.00    +0.000 N 
ATOM      9  C   UNL     1       4.424   4.420  18.211  0.00  0.00    +0.000 A 
ATOM     10  O   UNL     1       3.348   3.846  18.170  0.00  0.00    +0.000 OA
ATOM     11  C   UNL     1       5.278   4.543  17.014  0.00  0.00    +0.000 A 
ATOM     12  C   UNL     1       4.880   3.950  15.812  0.00  0.00    +0.000 A 
ATOM     13  C   UNL     1       5.689   4.062  14.691  0.00  0.00    +0.000 A 
ATOM     14  C   UNL     1       6.892   4.765  14.761  0.00  0.00    +0.000 A 
ATOM     15  C   UNL     1       7.292   5.355  15.964  0.00  0.00    +0.000 A 
ATOM     16  C   UNL     1       6.478   5.241  17.098  0.00  0.00    +0.000 A 
ATOM     17  H   UNL     1       4.342   4.908  20.193  0.00  0.00    +0.000 HD
ENDBRANCH   5   6
ENDBRANCH   2   5
BRANCH   3  18
ATOM     18  C   UNL     1       9.016  10.320  18.782  0.00  0.00    +0.000 C 
BRANCH  18  19
ATOM     19  C   UNL     1      10.131  10.923  19.661  0.00  0.00    +0.000 C 
ATOM     20  C   UNL     1       9.618  11.330  21.047  0.00  0.00    +0.000 C 
ATOM     21  C   UNL     1       8.594  12.452  20.962  0.00  0.00    +0.000 C 
ATOM     22  C   UNL     1       8.858  13.515  19.889  0.00  0.00    +0.000 C 
ATOM     23  N   UNL     1       9.733  13.183  18.757  0.00  0.00    +0.000 NA
ATOM     24  C   UNL     1      10.288  14.408  18.165  0.00  0.00    +0.000 C 
ATOM     25  C   UNL     1      11.021  14.108  16.863  0.00  0.00    +0.000 C 
ATOM     26  C   UNL     1      12.122  13.077  17.078  0.00  0.00    +0.000 C 
ATOM     27  C   UNL     1      11.545  11.830  17.740  0.00  0.00    +0.000 C 
ATOM     28  C   UNL     1      10.767  12.178  19.028  0.00  0.00    +0.000 C 
ENDBRANCH  18  19
ENDBRANCH   3  18
TORSDOF 4
ENDMDL
MODEL 4
REMARK VINA RESULT:      -8.8      2.241      2.857
REMARK  Name = 
REMARK  4 active torsions:
REMARK  status: ('A' for Active; 'I' for Inactive)
REMARK    1  A    between atoms: C_2  and  C_3
REMARK    2  A    between atoms: C_3  and  C_4
REMARK    3  A    between atoms: N_15  and  C_16
REMARK    4  A    between atoms: C_16  and  C_17
REMARK                            x       y       z     vdW  Elec       q    Type
REMARK                         _______ _______ _______ _____ _____    ______ ____
ROOT
ATOM      1  O   UNL     1       8.623   7.418  19.047  0.00  0.00    +0.000 OA
ATOM      2  C   UNL     1       8.082   8.025  18.126  0.00  0.00    +0.000 C 
ATOM      3  N   UNL     1       8.249   9.365  17.889  0.00  0.00    +0.000 N 
ATOM      4  H   UNL     1       7.587   9.799  17.249  0.00  0.00    +0.000 HD
ENDROOT
BRANCH   2   5
ATOM      5  C   UNL     1       7.231   7.265  17.135  0.00  0.00    +0.000 C 
BRANCH   5   6
ATOM      6  C   UNL     1       6.413   6.096  17.646  0.00  0.00    +0.000 A 
ATOM      7  N   UNL     1       7.026   4.969  17.869  0.00  0.00    +0.000 NA
ATOM      8  N   UNL     1       6.323   3.924  18.361  0.00  0.00    +0.000 N 
ATOM      9  C   UNL     1       4.984   3.910  18.628  0.00  0.00    +0.000 A 
ATOM     10  O   UNL     1       4.415   2.934  19.089  0.00  0.00    +0.000 OA
ATOM     11  C   UNL     1       4.255   5.159  18.331  0.00  0.00    +0.000 A 
ATOM     12  C   UNL     1       2.873   5.221  18.528  0.00  0.00    +0.000 A 
ATOM     13  C   UNL     1       2.190   6.393  18.242  0.00  0.00    +0.000 A 
ATOM     14  C   UNL     1       2.879   7.507  17.759  0.00  0.00    +0.000 A 
ATOM     15  C   UNL     1       4.262   7.443  17.558  0.00  0.00    +0.000 A 
ATOM     16  C   UNL     1       4.952   6.260  17.844  0.00  0.00    +0.000 A 
ATOM     17  H   UNL     1       6.844   3.070  18.551  0.00  0.00    +0.000 HD
ENDBRANCH   5   6
ENDBRANCH   2   5
BRANCH   3  18
ATOM     18  C   UNL     1       8.982  10.259  18.757  0.00  0.00    +0.000 C 
BRANCH  18  19
ATOM     19  C   UNL     1       9.798  11.295  17.957  0.00  0.00    +0.000 C 
ATOM     20  C   UNL     1      11.261  11.356  18.412  0.00  0.00    +0.000 C 
ATOM     21  C   UNL     1      11.384  11.847  19.847  0.00  0.00    +0.000 C 
ATOM     22  C   UNL     1      10.395  12.941  20.265  0.00  0.00    +0.000 C 
ATOM     23  N   UNL     1       9.154  13.112  19.496  0.00  0.00    +0.000 NA
ATOM     24  C   UNL     1       8.628  14.472  19.673  0.00  0.00    +0.000 C 
ATOM     25  C   UNL     1       7.236  14.607  19.066  0.00  0.00    +0.000 C 
ATOM     26  C   UNL     1       7.243  14.229  17.590  0.00  0.00    +0.000 C 
ATOM     27  C   UNL     1       7.839  12.837  17.412  0.00  0.00    +0.000 C 
ATOM     28  C   UNL     1       9.225  12.722  18.083  0.00  0.00    +0.000 C 
ENDBRANCH  18  19
ENDBRANCH   3  18
TORSDOF 4
ENDMDL
MODEL 5
REMARK VINA RESULT:      -8.6      1.207      1.891
REMARK  Name = 
REMARK  4 active torsions:
REMARK  status: ('A' for Active; 'I' for Inactive)
REMARK    1  A    between atoms: C_2  and  C_3
REMARK    2  A    between atoms: C_3  and  C_4
REMARK    3  A    between atoms: N_15  and  C_16
REMARK    4  A    between atoms: C_16  and  C_17
REMARK                            x       y       z     vdW  Elec       q    Type
REMARK                         _______ _______ _______ _____ _____    ______ ____
ROOT
ATOM      1  O   UNL     1       7.346   9.105  17.708  0.00  0.00    +0.000 OA
ATOM      2  C   UNL     1       8.153   8.497  18.406  0.00  0.00    +0.000 C 
ATOM      3  N   UNL     1       9.032   9.103  19.267  0.00  0.00    +0.000 N 
ATOM      4  H   UNL     1       9.794   8.527  19.618  0.00  0.00    +0.000 HD
ENDROOT
BRANCH   2   5
ATOM      5  C   UNL     1       8.155   6.986  18.393  0.00  0.00    +0.000 C 
BRANCH   5   6
ATOM      6  C   UNL     1       7.314   6.281  17.347  0.00  0.00    +0.000 A 
ATOM      7  N   UNL     1       7.718   6.317  16.110  0.00  0.00    +0.000 NA
ATOM      8  N   UNL     1       7.004   5.663  15.166  0.00  0.00    +0.000 N 
ATOM      9  C   UNL     1       5.844   4.971  15.371  0.00  0.00    +0.000 A 
ATOM     10  O   UNL     1       5.259   4.388  14.473  0.00  0.00    +0.000 OA
ATOM     11  C   UNL     1       5.335   4.963  16.756  0.00  0.00    +0.000 A 
ATOM     12  C   UNL     1       4.129   4.321  17.049  0.00  0.00    +0.000 A 
ATOM     13  C   UNL     1       3.650   4.321  18.351  0.00  0.00    +0.000 A 
ATOM     14  C   UNL     1       4.368   4.959  19.363  0.00  0.00    +0.000 A 
ATOM     15  C   UNL     1       5.573   5.605  19.068  0.00  0.00    +0.000 A 
ATOM     16  C   UNL     1       6.057   5.608  17.755  0.00  0.00    +0.000 A 
ATOM     17  H   UNL     1       7.370   5.688  14.216  0.00  0.00    +0.000 HD
ENDBRANCH   5   6
ENDBRANCH   2   5
BRANCH   3  18
ATOM     18  C   UNL     1       9.209  10.534  19.375  0.00  0.00    +0.000 C 
BRANCH  18  19
ATOM     19  C   UNL     1       9.842  11.132  18.102  0.00  0.00    +0.000 C 
ATOM     20  C   UNL     1      11.373  11.149  18.169  0.00  0.00    +0.000 C 
ATOM     21  C   UNL     1      11.878  12.065  19.274  0.00  0.00    +0.000 C 
ATOM     22  C   UNL     1      11.078  13.354  19.489  0.00  0.00    +0.000 C 
ATOM     23  N   UNL     1       9.692  13.422  19.006  0.00  0.00    +0.000 NA
ATOM     24  C   UNL     1       9.289  14.821  18.806  0.00  0.00    +0.000 C 
ATOM     25  C   UNL     1       7.797  14.929  18.515  0.00  0.00    +0.000 C 
ATOM     26  C   UNL     1       7.412  14.088  17.305  0.00  0.00    +0.000 C 
ATOM     27  C   UNL     1       7.880  12.650  17.500  0.00  0.00    +0.000 C 
ATOM     28  C   UNL     1       9.384  12.583  17.842  0.00  0.00    +0.000 C 
ENDBRANCH  18  19
ENDBRANCH   3  18
TORSDOF 4
ENDMDL
MODEL 6
REMARK VINA RESULT:      -8.4      1.537      2.179
REMARK  Name = 
REMARK  4 active torsions:
REMARK  status: ('A' for Active; 'I' for Inactive)
REMARK    1  A    between atoms: C_2  and  C_3
REMARK    2  A    between atoms: C_3  and  C_4
REMARK    3  A    between atoms: N_15  and  C_16
REMARK    4  A    between atoms: C_16  and  C_17
REMARK                            x       y       z     vdW  Elec       q    Type
REMARK                         _______ _______ _______ _____ _____    ______ ____
ROOT
ATOM      1  O   UNL     1       8.521   7.635  18.657  0.00  0.00    +0.000 OA
ATOM      2  C   UNL     1       7.926   8.547  18.087  0.00  0.00    +0.000 C 
ATOM      3  N   UNL     1       8.361   9.847  18.062  0.00  0.00    +0.000 N 
ATOM      4  H   UNL     1       7.685  10.546  17.760  0.00  0.00    +0.000 HD
ENDROOT
BRANCH   2   5
ATOM      5  C   UNL     1       6.676   8.238  17.297  0.00  0.00    +0.000 C 
BRANCH   5   6
ATOM      6  C   UNL     1       6.468   6.815  16.818  0.00  0.00    +0.000 A 
ATOM      7  N   UNL     1       7.408   6.265  16.103  0.00  0.00    +0.000 NA
ATOM      8  N   UNL     1       7.260   4.984  15.698  0.00  0.00    +0.000 N 
ATOM      9  C   UNL     1       6.179   4.184  15.936  0.00  0.00    +0.000 A 
ATOM     10  O   UNL     1       6.119   3.028  15.553  0.00  0.00    +0.000 OA
ATOM     11  C   UNL     1       5.075   4.803  16.696  0.00  0.00    +0.000 A 
ATOM     12  C   UNL     1       3.909   4.074  16.945  0.00  0.00    +0.000 A 
ATOM     13  C   UNL     1       2.871   4.661  17.654  0.00  0.00    +0.000 A 
ATOM     14  C   UNL     1       2.991   5.972  18.117  0.00  0.00    +0.000 A 
ATOM     15  C   UNL     1       4.157   6.702  17.864  0.00  0.00    +0.000 A 
ATOM     16  C   UNL     1       5.204   6.112  17.147  0.00  0.00    +0.000 A 
ATOM     17  H   UNL     1       8.030   4.580  15.167  0.00  0.00    +0.000 HD
ENDBRANCH   5   6
ENDBRANCH   2   5
BRANCH   3  18
ATOM     18  C   UNL     1       9.503  10.338  18.800  0.00  0.00    +0.000 C 
BRANCH  18  19
ATOM     19  C   UNL     1      10.261  11.434  18.024  0.00  0.00    +0.000 C 
ATOM     20  C   UNL     1      11.728  11.539  18.453  0.00  0.00    +0.000 C 
ATOM     21  C   UNL     1      11.860  11.982  19.903  0.00  0.00    +0.000 C 
ATOM     22  C   UNL     1      10.836  13.019  20.379  0.00  0.00    +0.000 C 
ATOM     23  N   UNL     1       9.575  13.166  19.641  0.00  0.00    +0.000 NA
ATOM     24  C   UNL     1       8.997  14.496  19.878  0.00  0.00    +0.000 C 
ATOM     25  C   UNL     1       7.589  14.596  19.302  0.00  0.00    +0.000 C 
ATOM     26  C   UNL     1       7.581  14.272  17.814  0.00  0.00    +0.000 C 
ATOM     27  C   UNL     1       8.230  12.913  17.574  0.00  0.00    +0.000 C 
ATOM     28  C   UNL     1       9.633  12.831  18.214  0.00  0.00    +0.000 C 
ENDBRANCH  18  19
ENDBRANCH   3  18
TORSDOF 4
ENDMDL
MODEL 7
REMARK VINA RESULT:      -8.4      6.016      8.887
REMARK  Name = 
REMARK  4 active torsions:
REMARK  status: ('A' for Active; 'I' for Inactive)
REMARK    1  A    between atoms: C_2  and  C_3
REMARK    2  A    between atoms: C_3  and  C_4
REMARK    3  A    between atoms: N_15  and  C_16
REMARK    4  A    between atoms: C_16  and  C_17
REMARK                            x       y       z     vdW  Elec       q    Type
REMARK                         _______ _______ _______ _____ _____    ______ ____
ROOT
ATOM      1  O   UNL     1       2.394   7.846  19.610  0.00  0.00    +0.000 OA
ATOM      2  C   UNL     1       2.861   6.871  19.025  0.00  0.00    +0.000 C 
ATOM      3  N   UNL     1       2.509   5.574  19.295  0.00  0.00    +0.000 N 
ATOM      4  H   UNL     1       3.116   4.850  18.914  0.00  0.00    +0.000 HD
ENDROOT
BRANCH   2   5
ATOM      5  C   UNL     1       3.831   7.085  17.886  0.00  0.00    +0.000 C 
BRANCH   5   6
ATOM      6  C   UNL     1       5.104   6.262  17.869  0.00  0.00    +0.000 A 
ATOM      7  N   UNL     1       5.728   6.073  18.996  0.00  0.00    +0.000 NA
ATOM      8  N   UNL     1       6.844   5.310  19.009  0.00  0.00    +0.000 N 
ATOM      9  C   UNL     1       7.430   4.722  17.925  0.00  0.00    +0.000 A 
ATOM     10  O   UNL     1       8.431   4.031  18.012  0.00  0.00    +0.000 OA
ATOM     11  C   UNL     1       6.774   4.969  16.626  0.00  0.00    +0.000 A 
ATOM     12  C   UNL     1       7.331   4.446  15.456  0.00  0.00    +0.000 A 
ATOM     13  C   UNL     1       6.715   4.686  14.236  0.00  0.00    +0.000 A 
ATOM     14  C   UNL     1       5.545   5.443  14.177  0.00  0.00    +0.000 A 
ATOM     15  C   UNL     1       4.990   5.969  15.348  0.00  0.00    +0.000 A 
ATOM     16  C   UNL     1       5.611   5.731  16.580  0.00  0.00    +0.000 A 
ATOM     17  H   UNL     1       7.285   5.160  19.915  0.00  0.00    +0.000 HD
ENDBRANCH   5   6
ENDBRANCH   2   5
BRANCH   3  18
ATOM     18  C   UNL     1       1.639   5.176  20.379  0.00  0.00    +0.000 C 
BRANCH  18  19
ATOM     19  C   UNL     1       1.058   3.764  20.159  0.00  0.00    +0.000 C 
ATOM     20  C   UNL     1       1.029   2.942  21.452  0.00  0.00    +0.000 C 
ATOM     21  C   UNL     1       2.430   2.666  21.977  0.00  0.00    +0.000 C 
ATOM     22  C   UNL     1       3.499   2.398  20.911  0.00  0.00    +0.000 C 
ATOM     23  N   UNL     1       3.269   2.863  19.537  0.00  0.00    +0.000 NA
ATOM     24  C   UNL     1       4.080   2.084  18.592  0.00  0.00    +0.000 C 
ATOM     25  C   UNL     1       4.025   2.686  17.192  0.00  0.00    +0.000 C 
ATOM     26  C   UNL     1       2.589   2.791  16.697  0.00  0.00    +0.000 C 
ATOM     27  C   UNL     1       1.744   3.557  17.709  0.00  0.00    +0.000 C 
ATOM     28  C   UNL     1       1.864   2.950  19.124  0.00  0.00    +0.000 C 
ENDBRANCH  18  19
ENDBRANCH   3  18
TORSDOF 4
ENDMDL
MODEL 8
REMARK VINA RESULT:      -8.4      7.165     10.737
REMARK  Name = 
REMARK  4 active torsions:
REMARK  status: ('A' for Active; 'I' for Inactive)
REMARK    1  A    between atoms: C_2  and  C_3
REMARK    2  A    between atoms: C_3  and  C_4
REMARK    3  A    between atoms: N_15  and  C_16
REMARK    4  A    between atoms: C_16  and  C_17
REMARK                            x       y       z     vdW  Elec       q    Type
REMARK                         _______ _______ _______ _____ _____    ______ ____
ROOT
ATOM      1  O   UNL     1       2.241   9.341  17.398  0.00  0.00    +0.000 OA
ATOM      2  C   UNL     1       1.817   8.911  18.468  0.00  0.00    +0.000 C 
ATOM      3  N   UNL     1       2.103   7.665  18.961  0.00  0.00    +0.000 N 
ATOM      4  H   UNL     1       1.524   7.338  19.732  0.00  0.00    +0.000 HD
ENDROOT
BRANCH   2   5
ATOM      5  C   UNL     1       0.985   9.813  19.352  0.00  0.00    +0.000 C 
BRANCH   5   6
ATOM      6  C   UNL     1      -0.322  10.346  18.799  0.00  0.00    +0.000 A 
ATOM      7  N   UNL     1      -0.641  10.037  17.574  0.00  0.00    +0.000 NA
ATOM      8  N   UNL     1      -1.820  10.471  17.074  0.00  0.00    +0.000 N 
ATOM      9  C   UNL     1      -2.731  11.253  17.724  0.00  0.00    +0.000 A 
ATOM     10  O   UNL     1      -3.786  11.594  17.216  0.00  0.00    +0.000 OA
ATOM     11  C   UNL     1      -2.366  11.663  19.094  0.00  0.00    +0.000 A 
ATOM     12  C   UNL     1      -3.217  12.504  19.817  0.00  0.00    +0.000 A 
ATOM     13  C   UNL     1      -2.868  12.893  21.102  0.00  0.00    +0.000 A 
ATOM     14  C   UNL     1      -1.674  12.447  21.670  0.00  0.00    +0.000 A 
ATOM     15  C   UNL     1      -0.821  11.609  20.945  0.00  0.00    +0.000 A 
ATOM     16  C   UNL     1      -1.170  11.217  19.647  0.00  0.00    +0.000 A 
ATOM     17  H   UNL     1      -2.047  10.183  16.124  0.00  0.00    +0.000 HD
ENDBRANCH   5   6
ENDBRANCH   2   5
BRANCH   3  18
ATOM     18  C   UNL     1       2.836   6.652  18.236  0.00  0.00    +0.000 C 
BRANCH  18  19
ATOM     19  C   UNL     1       3.633   5.732  19.183  0.00  0.00    +0.000 C 
ATOM     20  C   UNL     1       5.066   5.497  18.692  0.00  0.00    +0.000 C 
ATOM     21  C   UNL     1       5.092   4.745  17.369  0.00  0.00    +0.000 C 
ATOM     22  C   UNL     1       4.025   3.656  17.200  0.00  0.00    +0.000 C 
ATOM     23  N   UNL     1       2.816   3.707  18.034  0.00  0.00    +0.000 NA
ATOM     24  C   UNL     1       2.209   2.373  18.133  0.00  0.00    +0.000 C 
ATOM     25  C   UNL     1       0.844   2.439  18.807  0.00  0.00    +0.000 C 
ATOM     26  C   UNL     1       0.943   3.080  20.185  0.00  0.00    +0.000 C 
ATOM     27  C   UNL     1       1.622   4.441  20.078  0.00  0.00    +0.000 C 
ATOM     28  C   UNL     1       2.977   4.344  19.346  0.00  0.00    +0.000 C 
ENDBRANCH  18  19
ENDBRANCH   3  18
TORSDOF 4
ENDMDL
MODEL 9
REMARK VINA RESULT:      -8.3      6.733      9.461
REMARK  Name = 
REMARK  4 active torsions:
REMARK  status: ('A' for Active; 'I' for Inactive)
REMARK    1  A    between atoms: C_2  and  C_3
REMARK    2  A    between atoms: C_3  and  C_4
REMARK    3  A    between atoms: N_15  and  C_16
REMARK    4  A    between atoms: C_16  and  C_17
REMARK                            x       y       z     vdW  Elec       q    Type
REMARK                         _______ _______ _______ _____ _____    ______ ____
ROOT
ATOM      1  O   UNL     1       1.366   8.516  19.855  0.00  0.00    +0.000 OA
ATOM      2  C   UNL     1       1.801   8.754  18.731  0.00  0.00    +0.000 C 
ATOM      3  N   UNL     1       2.597   7.895  18.020  0.00  0.00    +0.000 N 
ATOM      4  H   UNL     1       3.076   8.285  17.210  0.00  0.00    +0.000 HD
ENDROOT
BRANCH   2   5
ATOM      5  C   UNL     1       1.394  10.032  18.034  0.00  0.00    +0.000 C 
BRANCH   5   6
ATOM      6  C   UNL     1       0.357  10.911  18.704  0.00  0.00    +0.000 A 
ATOM      7  N   UNL     1       0.754  11.720  19.644  0.00  0.00    +0.000 NA
ATOM      8  N   UNL     1      -0.147  12.540  20.229  0.00  0.00    +0.000 N 
ATOM      9  C   UNL     1      -1.484  12.592  19.956  0.00  0.00    +0.000 A 
ATOM     10  O   UNL     1      -2.240  13.372  20.512  0.00  0.00    +0.000 OA
ATOM     11  C   UNL     1      -1.969  11.645  18.934  0.00  0.00    +0.000 A 
ATOM     12  C   UNL     1      -3.331  11.594  18.624  0.00  0.00    +0.000 A 
ATOM     13  C   UNL     1      -3.785  10.698  17.667  0.00  0.00    +0.000 A 
ATOM     14  C   UNL     1      -2.886   9.852  17.016  0.00  0.00    +0.000 A 
ATOM     15  C   UNL     1      -1.524   9.900  17.330  0.00  0.00    +0.000 A 
ATOM     16  C   UNL     1      -1.065  10.802  18.296  0.00  0.00    +0.000 A 
ATOM     17  H   UNL     1       0.208  13.180  20.938  0.00  0.00    +0.000 HD
ENDBRANCH   5   6
ENDBRANCH   2   5
BRANCH   3  18
ATOM     18  C   UNL     1       3.128   6.656  18.543  0.00  0.00    +0.000 C 
BRANCH  18  19
ATOM     19  C   UNL     1       3.723   5.771  17.429  0.00  0.00    +0.000 C 
ATOM     20  C   UNL     1       3.210   4.328  17.498  0.00  0.00    +0.000 C 
ATOM     21  C   UNL     1       3.657   3.632  18.775  0.00  0.00    +0.000 C 
ATOM     22  C   UNL     1       5.069   3.977  19.263  0.00  0.00    +0.000 C 
ATOM     23  N   UNL     1       5.696   5.225  18.805  0.00  0.00    +0.000 NA
ATOM     24  C   UNL     1       7.158   5.129  18.912  0.00  0.00    +0.000 C 
ATOM     25  C   UNL     1       7.819   6.478  18.651  0.00  0.00    +0.000 C 
ATOM     26  C   UNL     1       7.421   7.029  17.288  0.00  0.00    +0.000 C 
ATOM     27  C   UNL     1       5.902   7.075  17.168  0.00  0.00    +0.000 C 
ATOM     28  C   UNL     1       5.264   5.706  17.488  0.00  0.00    +0.000 C 
ENDBRANCH  18  19
ENDBRANCH   3  18
TORSDOF 4
ENDMDL
