MODEL 1
REMARK VINA RESULT:      -7.6      0.000      0.000
REMARK  Name = 
REMARK  19 active torsions:
REMARK  status: ('A' for Active; 'I' for Inactive)
REMARK    1  A    between atoms: C_1  and  C_2
REMARK    2  A    between atoms: C_2  and  C_3
REMARK    3  A    between atoms: C_3  and  C_4
REMARK    4  A    between atoms: C_4  and  C_5
REMARK    5  A    between atoms: C_5  and  C_6
REMARK    6  A    between atoms: C_6  and  C_7
REMARK    7  A    between atoms: C_7  and  C_8
REMARK    8  A    between atoms: C_8  and  C_9
REMARK    9  A    between atoms: C_12  and  O_13
REMARK   10  A    between atoms: O_13  and  C_14
REMARK   11  A    between atoms: C_14  and  C_15
REMARK   12  A    between atoms: C_15  and  C_17
REMARK   13  A    between atoms: C_17  and  N_18
REMARK   14  A    between atoms: C_20  and  C_21
REMARK   15  A    between atoms: C_21  and  C_23
REMARK   16  A    between atoms: C_23  and  C_24
REMARK   17  A    between atoms: C_23  and  C_25
REMARK   18  A    between atoms: C_28  and  C_29
REMARK   19  A    between atoms: C_29  and  O_31
REMARK                            x       y       z     vdW  Elec       q    Type
REMARK                         _______ _______ _______ _____ _____    ______ ____
ROOT
ATOM      1  C   UNL     1       1.887   6.383  20.627  0.00  0.00    +0.000 C 
ENDROOT
BRANCH   1   2
ATOM      2  N   UNL     1       2.932   5.870  19.484  0.00  0.00    +0.000 N 
ATOM      3  C   UNL     1       2.292   6.049  18.252  0.00  0.00    +0.000 A 
ATOM      4  C   UNL     1       2.788   4.887  17.746  0.00  0.00    +0.000 A 
ATOM      5  C   UNL     1       4.104   5.283  17.711  0.00  0.00    +0.000 A 
ATOM      6  C   UNL     1       4.918   4.917  16.572  0.00  0.00    +0.000 A 
ATOM      7  C   UNL     1       6.244   5.074  16.377  0.00  0.00    +0.000 A 
ATOM      8  C   UNL     1       6.764   5.688  17.486  0.00  0.00    +0.000 A 
ATOM      9  C   UNL     1       5.884   6.027  18.726  0.00  0.00    +0.000 A 
ATOM     10  C   UNL     1       4.414   5.965  19.134  0.00  0.00    +0.000 A 
BRANCH   7  11
ATOM     11  C   UNL     1       6.814   4.595  15.046  0.00  0.00    +0.000 C 
ATOM     12  O   UNL     1       7.641   5.211  14.391  0.00  0.00    +0.000 OA
BRANCH  11  13
ATOM     13  O   UNL     1       6.315   3.416  14.562  0.00  0.00    +0.000 OA
ATOM     14  H   UNL     1       5.857   3.399  13.700  0.00  0.00    +0.000 HD
ENDBRANCH  11  13
ENDBRANCH   7  11
BRANCH   4  15
ATOM     15  C   UNL     1       2.466   3.484  17.754  0.00  0.00    +0.000 C 
ATOM     16  O   UNL     1       2.025   2.933  16.743  0.00  0.00    +0.000 OA
BRANCH  15  17
ATOM     17  C   UNL     1       2.909   2.704  18.957  0.00  0.00    +0.000 C 
ATOM     18  C   UNL     1       1.688   2.374  19.792  0.00  0.00    +0.000 C 
ATOM     19  C   UNL     1       3.620   1.443  18.485  0.00  0.00    +0.000 C 
ENDBRANCH  15  17
ENDBRANCH   4  15
ENDBRANCH   1   2
BRANCH   1  20
ATOM     20  C   UNL     1       1.494   8.090  20.883  0.00  0.00    +0.000 C 
ATOM     21  O   UNL     1       1.419   8.508  22.054  0.00  0.00    +0.000 OA
BRANCH  20  22
ATOM     22  C   UNL     1       1.132   9.196  19.707  0.00  0.00    +0.000 C 
BRANCH  22  23
ATOM     23  O   UNL     1       0.968  10.658  19.976  0.00  0.00    +0.000 OA
BRANCH  23  27
ATOM     24  C   UNL     1      -2.712  12.670  20.972  0.00  0.00    +0.000 A 
ATOM     25  C   UNL     1      -1.933  12.046  21.951  0.00  0.00    +0.000 A 
ATOM     26  C   UNL     1      -0.713  11.382  21.605  0.00  0.00    +0.000 A 
ATOM     27  C   UNL     1      -0.256  11.265  20.262  0.00  0.00    +0.000 A 
ATOM     28  C   UNL     1      -1.069  11.858  19.302  0.00  0.00    +0.000 A 
ATOM     29  C   UNL     1      -2.268  12.545  19.648  0.00  0.00    +0.000 A 
BRANCH  24  30
ATOM     30  C   UNL     1      -3.911  13.549  21.316  0.00  0.00    +0.000 C 
BRANCH  30  31
ATOM     31  C   UNL     1      -4.837  12.818  22.300  0.00  0.00    +0.000 C 
BRANCH  31  32
ATOM     32  C   UNL     1      -6.293  12.756  21.842  0.00  0.00    +0.000 C 
BRANCH  32  33
ATOM     33  C   UNL     1      -6.364  12.526  20.329  0.00  0.00    +0.000 C 
BRANCH  33  34
ATOM     34  C   UNL     1      -6.988  11.170  20.008  0.00  0.00    +0.000 C 
BRANCH  34  35
ATOM     35  C   UNL     1      -6.684  10.753  18.572  0.00  0.00    +0.000 C 
BRANCH  35  37
ATOM     36  C   UNL     1      -5.024  11.661  16.922  0.00  0.00    +0.000 C 
ATOM     37  C   UNL     1      -5.203  10.943  18.249  0.00  0.00    +0.000 C 
ENDBRANCH  35  37
ENDBRANCH  34  35
ENDBRANCH  33  34
ENDBRANCH  32  33
ENDBRANCH  31  32
ENDBRANCH  30  31
ENDBRANCH  24  30
ENDBRANCH  23  27
ENDBRANCH  22  23
ENDBRANCH  20  22
ENDBRANCH   1  20
TORSDOF 16
ENDMDL
MODEL 2
REMARK VINA RESULT:      -7.4      4.729      9.536
REMARK  Name = 
REMARK  19 active torsions:
REMARK  status: ('A' for Active; 'I' for Inactive)
REMARK    1  A    between atoms: C_1  and  C_2
REMARK    2  A    between atoms: C_2  and  C_3
REMARK    3  A    between atoms: C_3  and  C_4
REMARK    4  A    between atoms: C_4  and  C_5
REMARK    5  A    between atoms: C_5  and  C_6
REMARK    6  A    between atoms: C_6  and  C_7
REMARK    7  A    between atoms: C_7  and  C_8
REMARK    8  A    between atoms: C_8  and  C_9
REMARK    9  A    between atoms: C_12  and  O_13
REMARK   10  A    between atoms: O_13  and  C_14
REMARK   11  A    between atoms: C_14  and  C_15
REMARK   12  A    between atoms: C_15  and  C_17
REMARK   13  A    between atoms: C_17  and  N_18
REMARK   14  A    between atoms: C_20  and  C_21
REMARK   15  A    between atoms: C_21  and  C_23
REMARK   16  A    between atoms: C_23  and  C_24
REMARK   17  A    between atoms: C_23  and  C_25
REMARK   18  A    between atoms: C_28  and  C_29
REMARK   19  A    between atoms: C_29  and  O_31
REMARK                            x       y       z     vdW  Elec       q    Type
REMARK                         _______ _______ _______ _____ _____    ______ ____
ROOT
ATOM      1  C   UNL     1       5.283   5.621  16.615  0.00  0.00    +0.000 C 
ENDROOT
BRANCH   1   2
ATOM      2  N   UNL     1       4.081   6.277  17.503  0.00  0.00    +0.000 N 
ATOM      3  C   UNL     1       4.319   5.903  18.830  0.00  0.00    +0.000 A 
ATOM      4  C   UNL     1       2.996   5.713  19.088  0.00  0.00    +0.000 A 
ATOM      5  C   UNL     1       2.626   7.032  18.977  0.00  0.00    +0.000 A 
ATOM      6  C   UNL     1       1.668   7.576  19.915  0.00  0.00    +0.000 A 
ATOM      7  C   UNL     1       1.064   8.781  19.927  0.00  0.00    +0.000 A 
ATOM      8  C   UNL     1       1.520   9.493  18.849  0.00  0.00    +0.000 A 
ATOM      9  C   UNL     1       2.511   8.875  17.816  0.00  0.00    +0.000 A 
ATOM     10  C   UNL     1       3.313   7.589  17.632  0.00  0.00    +0.000 A 
BRANCH   7  11
ATOM     11  C   UNL     1       0.101   9.068  21.075  0.00  0.00    +0.000 C 
ATOM     12  O   UNL     1      -0.463   8.206  21.730  0.00  0.00    +0.000 OA
BRANCH  11  13
ATOM     13  O   UNL     1      -0.157  10.387  21.334  0.00  0.00    +0.000 OA
ATOM     14  H   UNL     1      -0.708  10.905  20.717  0.00  0.00    +0.000 HD
ENDBRANCH  11  13
ENDBRANCH   7  11
BRANCH   4  15
ATOM     15  C   UNL     1       2.006   4.680  18.932  0.00  0.00    +0.000 C 
ATOM     16  O   UNL     1       1.306   4.626  17.920  0.00  0.00    +0.000 OA
BRANCH  15  17
ATOM     17  C   UNL     1       2.039   3.566  19.937  0.00  0.00    +0.000 C 
ATOM     18  C   UNL     1       2.123   4.172  21.324  0.00  0.00    +0.000 C 
ATOM     19  C   UNL     1       0.782   2.723  19.772  0.00  0.00    +0.000 C 
ENDBRANCH  15  17
ENDBRANCH   4  15
ENDBRANCH   1   2
BRANCH   1  20
ATOM     20  C   UNL     1       6.992   5.739  17.062  0.00  0.00    +0.000 C 
ATOM     21  O   UNL     1       7.723   4.752  16.861  0.00  0.00    +0.000 OA
BRANCH  20  22
ATOM     22  C   UNL     1       7.720   7.026  17.806  0.00  0.00    +0.000 C 
BRANCH  22  23
ATOM     23  O   UNL     1       7.556   8.440  17.349  0.00  0.00    +0.000 OA
BRANCH  23  27
ATOM     24  C   UNL     1       9.705  11.716  19.146  0.00  0.00    +0.000 A 
ATOM     25  C   UNL     1       9.747  10.428  19.691  0.00  0.00    +0.000 A 
ATOM     26  C   UNL     1       9.028   9.351  19.083  0.00  0.00    +0.000 A 
ATOM     27  C   UNL     1       8.194   9.530  17.943  0.00  0.00    +0.000 A 
ATOM     28  C   UNL     1       8.137  10.827  17.444  0.00  0.00    +0.000 A 
ATOM     29  C   UNL     1       8.875  11.895  18.031  0.00  0.00    +0.000 A 
BRANCH  24  30
ATOM     30  C   UNL     1      10.602  12.846  19.644  0.00  0.00    +0.000 C 
BRANCH  30  31
ATOM     31  C   UNL     1      10.315  13.135  21.126  0.00  0.00    +0.000 C 
BRANCH  31  32
ATOM     32  C   UNL     1       8.829  13.287  21.445  0.00  0.00    +0.000 C 
BRANCH  32  33
ATOM     33  C   UNL     1       8.645  13.933  22.821  0.00  0.00    +0.000 C 
BRANCH  33  34
ATOM     34  C   UNL     1       8.344  12.881  23.886  0.00  0.00    +0.000 C 
BRANCH  34  35
ATOM     35  C   UNL     1       7.458  11.772  23.326  0.00  0.00    +0.000 C 
BRANCH  35  37
ATOM     36  C   UNL     1       5.961  12.815  25.050  0.00  0.00    +0.000 C 
ATOM     37  C   UNL     1       6.200  11.597  24.174  0.00  0.00    +0.000 C 
ENDBRANCH  35  37
ENDBRANCH  34  35
ENDBRANCH  33  34
ENDBRANCH  32  33
ENDBRANCH  31  32
ENDBRANCH  30  31
ENDBRANCH  24  30
ENDBRANCH  23  27
ENDBRANCH  22  23
ENDBRANCH  20  22
ENDBRANCH   1  20
TORSDOF 16
ENDMDL
MODEL 3
REMARK VINA RESULT:      -7.2      3.795     10.103
REMARK  Name = 
REMARK  19 active torsions:
REMARK  status: ('A' for Active; 'I' for Inactive)
REMARK    1  A    between atoms: C_1  and  C_2
REMARK    2  A    between atoms: C_2  and  C_3
REMARK    3  A    between atoms: C_3  and  C_4
REMARK    4  A    between atoms: C_4  and  C_5
REMARK    5  A    between atoms: C_5  and  C_6
REMARK    6  A    between atoms: C_6  and  C_7
REMARK    7  A    between atoms: C_7  and  C_8
REMARK    8  A    between atoms: C_8  and  C_9
REMARK    9  A    between atoms: C_12  and  O_13
REMARK   10  A    between atoms: O_13  and  C_14
REMARK   11  A    between atoms: C_14  and  C_15
REMARK   12  A    between atoms: C_15  and  C_17
REMARK   13  A    between atoms: C_17  and  N_18
REMARK   14  A    between atoms: C_20  and  C_21
REMARK   15  A    between atoms: C_21  and  C_23
REMARK   16  A    between atoms: C_23  and  C_24
REMARK   17  A    between atoms: C_23  and  C_25
REMARK   18  A    between atoms: C_28  and  C_29
REMARK   19  A    between atoms: C_29  and  O_31
REMARK                            x       y       z     vdW  Elec       q    Type
REMARK                         _______ _______ _______ _____ _____    ______ ____
ROOT
ATOM      1  C   UNL     1      -3.449  12.606  21.250  0.00  0.00    +0.000 C 
ENDROOT
BRANCH   1   2
ATOM      2  N   UNL     1      -3.546  11.941  19.763  0.00  0.00    +0.000 N 
ATOM      3  C   UNL     1      -4.066  12.929  18.920  0.00  0.00    +0.000 A 
ATOM      4  C   UNL     1      -4.829  12.037  18.230  0.00  0.00    +0.000 A 
ATOM      5  C   UNL     1      -3.784  11.355  17.652  0.00  0.00    +0.000 A 
ATOM      6  C   UNL     1      -3.894  10.942  16.269  0.00  0.00    +0.000 A 
ATOM      7  C   UNL     1      -3.072  10.162  15.536  0.00  0.00    +0.000 A 
ATOM      8  C   UNL     1      -2.023   9.788  16.335  0.00  0.00    +0.000 A 
ATOM      9  C   UNL     1      -1.947  10.196  17.837  0.00  0.00    +0.000 A 
ATOM     10  C   UNL     1      -2.723  11.064  18.824  0.00  0.00    +0.000 A 
BRANCH   7  11
ATOM     11  C   UNL     1      -3.455   9.919  14.080  0.00  0.00    +0.000 C 
ATOM     12  O   UNL     1      -2.652   9.821  13.166  0.00  0.00    +0.000 OA
BRANCH  11  13
ATOM     13  O   UNL     1      -4.795   9.854  13.810  0.00  0.00    +0.000 OA
ATOM     14  H   UNL     1      -5.380  10.592  14.068  0.00  0.00    +0.000 HD
ENDBRANCH  11  13
ENDBRANCH   7  11
BRANCH   4  15
ATOM     15  C   UNL     1      -6.116  11.403  18.346  0.00  0.00    +0.000 C 
ATOM     16  O   UNL     1      -6.214  10.250  18.768  0.00  0.00    +0.000 OA
BRANCH  15  17
ATOM     17  C   UNL     1      -7.315  12.285  18.154  0.00  0.00    +0.000 C 
ATOM     18  C   UNL     1      -7.574  13.032  19.447  0.00  0.00    +0.000 C 
ATOM     19  C   UNL     1      -7.037  13.241  17.003  0.00  0.00    +0.000 C 
ENDBRANCH  15  17
ENDBRANCH   4  15
ENDBRANCH   1   2
BRANCH   1  20
ATOM     20  C   UNL     1      -2.220  12.146  22.438  0.00  0.00    +0.000 C 
ATOM     21  O   UNL     1      -2.597  11.625  23.504  0.00  0.00    +0.000 OA
BRANCH  20  22
ATOM     22  C   UNL     1      -0.591  12.409  22.311  0.00  0.00    +0.000 C 
BRANCH  22  23
ATOM     23  O   UNL     1       0.113  12.586  21.004  0.00  0.00    +0.000 OA
BRANCH  23  27
ATOM     24  C   UNL     1       1.720   9.404  18.582  0.00  0.00    +0.000 A 
ATOM     25  C   UNL     1       1.742  10.733  18.149  0.00  0.00    +0.000 A 
ATOM     26  C   UNL     1       1.204  11.779  18.965  0.00  0.00    +0.000 A 
ATOM     27  C   UNL     1       0.573  11.530  20.216  0.00  0.00    +0.000 A 
ATOM     28  C   UNL     1       0.528  10.196  20.606  0.00  0.00    +0.000 A 
ATOM     29  C   UNL     1       1.088   9.157  19.808  0.00  0.00    +0.000 A 
BRANCH  24  30
ATOM     30  C   UNL     1       2.449   8.288  17.839  0.00  0.00    +0.000 C 
BRANCH  30  31
ATOM     31  C   UNL     1       2.717   7.108  18.787  0.00  0.00    +0.000 C 
BRANCH  31  32
ATOM     32  C   UNL     1       2.289   5.755  18.220  0.00  0.00    +0.000 C 
BRANCH  32  33
ATOM     33  C   UNL     1       3.510   4.851  18.027  0.00  0.00    +0.000 C 
BRANCH  33  34
ATOM     34  C   UNL     1       4.437   5.402  16.947  0.00  0.00    +0.000 C 
BRANCH  34  35
ATOM     35  C   UNL     1       5.842   5.632  17.495  0.00  0.00    +0.000 C 
BRANCH  35  37
ATOM     36  C   UNL     1       6.942   4.764  15.413  0.00  0.00    +0.000 C 
ATOM     37  C   UNL     1       6.827   4.616  16.921  0.00  0.00    +0.000 C 
ENDBRANCH  35  37
ENDBRANCH  34  35
ENDBRANCH  33  34
ENDBRANCH  32  33
ENDBRANCH  31  32
ENDBRANCH  30  31
ENDBRANCH  24  30
ENDBRANCH  23  27
ENDBRANCH  22  23
ENDBRANCH  20  22
ENDBRANCH   1  20
TORSDOF 16
ENDMDL
MODEL 4
REMARK VINA RESULT:      -6.9      3.982      6.471
REMARK  Name = 
REMARK  19 active torsions:
REMARK  status: ('A' for Active; 'I' for Inactive)
REMARK    1  A    between atoms: C_1  and  C_2
REMARK    2  A    between atoms: C_2  and  C_3
REMARK    3  A    between atoms: C_3  and  C_4
REMARK    4  A    between atoms: C_4  and  C_5
REMARK    5  A    between atoms: C_5  and  C_6
REMARK    6  A    between atoms: C_6  and  C_7
REMARK    7  A    between atoms: C_7  and  C_8
REMARK    8  A    between atoms: C_8  and  C_9
REMARK    9  A    between atoms: C_12  and  O_13
REMARK   10  A    between atoms: O_13  and  C_14
REMARK   11  A    between atoms: C_14  and  C_15
REMARK   12  A    between atoms: C_15  and  C_17
REMARK   13  A    between atoms: C_17  and  N_18
REMARK   14  A    between atoms: C_20  and  C_21
REMARK   15  A    between atoms: C_21  and  C_23
REMARK   16  A    between atoms: C_23  and  C_24
REMARK   17  A    between atoms: C_23  and  C_25
REMARK   18  A    between atoms: C_28  and  C_29
REMARK   19  A    between atoms: C_29  and  O_31
REMARK                            x       y       z     vdW  Elec       q    Type
REMARK                         _______ _______ _______ _____ _____    ______ ____
ROOT
ATOM      1  C   UNL     1       1.858   6.389  20.250  0.00  0.00    +0.000 C 
ENDROOT
BRANCH   1   2
ATOM      2  N   UNL     1       2.926   5.987  19.083  0.00  0.00    +0.000 N 
ATOM      3  C   UNL     1       2.448   4.811  18.496  0.00  0.00    +0.000 A 
ATOM      4  C   UNL     1       3.696   4.283  18.369  0.00  0.00    +0.000 A 
ATOM      5  C   UNL     1       4.151   5.184  17.436  0.00  0.00    +0.000 A 
ATOM      6  C   UNL     1       4.965   4.709  16.337  0.00  0.00    +0.000 A 
ATOM      7  C   UNL     1       5.623   5.408  15.390  0.00  0.00    +0.000 A 
ATOM      8  C   UNL     1       5.394   6.740  15.612  0.00  0.00    +0.000 A 
ATOM      9  C   UNL     1       4.560   7.239  16.831  0.00  0.00    +0.000 A 
ATOM     10  C   UNL     1       3.732   6.644  17.967  0.00  0.00    +0.000 A 
BRANCH   7  11
ATOM     11  C   UNL     1       6.392   4.609  14.342  0.00  0.00    +0.000 C 
ATOM     12  O   UNL     1       7.251   5.080  13.613  0.00  0.00    +0.000 OA
BRANCH  11  13
ATOM     13  O   UNL     1       6.043   3.293  14.208  0.00  0.00    +0.000 OA
ATOM     14  H   UNL     1       6.589   2.599  14.627  0.00  0.00    +0.000 HD
ENDBRANCH  11  13
ENDBRANCH   7  11
BRANCH   4  15
ATOM     15  C   UNL     1       4.641   3.547  19.168  0.00  0.00    +0.000 C 
ATOM     16  O   UNL     1       5.687   4.074  19.550  0.00  0.00    +0.000 OA
BRANCH  15  17
ATOM     17  C   UNL     1       4.182   2.218  19.690  0.00  0.00    +0.000 C 
ATOM     18  C   UNL     1       3.162   2.458  20.785  0.00  0.00    +0.000 C 
ATOM     19  C   UNL     1       3.587   1.420  18.538  0.00  0.00    +0.000 C 
ENDBRANCH  15  17
ENDBRANCH   4  15
ENDBRANCH   1   2
BRANCH   1  20
ATOM     20  C   UNL     1       1.176   8.013  20.419  0.00  0.00    +0.000 C 
ATOM     21  O   UNL     1       0.482   8.260  21.423  0.00  0.00    +0.000 OA
BRANCH  20  22
ATOM     22  C   UNL     1       1.302   9.246  19.320  0.00  0.00    +0.000 C 
BRANCH  22  23
ATOM     23  O   UNL     1       0.686  10.593  19.523  0.00  0.00    +0.000 OA
BRANCH  23  27
ATOM     24  C   UNL     1       2.790  14.348  19.292  0.00  0.00    +0.000 A 
ATOM     25  C   UNL     1       2.844  13.415  18.252  0.00  0.00    +0.000 A 
ATOM     26  C   UNL     1       2.140  12.173  18.343  0.00  0.00    +0.000 A 
ATOM     27  C   UNL     1       1.404  11.789  19.500  0.00  0.00    +0.000 A 
ATOM     28  C   UNL     1       1.399  12.716  20.536  0.00  0.00    +0.000 A 
ATOM     29  C   UNL     1       2.075  13.966  20.436  0.00  0.00    +0.000 A 
BRANCH  24  30
ATOM     30  C   UNL     1       3.362  15.756  19.161  0.00  0.00    +0.000 C 
BRANCH  30  31
ATOM     31  C   UNL     1       4.370  16.025  20.289  0.00  0.00    +0.000 C 
BRANCH  31  32
ATOM     32  C   UNL     1       5.829  15.916  19.847  0.00  0.00    +0.000 C 
BRANCH  32  33
ATOM     33  C   UNL     1       5.912  15.750  18.327  0.00  0.00    +0.000 C 
BRANCH  33  34
ATOM     34  C   UNL     1       6.745  14.527  17.952  0.00  0.00    +0.000 C 
BRANCH  34  35
ATOM     35  C   UNL     1       7.855  14.286  18.972  0.00  0.00    +0.000 C 
BRANCH  35  37
ATOM     36  C   UNL     1       8.840  12.249  17.886  0.00  0.00    +0.000 C 
ATOM     37  C   UNL     1       9.091  13.688  18.303  0.00  0.00    +0.000 C 
ENDBRANCH  35  37
ENDBRANCH  34  35
ENDBRANCH  33  34
ENDBRANCH  32  33
ENDBRANCH  31  32
ENDBRANCH  30  31
ENDBRANCH  24  30
ENDBRANCH  23  27
ENDBRANCH  22  23
ENDBRANCH  20  22
ENDBRANCH   1  20
TORSDOF 16
ENDMDL
MODEL 5
REMARK VINA RESULT:      -6.9      4.238     11.410
REMARK  Name = 
REMARK  19 active torsions:
REMARK  status: ('A' for Active; 'I' for Inactive)
REMARK    1  A    between atoms: C_1  and  C_2
REMARK    2  A    between atoms: C_2  and  C_3
REMARK    3  A    between atoms: C_3  and  C_4
REMARK    4  A    between atoms: C_4  and  C_5
REMARK    5  A    between atoms: C_5  and  C_6
REMARK    6  A    between atoms: C_6  and  C_7
REMARK    7  A    between atoms: C_7  and  C_8
REMARK    8  A    between atoms: C_8  and  C_9
REMARK    9  A    between atoms: C_12  and  O_13
REMARK   10  A    between atoms: O_13  and  C_14
REMARK   11  A    between atoms: C_14  and  C_15
REMARK   12  A    between atoms: C_15  and  C_17
REMARK   13  A    between atoms: C_17  and  N_18
REMARK   14  A    between atoms: C_20  and  C_21
REMARK   15  A    between atoms: C_21  and  C_23
REMARK   16  A    between atoms: C_23  and  C_24
REMARK   17  A    between atoms: C_23  and  C_25
REMARK   18  A    between atoms: C_28  and  C_29
REMARK   19  A    between atoms: C_29  and  O_31
REMARK                            x       y       z     vdW  Elec       q    Type
REMARK                         _______ _______ _______ _____ _____    ______ ____
ROOT
ATOM      1  C   UNL     1       2.329   8.289  18.167  0.00  0.00    +0.000 C 
ENDROOT
BRANCH   1   2
ATOM      2  N   UNL     1       1.505   9.150  19.282  0.00  0.00    +0.000 N 
ATOM      3  C   UNL     1       0.487   9.818  18.594  0.00  0.00    +0.000 A 
ATOM      4  C   UNL     1       0.624  10.947  19.342  0.00  0.00    +0.000 A 
ATOM      5  C   UNL     1       0.184  10.402  20.525  0.00  0.00    +0.000 A 
ATOM      6  C   UNL     1      -0.681  11.186  21.381  0.00  0.00    +0.000 A 
ATOM      7  C   UNL     1      -1.126  10.922  22.627  0.00  0.00    +0.000 A 
ATOM      8  C   UNL     1      -0.621   9.707  23.007  0.00  0.00    +0.000 A 
ATOM      9  C   UNL     1       0.353   8.900  22.097  0.00  0.00    +0.000 A 
ATOM     10  C   UNL     1       0.943   8.994  20.692  0.00  0.00    +0.000 A 
BRANCH   7  11
ATOM     11  C   UNL     1      -2.051  11.951  23.269  0.00  0.00    +0.000 C 
ATOM     12  O   UNL     1      -3.208  11.728  23.591  0.00  0.00    +0.000 OA
BRANCH  11  13
ATOM     13  O   UNL     1      -1.534  13.206  23.443  0.00  0.00    +0.000 OA
ATOM     14  H   UNL     1      -2.041  13.877  23.939  0.00  0.00    +0.000 HD
ENDBRANCH  11  13
ENDBRANCH   7  11
BRANCH   4  15
ATOM     15  C   UNL     1       1.441  12.132  19.364  0.00  0.00    +0.000 C 
ATOM     16  O   UNL     1       2.403  12.220  20.129  0.00  0.00    +0.000 OA
BRANCH  15  17
ATOM     17  C   UNL     1       1.202  13.128  18.268  0.00  0.00    +0.000 C 
ATOM     18  C   UNL     1      -0.035  13.934  18.611  0.00  0.00    +0.000 C 
ATOM     19  C   UNL     1       2.431  14.018  18.141  0.00  0.00    +0.000 C 
ENDBRANCH  15  17
ENDBRANCH   4  15
ENDBRANCH   1   2
BRANCH   1  20
ATOM     20  C   UNL     1       2.924   6.647  18.460  0.00  0.00    +0.000 C 
ATOM     21  O   UNL     1       2.726   6.139  19.579  0.00  0.00    +0.000 OA
BRANCH  20  22
ATOM     22  C   UNL     1       3.804   5.724  17.405  0.00  0.00    +0.000 C 
BRANCH  22  23
ATOM     23  O   UNL     1       5.242   5.376  17.620  0.00  0.00    +0.000 OA
BRANCH  23  27
ATOM     24  C   UNL     1       8.213   8.408  18.367  0.00  0.00    +0.000 A 
ATOM     25  C   UNL     1       7.125   8.645  17.520  0.00  0.00    +0.000 A 
ATOM     26  C   UNL     1       6.147   7.628  17.283  0.00  0.00    +0.000 A 
ATOM     27  C   UNL     1       6.249   6.318  17.834  0.00  0.00    +0.000 A 
ATOM     28  C   UNL     1       7.361   6.097  18.639  0.00  0.00    +0.000 A 
ATOM     29  C   UNL     1       8.320   7.116  18.900  0.00  0.00    +0.000 A 
BRANCH  24  30
ATOM     30  C   UNL     1       9.170   9.516  18.800  0.00  0.00    +0.000 C 
BRANCH  30  31
ATOM     31  C   UNL     1       9.121  10.679  17.797  0.00  0.00    +0.000 C 
BRANCH  31  32
ATOM     32  C   UNL     1       9.952  11.889  18.219  0.00  0.00    +0.000 C 
BRANCH  32  33
ATOM     33  C   UNL     1      11.226  11.434  18.937  0.00  0.00    +0.000 C 
BRANCH  33  34
ATOM     34  C   UNL     1      11.290  11.998  20.354  0.00  0.00    +0.000 C 
BRANCH  34  35
ATOM     35  C   UNL     1      10.915  13.477  20.373  0.00  0.00    +0.000 C 
BRANCH  35  37
ATOM     36  C   UNL     1       9.291  12.446  21.985  0.00  0.00    +0.000 C 
ATOM     37  C   UNL     1       9.787  13.742  21.367  0.00  0.00    +0.000 C 
ENDBRANCH  35  37
ENDBRANCH  34  35
ENDBRANCH  33  34
ENDBRANCH  32  33
ENDBRANCH  31  32
ENDBRANCH  30  31
ENDBRANCH  24  30
ENDBRANCH  23  27
ENDBRANCH  22  23
ENDBRANCH  20  22
ENDBRANCH   1  20
TORSDOF 16
ENDMDL
MODEL 6
REMARK VINA RESULT:      -6.8      3.211     12.016
REMARK  Name = 
REMARK  19 active torsions:
REMARK  status: ('A' for Active; 'I' for Inactive)
REMARK    1  A    between atoms: C_1  and  C_2
REMARK    2  A    between atoms: C_2  and  C_3
REMARK    3  A    between atoms: C_3  and  C_4
REMARK    4  A    between atoms: C_4  and  C_5
REMARK    5  A    between atoms: C_5  and  C_6
REMARK    6  A    between atoms: C_6  and  C_7
REMARK    7  A    between atoms: C_7  and  C_8
REMARK    8  A    between atoms: C_8  and  C_9
REMARK    9  A    between atoms: C_12  and  O_13
REMARK   10  A    between atoms: O_13  and  C_14
REMARK   11  A    between atoms: C_14  and  C_15
REMARK   12  A    between atoms: C_15  and  C_17
REMARK   13  A    between atoms: C_17  and  N_18
REMARK   14  A    between atoms: C_20  and  C_21
REMARK   15  A    between atoms: C_21  and  C_23
REMARK   16  A    between atoms: C_23  and  C_24
REMARK   17  A    between atoms: C_23  and  C_25
REMARK   18  A    between atoms: C_28  and  C_29
REMARK   19  A    between atoms: C_29  and  O_31
REMARK                            x       y       z     vdW  Elec       q    Type
REMARK                         _______ _______ _______ _____ _____    ______ ____
ROOT
ATOM      1  C   UNL     1       0.421  10.382  21.983  0.00  0.00    +0.000 C 
ENDROOT
BRANCH   1   2
ATOM      2  N   UNL     1      -0.789  11.457  21.774  0.00  0.00    +0.000 N 
ATOM      3  C   UNL     1      -1.153  11.387  20.424  0.00  0.00    +0.000 A 
ATOM      4  C   UNL     1      -1.341  12.732  20.332  0.00  0.00    +0.000 A 
ATOM      5  C   UNL     1      -2.433  12.792  21.164  0.00  0.00    +0.000 A 
ATOM      6  C   UNL     1      -3.538  13.659  20.813  0.00  0.00    +0.000 A 
ATOM      7  C   UNL     1      -4.639  13.980  21.524  0.00  0.00    +0.000 A 
ATOM      8  C   UNL     1      -4.579  13.314  22.719  0.00  0.00    +0.000 A 
ATOM      9  C   UNL     1      -3.357  12.427  23.106  0.00  0.00    +0.000 A 
ATOM     10  C   UNL     1      -2.066  11.922  22.466  0.00  0.00    +0.000 A 
BRANCH   7  11
ATOM     11  C   UNL     1      -5.644  14.920  20.866  0.00  0.00    +0.000 C 
ATOM     12  O   UNL     1      -6.058  14.793  19.724  0.00  0.00    +0.000 OA
BRANCH  11  13
ATOM     13  O   UNL     1      -6.055  15.988  21.616  0.00  0.00    +0.000 OA
ATOM     14  H   UNL     1      -6.105  16.876  21.212  0.00  0.00    +0.000 HD
ENDBRANCH  11  13
ENDBRANCH   7  11
BRANCH   4  15
ATOM     15  C   UNL     1      -0.556  13.916  20.100  0.00  0.00    +0.000 C 
ATOM     16  O   UNL     1      -0.240  14.247  18.955  0.00  0.00    +0.000 OA
BRANCH  15  17
ATOM     17  C   UNL     1      -0.355  14.826  21.276  0.00  0.00    +0.000 C 
ATOM     18  C   UNL     1       1.089  14.719  21.724  0.00  0.00    +0.000 C 
ATOM     19  C   UNL     1      -0.706  16.247  20.858  0.00  0.00    +0.000 C 
ENDBRANCH  15  17
ENDBRANCH   4  15
ENDBRANCH   1   2
BRANCH   1  20
ATOM     20  C   UNL     1       0.301   8.685  21.494  0.00  0.00    +0.000 C 
ATOM     21  O   UNL     1      -0.741   8.063  21.775  0.00  0.00    +0.000 OA
BRANCH  20  22
ATOM     22  C   UNL     1       1.485   7.794  20.756  0.00  0.00    +0.000 C 
BRANCH  22  23
ATOM     23  O   UNL     1       1.976   8.069  19.371  0.00  0.00    +0.000 OA
BRANCH  23  27
ATOM     24  C   UNL     1       4.357   5.323  17.054  0.00  0.00    +0.000 A 
ATOM     25  C   UNL     1       4.357   6.695  16.786  0.00  0.00    +0.000 A 
ATOM     26  C   UNL     1       3.561   7.594  17.564  0.00  0.00    +0.000 A 
ATOM     27  C   UNL     1       2.691   7.151  18.600  0.00  0.00    +0.000 A 
ATOM     28  C   UNL     1       2.679   5.779  18.821  0.00  0.00    +0.000 A 
ATOM     29  C   UNL     1       3.492   4.885  18.066  0.00  0.00    +0.000 A 
BRANCH  24  30
ATOM     30  C   UNL     1       5.329   4.357  16.382  0.00  0.00    +0.000 C 
BRANCH  30  31
ATOM     31  C   UNL     1       6.751   4.938  16.403  0.00  0.00    +0.000 C 
BRANCH  31  32
ATOM     32  C   UNL     1       7.548   4.569  17.654  0.00  0.00    +0.000 C 
BRANCH  32  33
ATOM     33  C   UNL     1       7.666   5.780  18.584  0.00  0.00    +0.000 C 
BRANCH  33  34
ATOM     34  C   UNL     1       7.648   7.085  17.793  0.00  0.00    +0.000 C 
BRANCH  34  35
ATOM     35  C   UNL     1       8.410   8.183  18.529  0.00  0.00    +0.000 C 
BRANCH  35  37
ATOM     36  C   UNL     1       9.165  10.573  18.395  0.00  0.00    +0.000 C 
ATOM     37  C   UNL     1       8.179   9.542  17.872  0.00  0.00    +0.000 C 
ENDBRANCH  35  37
ENDBRANCH  34  35
ENDBRANCH  33  34
ENDBRANCH  32  33
ENDBRANCH  31  32
ENDBRANCH  30  31
ENDBRANCH  24  30
ENDBRANCH  23  27
ENDBRANCH  22  23
ENDBRANCH  20  22
ENDBRANCH   1  20
TORSDOF 16
ENDMDL
MODEL 7
REMARK VINA RESULT:      -6.8      4.010     11.274
REMARK  Name = 
REMARK  19 active torsions:
REMARK  status: ('A' for Active; 'I' for Inactive)
REMARK    1  A    between atoms: C_1  and  C_2
REMARK    2  A    between atoms: C_2  and  C_3
REMARK    3  A    between atoms: C_3  and  C_4
REMARK    4  A    between atoms: C_4  and  C_5
REMARK    5  A    between atoms: C_5  and  C_6
REMARK    6  A    between atoms: C_6  and  C_7
REMARK    7  A    between atoms: C_7  and  C_8
REMARK    8  A    between atoms: C_8  and  C_9
REMARK    9  A    between atoms: C_12  and  O_13
REMARK   10  A    between atoms: O_13  and  C_14
REMARK   11  A    between atoms: C_14  and  C_15
REMARK   12  A    between atoms: C_15  and  C_17
REMARK   13  A    between atoms: C_17  and  N_18
REMARK   14  A    between atoms: C_20  and  C_21
REMARK   15  A    between atoms: C_21  and  C_23
REMARK   16  A    between atoms: C_23  and  C_24
REMARK   17  A    between atoms: C_23  and  C_25
REMARK   18  A    between atoms: C_28  and  C_29
REMARK   19  A    between atoms: C_29  and  O_31
REMARK                            x       y       z     vdW  Elec       q    Type
REMARK                         _______ _______ _______ _____ _____    ______ ____
ROOT
ATOM      1  C   UNL     1       2.565   7.498  18.017  0.00  0.00    +0.000 C 
ENDROOT
BRANCH   1   2
ATOM      2  N   UNL     1       1.825   8.514  19.058  0.00  0.00    +0.000 N 
ATOM      3  C   UNL     1       0.747   9.076  18.365  0.00  0.00    +0.000 A 
ATOM      4  C   UNL     1       0.933  10.301  18.927  0.00  0.00    +0.000 A 
ATOM      5  C   UNL     1       0.596   9.936  20.209  0.00  0.00    +0.000 A 
ATOM      6  C   UNL     1      -0.205  10.838  21.009  0.00  0.00    +0.000 A 
ATOM      7  C   UNL     1      -0.545  10.760  22.312  0.00  0.00    +0.000 A 
ATOM      8  C   UNL     1       0.003   9.613  22.823  0.00  0.00    +0.000 A 
ATOM      9  C   UNL     1       0.908   8.680  21.963  0.00  0.00    +0.000 A 
ATOM     10  C   UNL     1       1.381   8.566  20.516  0.00  0.00    +0.000 A 
BRANCH   7  11
ATOM     11  C   UNL     1      -1.426  11.872  22.871  0.00  0.00    +0.000 C 
ATOM     12  O   UNL     1      -2.443  11.683  23.519  0.00  0.00    +0.000 OA
BRANCH  11  13
ATOM     13  O   UNL     1      -1.046  13.153  22.573  0.00  0.00    +0.000 OA
ATOM     14  H   UNL     1      -0.101  13.397  22.593  0.00  0.00    +0.000 HD
ENDBRANCH  11  13
ENDBRANCH   7  11
BRANCH   4  15
ATOM     15  C   UNL     1       1.736  11.476  18.709  0.00  0.00    +0.000 C 
ATOM     16  O   UNL     1       2.576  11.506  17.808  0.00  0.00    +0.000 OA
BRANCH  15  17
ATOM     17  C   UNL     1       1.335  12.709  19.465  0.00  0.00    +0.000 C 
ATOM     18  C   UNL     1       2.590  13.473  19.837  0.00  0.00    +0.000 C 
ATOM     19  C   UNL     1       0.414  13.542  18.586  0.00  0.00    +0.000 C 
ENDBRANCH  15  17
ENDBRANCH   4  15
ENDBRANCH   1   2
BRANCH   1  20
ATOM     20  C   UNL     1       2.547   5.738  18.206  0.00  0.00    +0.000 C 
ATOM     21  O   UNL     1       1.688   5.235  18.954  0.00  0.00    +0.000 OA
BRANCH  20  22
ATOM     22  C   UNL     1       3.623   4.672  17.540  0.00  0.00    +0.000 C 
BRANCH  22  23
ATOM     23  O   UNL     1       5.014   4.480  18.053  0.00  0.00    +0.000 OA
BRANCH  23  27
ATOM     24  C   UNL     1       7.939   7.642  17.906  0.00  0.00    +0.000 A 
ATOM     25  C   UNL     1       6.925   7.540  16.949  0.00  0.00    +0.000 A 
ATOM     26  C   UNL     1       5.961   6.485  17.011  0.00  0.00    +0.000 A 
ATOM     27  C   UNL     1       6.008   5.458  17.997  0.00  0.00    +0.000 A 
ATOM     28  C   UNL     1       7.049   5.559  18.912  0.00  0.00    +0.000 A 
ATOM     29  C   UNL     1       7.993   6.625  18.869  0.00  0.00    +0.000 A 
BRANCH  24  30
ATOM     30  C   UNL     1       8.867   8.851  17.992  0.00  0.00    +0.000 C 
BRANCH  30  31
ATOM     31  C   UNL     1       8.046  10.133  18.203  0.00  0.00    +0.000 C 
BRANCH  31  32
ATOM     32  C   UNL     1       8.900  11.373  18.464  0.00  0.00    +0.000 C 
BRANCH  32  33
ATOM     33  C   UNL     1      10.082  11.022  19.372  0.00  0.00    +0.000 C 
BRANCH  33  34
ATOM     34  C   UNL     1      11.344  11.764  18.943  0.00  0.00    +0.000 C 
BRANCH  34  35
ATOM     35  C   UNL     1      11.288  12.133  17.463  0.00  0.00    +0.000 C 
BRANCH  35  37
ATOM     36  C   UNL     1      11.768  14.591  17.307  0.00  0.00    +0.000 C 
ATOM     37  C   UNL     1      12.333  13.193  17.124  0.00  0.00    +0.000 C 
ENDBRANCH  35  37
ENDBRANCH  34  35
ENDBRANCH  33  34
ENDBRANCH  32  33
ENDBRANCH  31  32
ENDBRANCH  30  31
ENDBRANCH  24  30
ENDBRANCH  23  27
ENDBRANCH  22  23
ENDBRANCH  20  22
ENDBRANCH   1  20
TORSDOF 16
ENDMDL
MODEL 8
REMARK VINA RESULT:      -6.8      1.769      3.709
REMARK  Name = 
REMARK  19 active torsions:
REMARK  status: ('A' for Active; 'I' for Inactive)
REMARK    1  A    between atoms: C_1  and  C_2
REMARK    2  A    between atoms: C_2  and  C_3
REMARK    3  A    between atoms: C_3  and  C_4
REMARK    4  A    between atoms: C_4  and  C_5
REMARK    5  A    between atoms: C_5  and  C_6
REMARK    6  A    between atoms: C_6  and  C_7
REMARK    7  A    between atoms: C_7  and  C_8
REMARK    8  A    between atoms: C_8  and  C_9
REMARK    9  A    between atoms: C_12  and  O_13
REMARK   10  A    between atoms: O_13  and  C_14
REMARK   11  A    between atoms: C_14  and  C_15
REMARK   12  A    between atoms: C_15  and  C_17
REMARK   13  A    between atoms: C_17  and  N_18
REMARK   14  A    between atoms: C_20  and  C_21
REMARK   15  A    between atoms: C_21  and  C_23
REMARK   16  A    between atoms: C_23  and  C_24
REMARK   17  A    between atoms: C_23  and  C_25
REMARK   18  A    between atoms: C_28  and  C_29
REMARK   19  A    between atoms: C_29  and  O_31
REMARK                            x       y       z     vdW  Elec       q    Type
REMARK                         _______ _______ _______ _____ _____    ______ ____
ROOT
ATOM      1  C   UNL     1       2.213   8.850  17.685  0.00  0.00    +0.000 C 
ENDROOT
BRANCH   1   2
ATOM      2  N   UNL     1       2.676   7.290  17.814  0.00  0.00    +0.000 N 
ATOM      3  C   UNL     1       3.756   7.270  18.703  0.00  0.00    +0.000 A 
ATOM      4  C   UNL     1       4.419   6.321  17.986  0.00  0.00    +0.000 A 
ATOM      5  C   UNL     1       3.530   5.300  18.223  0.00  0.00    +0.000 A 
ATOM      6  C   UNL     1       4.039   3.971  18.489  0.00  0.00    +0.000 A 
ATOM      7  C   UNL     1       3.374   2.805  18.618  0.00  0.00    +0.000 A 
ATOM      8  C   UNL     1       2.038   3.062  18.462  0.00  0.00    +0.000 A 
ATOM      9  C   UNL     1       1.509   4.487  18.121  0.00  0.00    +0.000 A 
ATOM     10  C   UNL     1       2.061   5.902  17.964  0.00  0.00    +0.000 A 
BRANCH   7  11
ATOM     11  C   UNL     1       4.202   1.560  18.919  0.00  0.00    +0.000 C 
ATOM     12  O   UNL     1       4.122   0.514  18.294  0.00  0.00    +0.000 OA
BRANCH  11  13
ATOM     13  O   UNL     1       5.049   1.640  19.991  0.00  0.00    +0.000 OA
ATOM     14  H   UNL     1       6.012   1.558  19.858  0.00  0.00    +0.000 HD
ENDBRANCH  11  13
ENDBRANCH   7  11
BRANCH   4  15
ATOM     15  C   UNL     1       5.301   6.249  16.850  0.00  0.00    +0.000 C 
ATOM     16  O   UNL     1       4.969   6.728  15.764  0.00  0.00    +0.000 OA
BRANCH  15  17
ATOM     17  C   UNL     1       6.701   5.784  17.121  0.00  0.00    +0.000 C 
ATOM     18  C   UNL     1       7.227   5.095  15.877  0.00  0.00    +0.000 C 
ATOM     19  C   UNL     1       7.552   6.990  17.493  0.00  0.00    +0.000 C 
ENDBRANCH  15  17
ENDBRANCH   4  15
ENDBRANCH   1   2
BRANCH   1  20
ATOM     20  C   UNL     1       0.894   9.549  18.636  0.00  0.00    +0.000 C 
ATOM     21  O   UNL     1       0.025  10.212  18.040  0.00  0.00    +0.000 OA
BRANCH  20  22
ATOM     22  C   UNL     1       0.732   9.478  20.282  0.00  0.00    +0.000 C 
BRANCH  22  23
ATOM     23  O   UNL     1       0.708  10.690  21.158  0.00  0.00    +0.000 OA
BRANCH  23  27
ATOM     24  C   UNL     1      -3.009  12.471  22.419  0.00  0.00    +0.000 A 
ATOM     25  C   UNL     1      -2.505  12.669  21.130  0.00  0.00    +0.000 A 
ATOM     26  C   UNL     1      -1.270  12.071  20.726  0.00  0.00    +0.000 A 
ATOM     27  C   UNL     1      -0.462  11.301  21.611  0.00  0.00    +0.000 A 
ATOM     28  C   UNL     1      -0.965  11.153  22.899  0.00  0.00    +0.000 A 
ATOM     29  C   UNL     1      -2.209  11.724  23.294  0.00  0.00    +0.000 A 
BRANCH  24  30
ATOM     30  C   UNL     1      -4.406  12.925  22.831  0.00  0.00    +0.000 C 
BRANCH  30  31
ATOM     31  C   UNL     1      -5.206  13.364  21.594  0.00  0.00    +0.000 C 
BRANCH  31  32
ATOM     32  C   UNL     1      -6.600  12.745  21.513  0.00  0.00    +0.000 C 
BRANCH  32  33
ATOM     33  C   UNL     1      -6.694  11.806  20.307  0.00  0.00    +0.000 C 
BRANCH  33  34
ATOM     34  C   UNL     1      -5.503  11.992  19.371  0.00  0.00    +0.000 C 
BRANCH  34  35
ATOM     35  C   UNL     1      -5.916  12.720  18.095  0.00  0.00    +0.000 C 
BRANCH  35  37
ATOM     36  C   UNL     1      -7.890  14.092  17.373  0.00  0.00    +0.000 C 
ATOM     37  C   UNL     1      -7.436  12.766  17.960  0.00  0.00    +0.000 C 
ENDBRANCH  35  37
ENDBRANCH  34  35
ENDBRANCH  33  34
ENDBRANCH  32  33
ENDBRANCH  31  32
ENDBRANCH  30  31
ENDBRANCH  24  30
ENDBRANCH  23  27
ENDBRANCH  22  23
ENDBRANCH  20  22
ENDBRANCH   1  20
TORSDOF 16
ENDMDL
MODEL 9
REMARK VINA RESULT:      -6.7      1.635      3.523
REMARK  Name = 
REMARK  19 active torsions:
REMARK  status: ('A' for Active; 'I' for Inactive)
REMARK    1  A    between atoms: C_1  and  C_2
REMARK    2  A    between atoms: C_2  and  C_3
REMARK    3  A    between atoms: C_3  and  C_4
REMARK    4  A    between atoms: C_4  and  C_5
REMARK    5  A    between atoms: C_5  and  C_6
REMARK    6  A    between atoms: C_6  and  C_7
REMARK    7  A    between atoms: C_7  and  C_8
REMARK    8  A    between atoms: C_8  and  C_9
REMARK    9  A    between atoms: C_12  and  O_13
REMARK   10  A    between atoms: O_13  and  C_14
REMARK   11  A    between atoms: C_14  and  C_15
REMARK   12  A    between atoms: C_15  and  C_17
REMARK   13  A    between atoms: C_17  and  N_18
REMARK   14  A    between atoms: C_20  and  C_21
REMARK   15  A    between atoms: C_21  and  C_23
REMARK   16  A    between atoms: C_23  and  C_24
REMARK   17  A    between atoms: C_23  and  C_25
REMARK   18  A    between atoms: C_28  and  C_29
REMARK   19  A    between atoms: C_29  and  O_31
REMARK                            x       y       z     vdW  Elec       q    Type
REMARK                         _______ _______ _______ _____ _____    ______ ____
ROOT
ATOM      1  C   UNL     1       2.602   8.753  17.418  0.00  0.00    +0.000 C 
ENDROOT
BRANCH   1   2
ATOM      2  N   UNL     1       3.021   7.209  17.741  0.00  0.00    +0.000 N 
ATOM      3  C   UNL     1       4.184   7.268  18.518  0.00  0.00    +0.000 A 
ATOM      4  C   UNL     1       4.738   6.192  17.896  0.00  0.00    +0.000 A 
ATOM      5  C   UNL     1       3.843   5.262  18.368  0.00  0.00    +0.000 A 
ATOM      6  C   UNL     1       4.330   3.965  18.787  0.00  0.00    +0.000 A 
ATOM      7  C   UNL     1       3.641   2.865  19.155  0.00  0.00    +0.000 A 
ATOM      8  C   UNL     1       2.306   3.161  19.086  0.00  0.00    +0.000 A 
ATOM      9  C   UNL     1       1.795   4.544  18.582  0.00  0.00    +0.000 A 
ATOM     10  C   UNL     1       2.377   5.891  18.159  0.00  0.00    +0.000 A 
BRANCH   7  11
ATOM     11  C   UNL     1       4.452   1.640  19.564  0.00  0.00    +0.000 C 
ATOM     12  O   UNL     1       5.113   1.564  20.588  0.00  0.00    +0.000 OA
BRANCH  11  13
ATOM     13  O   UNL     1       4.450   0.591  18.685  0.00  0.00    +0.000 OA
ATOM     14  H   UNL     1       4.071  -0.268  18.953  0.00  0.00    +0.000 HD
ENDBRANCH  11  13
ENDBRANCH   7  11
BRANCH   4  15
ATOM     15  C   UNL     1       5.500   5.908  16.708  0.00  0.00    +0.000 C 
ATOM     16  O   UNL     1       4.946   5.826  15.610  0.00  0.00    +0.000 OA
BRANCH  15  17
ATOM     17  C   UNL     1       6.993   5.953  16.845  0.00  0.00    +0.000 C 
ATOM     18  C   UNL     1       7.360   7.128  17.728  0.00  0.00    +0.000 C 
ATOM     19  C   UNL     1       7.467   4.635  17.444  0.00  0.00    +0.000 C 
ENDBRANCH  15  17
ENDBRANCH   4  15
ENDBRANCH   1   2
BRANCH   1  20
ATOM     20  C   UNL     1       1.673   9.758  18.541  0.00  0.00    +0.000 C 
ATOM     21  O   UNL     1       1.773  10.995  18.445  0.00  0.00    +0.000 OA
BRANCH  20  22
ATOM     22  C   UNL     1       0.723   9.214  19.782  0.00  0.00    +0.000 C 
BRANCH  22  23
ATOM     23  O   UNL     1       0.574   9.940  21.081  0.00  0.00    +0.000 OA
BRANCH  23  27
ATOM     24  C   UNL     1      -2.608  12.768  21.754  0.00  0.00    +0.000 A 
ATOM     25  C   UNL     1      -2.140  12.489  20.466  0.00  0.00    +0.000 A 
ATOM     26  C   UNL     1      -1.083  11.547  20.259  0.00  0.00    +0.000 A 
ATOM     27  C   UNL     1      -0.414  10.893  21.333  0.00  0.00    +0.000 A 
ATOM     28  C   UNL     1      -0.870  11.219  22.605  0.00  0.00    +0.000 A 
ATOM     29  C   UNL     1      -1.942  12.134  22.812  0.00  0.00    +0.000 A 
BRANCH  24  30
ATOM     30  C   UNL     1      -3.853  13.614  22.007  0.00  0.00    +0.000 C 
BRANCH  30  31
ATOM     31  C   UNL     1      -5.016  12.718  22.461  0.00  0.00    +0.000 C 
BRANCH  31  32
ATOM     32  C   UNL     1      -6.395  13.305  22.163  0.00  0.00    +0.000 C 
BRANCH  32  33
ATOM     33  C   UNL     1      -6.775  13.052  20.701  0.00  0.00    +0.000 C 
BRANCH  33  34
ATOM     34  C   UNL     1      -6.369  11.648  20.263  0.00  0.00    +0.000 C 
BRANCH  34  35
ATOM     35  C   UNL     1      -7.006  11.284  18.925  0.00  0.00    +0.000 C 
BRANCH  35  37
ATOM     36  C   UNL     1      -4.655  11.190  18.051  0.00  0.00    +0.000 C 
ATOM     37  C   UNL     1      -6.079  11.637  17.764  0.00  0.00    +0.000 C 
ENDBRANCH  35  37
ENDBRANCH  34  35
ENDBRANCH  33  34
ENDBRANCH  32  33
ENDBRANCH  31  32
ENDBRANCH  30  31
ENDBRANCH  24  30
ENDBRANCH  23  27
ENDBRANCH  22  23
ENDBRANCH  20  22
ENDBRANCH   1  20
TORSDOF 16
ENDMDL
