MODEL 1
REMARK VINA RESULT:      -7.2      0.000      0.000
REMARK  Name = 
REMARK  5 active torsions:
REMARK  status: ('A' for Active; 'I' for Inactive)
REMARK    1  A    between atoms: C_1  and  C_2
REMARK    2  A    between atoms: C_7  and  N_8
REMARK    3  A    between atoms: N_12  and  C_13
REMARK    4  A    between atoms: N_12  and  C_14
REMARK    5  A    between atoms: C_19  and  C_20
REMARK                            x       y       z     vdW  Elec       q    Type
REMARK                         _______ _______ _______ _____ _____    ______ ____
ROOT
ATOM      1  N   UNL     1       9.155  11.042  21.219  0.00  0.00    +0.000 N 
ATOM      2  C   UNL     1       8.585  11.878  22.199  0.00  0.00    +0.000 A 
ATOM      3  N   UNL     1       8.377  13.176  21.940  0.00  0.00    +0.000 NA
ATOM      4  C   UNL     1       7.529  13.888  22.712  0.00  0.00    +0.000 A 
ATOM      5  N   UNL     1       7.256  15.239  22.328  0.00  0.00    +0.000 N 
ATOM      6  C   UNL     1       7.314  16.226  23.418  0.00  0.00    +0.000 C 
ATOM      7  C   UNL     1       6.913  13.277  23.831  0.00  0.00    +0.000 A 
ATOM      8  C   UNL     1       5.886  13.830  24.649  0.00  0.00    +0.000 A 
ATOM      9  C   UNL     1       5.465  13.204  25.819  0.00  0.00    +0.000 A 
ATOM     10  C   UNL     1       6.015  11.981  26.163  0.00  0.00    +0.000 A 
ATOM     11  C   UNL     1       6.930  11.373  25.300  0.00  0.00    +0.000 A 
ATOM     12  C   UNL     1       7.363  11.983  24.126  0.00  0.00    +0.000 A 
ATOM     13  N   UNL     1       8.162  11.283  23.316  0.00  0.00    +0.000 NA
ATOM     14  H   UNL     1       9.277  10.117  21.610  0.00  0.00    +0.000 HD
ENDROOT
BRANCH   1  21
ATOM     15  C   UNL     1       8.596  10.209  18.427  0.00  0.00    +0.000 C 
ATOM     16  C   UNL     1       9.819  10.970  18.855  0.00  0.00    +0.000 A 
ATOM     17  C   UNL     1      10.781  11.288  17.868  0.00  0.00    +0.000 A 
ATOM     18  C   UNL     1      11.925  12.002  18.186  0.00  0.00    +0.000 A 
ATOM     19  C   UNL     1      12.143  12.407  19.495  0.00  0.00    +0.000 A 
ATOM     20  C   UNL     1      11.213  12.095  20.483  0.00  0.00    +0.000 A 
ATOM     21  C   UNL     1      10.042  11.375  20.192  0.00  0.00    +0.000 A 
ENDBRANCH   1  21
BRANCH   5  22
ATOM     22  C   UNL     1       7.408  15.776  21.006  0.00  0.00    +0.000 A 
ATOM     23  C   UNL     1       8.575  16.492  20.629  0.00  0.00    +0.000 A 
ATOM     24  C   UNL     1       8.766  17.022  19.349  0.00  0.00    +0.000 A 
ATOM     25  C   UNL     1       7.795  16.850  18.381  0.00  0.00    +0.000 A 
ATOM     26  C   UNL     1       6.625  16.176  18.711  0.00  0.00    +0.000 A 
ATOM     27  C   UNL     1       6.400  15.666  20.011  0.00  0.00    +0.000 A 
ATOM     28  C   UNL     1       5.036  15.074  20.256  0.00  0.00    +0.000 C 
ENDBRANCH   5  22
TORSDOF 2
ENDMDL
MODEL 2
REMARK VINA RESULT:      -7.2      8.214     11.894
REMARK  Name = 
REMARK  5 active torsions:
REMARK  status: ('A' for Active; 'I' for Inactive)
REMARK    1  A    between atoms: C_1  and  C_2
REMARK    2  A    between atoms: C_7  and  N_8
REMARK    3  A    between atoms: N_12  and  C_13
REMARK    4  A    between atoms: N_12  and  C_14
REMARK    5  A    between atoms: C_19  and  C_20
REMARK                            x       y       z     vdW  Elec       q    Type
REMARK                         _______ _______ _______ _____ _____    ______ ____
ROOT
ATOM      1  N   UNL     1       2.597   8.052  17.860  0.00  0.00    +0.000 N 
ATOM      2  C   UNL     1       3.552   7.039  17.647  0.00  0.00    +0.000 A 
ATOM      3  N   UNL     1       3.545   5.936  18.407  0.00  0.00    +0.000 NA
ATOM      4  C   UNL     1       4.204   4.832  17.994  0.00  0.00    +0.000 A 
ATOM      5  N   UNL     1       4.075   3.647  18.785  0.00  0.00    +0.000 N 
ATOM      6  C   UNL     1       5.334   2.939  19.066  0.00  0.00    +0.000 C 
ATOM      7  C   UNL     1       4.953   4.866  16.793  0.00  0.00    +0.000 A 
ATOM      8  C   UNL     1       5.571   3.761  16.140  0.00  0.00    +0.000 A 
ATOM      9  C   UNL     1       6.416   3.936  15.047  0.00  0.00    +0.000 A 
ATOM     10  C   UNL     1       6.610   5.210  14.544  0.00  0.00    +0.000 A 
ATOM     11  C   UNL     1       5.907   6.282  15.100  0.00  0.00    +0.000 A 
ATOM     12  C   UNL     1       5.058   6.128  16.192  0.00  0.00    +0.000 A 
ATOM     13  N   UNL     1       4.354   7.190  16.591  0.00  0.00    +0.000 NA
ATOM     14  H   UNL     1       2.787   8.820  17.229  0.00  0.00    +0.000 HD
ENDROOT
BRANCH   1  21
ATOM     15  C   UNL     1       1.425  10.759  18.177  0.00  0.00    +0.000 C 
ATOM     16  C   UNL     1       1.398   9.695  19.239  0.00  0.00    +0.000 A 
ATOM     17  C   UNL     1       0.799  10.012  20.480  0.00  0.00    +0.000 A 
ATOM     18  C   UNL     1       0.722   9.076  21.499  0.00  0.00    +0.000 A 
ATOM     19  C   UNL     1       1.250   7.807  21.309  0.00  0.00    +0.000 A 
ATOM     20  C   UNL     1       1.853   7.478  20.098  0.00  0.00    +0.000 A 
ATOM     21  C   UNL     1       1.943   8.405  19.044  0.00  0.00    +0.000 A 
ENDBRANCH   1  21
BRANCH   5  22
ATOM     22  C   UNL     1       2.996   3.361  19.687  0.00  0.00    +0.000 A 
ATOM     23  C   UNL     1       3.240   2.977  21.032  0.00  0.00    +0.000 A 
ATOM     24  C   UNL     1       2.217   2.700  21.946  0.00  0.00    +0.000 A 
ATOM     25  C   UNL     1       0.897   2.804  21.552  0.00  0.00    +0.000 A 
ATOM     26  C   UNL     1       0.609   3.154  20.237  0.00  0.00    +0.000 A 
ATOM     27  C   UNL     1       1.632   3.401  19.292  0.00  0.00    +0.000 A 
ATOM     28  C   UNL     1       1.172   3.643  17.877  0.00  0.00    +0.000 C 
ENDBRANCH   5  22
TORSDOF 2
ENDMDL
MODEL 3
REMARK VINA RESULT:      -7.0      0.335      1.368
REMARK  Name = 
REMARK  5 active torsions:
REMARK  status: ('A' for Active; 'I' for Inactive)
REMARK    1  A    between atoms: C_1  and  C_2
REMARK    2  A    between atoms: C_7  and  N_8
REMARK    3  A    between atoms: N_12  and  C_13
REMARK    4  A    between atoms: N_12  and  C_14
REMARK    5  A    between atoms: C_19  and  C_20
REMARK                            x       y       z     vdW  Elec       q    Type
REMARK                         _______ _______ _______ _____ _____    ______ ____
ROOT
ATOM      1  N   UNL     1       9.159  11.041  21.217  0.00  0.00    +0.000 N 
ATOM      2  C   UNL     1       8.598  11.873  22.205  0.00  0.00    +0.000 A 
ATOM      3  N   UNL     1       8.416  13.178  21.963  0.00  0.00    +0.000 NA
ATOM      4  C   UNL     1       7.576  13.896  22.739  0.00  0.00    +0.000 A 
ATOM      5  N   UNL     1       7.332  15.257  22.372  0.00  0.00    +0.000 N 
ATOM      6  C   UNL     1       7.400  16.227  23.477  0.00  0.00    +0.000 C 
ATOM      7  C   UNL     1       6.940  13.280  23.845  0.00  0.00    +0.000 A 
ATOM      8  C   UNL     1       5.918  13.841  24.663  0.00  0.00    +0.000 A 
ATOM      9  C   UNL     1       5.476  13.206  25.821  0.00  0.00    +0.000 A 
ATOM     10  C   UNL     1       6.000  11.969  26.151  0.00  0.00    +0.000 A 
ATOM     11  C   UNL     1       6.910  11.356  25.286  0.00  0.00    +0.000 A 
ATOM     12  C   UNL     1       7.364  11.974  24.124  0.00  0.00    +0.000 A 
ATOM     13  N   UNL     1       8.155  11.270  23.310  0.00  0.00    +0.000 NA
ATOM     14  H   UNL     1       9.261  10.108  21.595  0.00  0.00    +0.000 HD
ENDROOT
BRANCH   1  21
ATOM     15  C   UNL     1       8.626  10.222  18.416  0.00  0.00    +0.000 C 
ATOM     16  C   UNL     1       9.850  10.973  18.861  0.00  0.00    +0.000 A 
ATOM     17  C   UNL     1      10.825  11.288  17.886  0.00  0.00    +0.000 A 
ATOM     18  C   UNL     1      11.970  11.993  18.219  0.00  0.00    +0.000 A 
ATOM     19  C   UNL     1      12.176  12.391  19.532  0.00  0.00    +0.000 A 
ATOM     20  C   UNL     1      11.233  12.082  20.508  0.00  0.00    +0.000 A 
ATOM     21  C   UNL     1      10.060  11.371  20.201  0.00  0.00    +0.000 A 
ENDBRANCH   1  21
BRANCH   5  22
ATOM     22  C   UNL     1       7.504  15.809  21.059  0.00  0.00    +0.000 A 
ATOM     23  C   UNL     1       6.433  15.848  20.128  0.00  0.00    +0.000 A 
ATOM     24  C   UNL     1       6.556  16.387  18.843  0.00  0.00    +0.000 A 
ATOM     25  C   UNL     1       7.762  16.922  18.435  0.00  0.00    +0.000 A 
ATOM     26  C   UNL     1       8.847  16.885  19.304  0.00  0.00    +0.000 A 
ATOM     27  C   UNL     1       8.749  16.310  20.593  0.00  0.00    +0.000 A 
ATOM     28  C   UNL     1      10.036  16.225  21.372  0.00  0.00    +0.000 C 
ENDBRANCH   5  22
TORSDOF 2
ENDMDL
MODEL 4
REMARK VINA RESULT:      -6.9      8.190     10.904
REMARK  Name = 
REMARK  5 active torsions:
REMARK  status: ('A' for Active; 'I' for Inactive)
REMARK    1  A    between atoms: C_1  and  C_2
REMARK    2  A    between atoms: C_7  and  N_8
REMARK    3  A    between atoms: N_12  and  C_13
REMARK    4  A    between atoms: N_12  and  C_14
REMARK    5  A    between atoms: C_19  and  C_20
REMARK                            x       y       z     vdW  Elec       q    Type
REMARK                         _______ _______ _______ _____ _____    ______ ____
ROOT
ATOM      1  N   UNL     1       4.964   6.979  17.051  0.00  0.00    +0.000 N 
ATOM      2  C   UNL     1       3.787   6.874  17.818  0.00  0.00    +0.000 A 
ATOM      3  N   UNL     1       3.400   5.684  18.299  0.00  0.00    +0.000 NA
ATOM      4  C   UNL     1       2.501   5.626  19.304  0.00  0.00    +0.000 A 
ATOM      5  N   UNL     1       2.205   4.340  19.856  0.00  0.00    +0.000 N 
ATOM      6  C   UNL     1       0.774   4.053  20.047  0.00  0.00    +0.000 C 
ATOM      7  C   UNL     1       1.922   6.819  19.802  0.00  0.00    +0.000 A 
ATOM      8  C   UNL     1       1.085   6.949  20.948  0.00  0.00    +0.000 A 
ATOM      9  C   UNL     1       0.444   8.147  21.253  0.00  0.00    +0.000 A 
ATOM     10  C   UNL     1       0.674   9.255  20.457  0.00  0.00    +0.000 A 
ATOM     11  C   UNL     1       1.592   9.168  19.407  0.00  0.00    +0.000 A 
ATOM     12  C   UNL     1       2.243   7.980  19.086  0.00  0.00    +0.000 A 
ATOM     13  N   UNL     1       3.176   8.018  18.131  0.00  0.00    +0.000 NA
ATOM     14  H   UNL     1       5.066   7.936  16.739  0.00  0.00    +0.000 HD
ENDROOT
BRANCH   1  21
ATOM     15  C   UNL     1       7.482   5.653  17.890  0.00  0.00    +0.000 C 
ATOM     16  C   UNL     1       6.778   5.389  16.588  0.00  0.00    +0.000 A 
ATOM     17  C   UNL     1       7.368   4.468  15.691  0.00  0.00    +0.000 A 
ATOM     18  C   UNL     1       6.767   4.162  14.480  0.00  0.00    +0.000 A 
ATOM     19  C   UNL     1       5.572   4.774  14.130  0.00  0.00    +0.000 A 
ATOM     20  C   UNL     1       4.981   5.691  14.995  0.00  0.00    +0.000 A 
ATOM     21  C   UNL     1       5.564   6.020  16.231  0.00  0.00    +0.000 A 
ENDBRANCH   1  21
BRANCH   5  22
ATOM     22  C   UNL     1       3.057   3.188  19.790  0.00  0.00    +0.000 A 
ATOM     23  C   UNL     1       3.942   2.861  20.851  0.00  0.00    +0.000 A 
ATOM     24  C   UNL     1       4.782   1.742  20.829  0.00  0.00    +0.000 A 
ATOM     25  C   UNL     1       4.765   0.892  19.741  0.00  0.00    +0.000 A 
ATOM     26  C   UNL     1       3.933   1.184  18.667  0.00  0.00    +0.000 A 
ATOM     27  C   UNL     1       3.105   2.331  18.657  0.00  0.00    +0.000 A 
ATOM     28  C   UNL     1       2.355   2.587  17.375  0.00  0.00    +0.000 C 
ENDBRANCH   5  22
TORSDOF 2
ENDMDL
MODEL 5
REMARK VINA RESULT:      -6.8     10.108     12.436
REMARK  Name = 
REMARK  5 active torsions:
REMARK  status: ('A' for Active; 'I' for Inactive)
REMARK    1  A    between atoms: C_1  and  C_2
REMARK    2  A    between atoms: C_7  and  N_8
REMARK    3  A    between atoms: N_12  and  C_13
REMARK    4  A    between atoms: N_12  and  C_14
REMARK    5  A    between atoms: C_19  and  C_20
REMARK                            x       y       z     vdW  Elec       q    Type
REMARK                         _______ _______ _______ _____ _____    ______ ____
ROOT
ATOM      1  N   UNL     1      -1.410  12.272  22.715  0.00  0.00    +0.000 N 
ATOM      2  C   UNL     1      -2.359  13.313  22.694  0.00  0.00    +0.000 A 
ATOM      3  N   UNL     1      -3.386  13.270  21.835  0.00  0.00    +0.000 NA
ATOM      4  C   UNL     1      -4.468  14.052  22.041  0.00  0.00    +0.000 A 
ATOM      5  N   UNL     1      -5.583  13.889  21.160  0.00  0.00    +0.000 N 
ATOM      6  C   UNL     1      -6.161  15.139  20.641  0.00  0.00    +0.000 C 
ATOM      7  C   UNL     1      -4.483  14.960  23.127  0.00  0.00    +0.000 A 
ATOM      8  C   UNL     1      -5.591  15.737  23.576  0.00  0.00    +0.000 A 
ATOM      9  C   UNL     1      -5.449  16.716  24.556  0.00  0.00    +0.000 A 
ATOM     10  C   UNL     1      -4.214  16.895  25.154  0.00  0.00    +0.000 A 
ATOM     11  C   UNL     1      -3.155  16.051  24.809  0.00  0.00    +0.000 A 
ATOM     12  C   UNL     1      -3.276  15.067  23.832  0.00  0.00    +0.000 A 
ATOM     13  N   UNL     1      -2.242  14.245  23.642  0.00  0.00    +0.000 NA
ATOM     14  H   UNL     1      -0.690  12.500  23.388  0.00  0.00    +0.000 HD
ENDROOT
BRANCH   1  21
ATOM     15  C   UNL     1      -0.238   9.610  23.298  0.00  0.00    +0.000 C 
ATOM     16  C   UNL     1      -0.416  10.173  21.916  0.00  0.00    +0.000 A 
ATOM     17  C   UNL     1       0.027   9.394  20.821  0.00  0.00    +0.000 A 
ATOM     18  C   UNL     1      -0.121   9.840  19.518  0.00  0.00    +0.000 A 
ATOM     19  C   UNL     1      -0.703  11.076  19.275  0.00  0.00    +0.000 A 
ATOM     20  C   UNL     1      -1.137  11.861  20.339  0.00  0.00    +0.000 A 
ATOM     21  C   UNL     1      -1.004  11.435  21.672  0.00  0.00    +0.000 A 
ENDBRANCH   1  21
BRANCH   5  22
ATOM     22  C   UNL     1      -5.870  12.714  20.388  0.00  0.00    +0.000 A 
ATOM     23  C   UNL     1      -5.213  12.461  19.156  0.00  0.00    +0.000 A 
ATOM     24  C   UNL     1      -5.457  11.323  18.378  0.00  0.00    +0.000 A 
ATOM     25  C   UNL     1      -6.369  10.380  18.809  0.00  0.00    +0.000 A 
ATOM     26  C   UNL     1      -7.055  10.596  19.999  0.00  0.00    +0.000 A 
ATOM     27  C   UNL     1      -6.847  11.759  20.778  0.00  0.00    +0.000 A 
ATOM     28  C   UNL     1      -7.752  11.918  21.972  0.00  0.00    +0.000 C 
ENDBRANCH   5  22
TORSDOF 2
ENDMDL
MODEL 6
REMARK VINA RESULT:      -6.7      0.977      1.257
REMARK  Name = 
REMARK  5 active torsions:
REMARK  status: ('A' for Active; 'I' for Inactive)
REMARK    1  A    between atoms: C_1  and  C_2
REMARK    2  A    between atoms: C_7  and  N_8
REMARK    3  A    between atoms: N_12  and  C_13
REMARK    4  A    between atoms: N_12  and  C_14
REMARK    5  A    between atoms: C_19  and  C_20
REMARK                            x       y       z     vdW  Elec       q    Type
REMARK                         _______ _______ _______ _____ _____    ______ ____
ROOT
ATOM      1  N   UNL     1       9.473  11.465  21.529  0.00  0.00    +0.000 N 
ATOM      2  C   UNL     1       8.701  12.277  22.382  0.00  0.00    +0.000 A 
ATOM      3  N   UNL     1       7.988  13.295  21.880  0.00  0.00    +0.000 NA
ATOM      4  C   UNL     1       6.992  13.842  22.610  0.00  0.00    +0.000 A 
ATOM      5  N   UNL     1       6.190  14.850  21.988  0.00  0.00    +0.000 N 
ATOM      6  C   UNL     1       5.945  16.050  22.805  0.00  0.00    +0.000 C 
ATOM      7  C   UNL     1       6.747  13.380  23.926  0.00  0.00    +0.000 A 
ATOM      8  C   UNL     1       5.651  13.733  24.765  0.00  0.00    +0.000 A 
ATOM      9  C   UNL     1       5.595  13.340  26.100  0.00  0.00    +0.000 A 
ATOM     10  C   UNL     1       6.599  12.534  26.606  0.00  0.00    +0.000 A 
ATOM     11  C   UNL     1       7.610  12.080  25.755  0.00  0.00    +0.000 A 
ATOM     12  C   UNL     1       7.683  12.461  24.419  0.00  0.00    +0.000 A 
ATOM     13  N   UNL     1       8.626  11.897  23.659  0.00  0.00    +0.000 NA
ATOM     14  H   UNL     1       9.973  10.786  22.088  0.00  0.00    +0.000 HD
ENDROOT
BRANCH   1  21
ATOM     15  C   UNL     1       8.983   9.827  19.105  0.00  0.00    +0.000 C 
ATOM     16  C   UNL     1       9.892  11.024  19.149  0.00  0.00    +0.000 A 
ATOM     17  C   UNL     1      10.579  11.378  17.965  0.00  0.00    +0.000 A 
ATOM     18  C   UNL     1      11.420  12.479  17.926  0.00  0.00    +0.000 A 
ATOM     19  C   UNL     1      11.603  13.246  19.067  0.00  0.00    +0.000 A 
ATOM     20  C   UNL     1      10.943  12.908  20.246  0.00  0.00    +0.000 A 
ATOM     21  C   UNL     1      10.082  11.799  20.316  0.00  0.00    +0.000 A 
ENDBRANCH   1  21
BRANCH   5  22
ATOM     22  C   UNL     1       6.022  15.027  20.574  0.00  0.00    +0.000 A 
ATOM     23  C   UNL     1       7.065  15.552  19.766  0.00  0.00    +0.000 A 
ATOM     24  C   UNL     1       6.945  15.730  18.383  0.00  0.00    +0.000 A 
ATOM     25  C   UNL     1       5.772  15.379  17.745  0.00  0.00    +0.000 A 
ATOM     26  C   UNL     1       4.714  14.882  18.498  0.00  0.00    +0.000 A 
ATOM     27  C   UNL     1       4.806  14.731  19.902  0.00  0.00    +0.000 A 
ATOM     28  C   UNL     1       3.540  14.303  20.599  0.00  0.00    +0.000 C 
ENDBRANCH   5  22
TORSDOF 2
ENDMDL
MODEL 7
REMARK VINA RESULT:      -6.6      9.981     13.080
REMARK  Name = 
REMARK  5 active torsions:
REMARK  status: ('A' for Active; 'I' for Inactive)
REMARK    1  A    between atoms: C_1  and  C_2
REMARK    2  A    between atoms: C_7  and  N_8
REMARK    3  A    between atoms: N_12  and  C_13
REMARK    4  A    between atoms: N_12  and  C_14
REMARK    5  A    between atoms: C_19  and  C_20
REMARK                            x       y       z     vdW  Elec       q    Type
REMARK                         _______ _______ _______ _____ _____    ______ ____
ROOT
ATOM      1  N   UNL     1      -4.708  11.201  17.851  0.00  0.00    +0.000 N 
ATOM      2  C   UNL     1      -3.380  11.313  18.307  0.00  0.00    +0.000 A 
ATOM      3  N   UNL     1      -3.100  12.052  19.389  0.00  0.00    +0.000 NA
ATOM      4  C   UNL     1      -1.923  11.884  20.031  0.00  0.00    +0.000 A 
ATOM      5  N   UNL     1      -1.718  12.615  21.243  0.00  0.00    +0.000 N 
ATOM      6  C   UNL     1      -0.413  13.286  21.358  0.00  0.00    +0.000 C 
ATOM      7  C   UNL     1      -0.966  10.974  19.520  0.00  0.00    +0.000 A 
ATOM      8  C   UNL     1       0.245  10.565  20.150  0.00  0.00    +0.000 A 
ATOM      9  C   UNL     1       1.189   9.787  19.485  0.00  0.00    +0.000 A 
ATOM     10  C   UNL     1       0.915   9.347  18.202  0.00  0.00    +0.000 A 
ATOM     11  C   UNL     1      -0.324   9.638  17.626  0.00  0.00    +0.000 A 
ATOM     12  C   UNL     1      -1.281  10.415  18.274  0.00  0.00    +0.000 A 
ATOM     13  N   UNL     1      -2.472  10.556  17.688  0.00  0.00    +0.000 NA
ATOM     14  H   UNL     1      -4.717  10.648  17.004  0.00  0.00    +0.000 HD
ENDROOT
BRANCH   1  21
ATOM     15  C   UNL     1      -6.402  11.224  20.286  0.00  0.00    +0.000 C 
ATOM     16  C   UNL     1      -6.600  12.136  19.108  0.00  0.00    +0.000 A 
ATOM     17  C   UNL     1      -7.680  13.048  19.151  0.00  0.00    +0.000 A 
ATOM     18  C   UNL     1      -7.915  13.931  18.108  0.00  0.00    +0.000 A 
ATOM     19  C   UNL     1      -7.085  13.919  16.997  0.00  0.00    +0.000 A 
ATOM     20  C   UNL     1      -6.022  13.023  16.932  0.00  0.00    +0.000 A 
ATOM     21  C   UNL     1      -5.757  12.117  17.973  0.00  0.00    +0.000 A 
ENDBRANCH   1  21
BRANCH   5  22
ATOM     22  C   UNL     1      -2.754  13.141  22.084  0.00  0.00    +0.000 A 
ATOM     23  C   UNL     1      -3.336  12.360  23.117  0.00  0.00    +0.000 A 
ATOM     24  C   UNL     1      -4.340  12.838  23.965  0.00  0.00    +0.000 A 
ATOM     25  C   UNL     1      -4.803  14.132  23.820  0.00  0.00    +0.000 A 
ATOM     26  C   UNL     1      -4.281  14.928  22.807  0.00  0.00    +0.000 A 
ATOM     27  C   UNL     1      -3.291  14.446  21.918  0.00  0.00    +0.000 A 
ATOM     28  C   UNL     1      -2.913  15.376  20.793  0.00  0.00    +0.000 C 
ENDBRANCH   5  22
TORSDOF 2
ENDMDL
MODEL 8
REMARK VINA RESULT:      -6.6      1.591      5.894
REMARK  Name = 
REMARK  5 active torsions:
REMARK  status: ('A' for Active; 'I' for Inactive)
REMARK    1  A    between atoms: C_1  and  C_2
REMARK    2  A    between atoms: C_7  and  N_8
REMARK    3  A    between atoms: N_12  and  C_13
REMARK    4  A    between atoms: N_12  and  C_14
REMARK    5  A    between atoms: C_19  and  C_20
REMARK                            x       y       z     vdW  Elec       q    Type
REMARK                         _______ _______ _______ _____ _____    ______ ____
ROOT
ATOM      1  N   UNL     1       9.113  12.380  23.095  0.00  0.00    +0.000 N 
ATOM      2  C   UNL     1       9.123  12.527  21.695  0.00  0.00    +0.000 A 
ATOM      3  N   UNL     1       8.285  13.389  21.102  0.00  0.00    +0.000 NA
ATOM      4  C   UNL     1       8.522  13.793  19.836  0.00  0.00    +0.000 A 
ATOM      5  N   UNL     1       7.662  14.797  19.287  0.00  0.00    +0.000 N 
ATOM      6  C   UNL     1       7.169  14.527  17.927  0.00  0.00    +0.000 C 
ATOM      7  C   UNL     1       9.618  13.256  19.118  0.00  0.00    +0.000 A 
ATOM      8  C   UNL     1      10.098  13.683  17.846  0.00  0.00    +0.000 A 
ATOM      9  C   UNL     1      11.085  12.978  17.162  0.00  0.00    +0.000 A 
ATOM     10  C   UNL     1      11.659  11.871  17.763  0.00  0.00    +0.000 A 
ATOM     11  C   UNL     1      11.283  11.523  19.062  0.00  0.00    +0.000 A 
ATOM     12  C   UNL     1      10.298  12.214  19.762  0.00  0.00    +0.000 A 
ATOM     13  N   UNL     1      10.077  11.870  21.033  0.00  0.00    +0.000 NA
ATOM     14  H   UNL     1       9.773  11.658  23.353  0.00  0.00    +0.000 HD
ENDROOT
BRANCH   1  21
ATOM     15  C   UNL     1       8.636  15.030  24.340  0.00  0.00    +0.000 C 
ATOM     16  C   UNL     1       7.814  13.802  24.620  0.00  0.00    +0.000 A 
ATOM     17  C   UNL     1       6.760  13.910  25.557  0.00  0.00    +0.000 A 
ATOM     18  C   UNL     1       5.950  12.825  25.853  0.00  0.00    +0.000 A 
ATOM     19  C   UNL     1       6.178  11.606  25.229  0.00  0.00    +0.000 A 
ATOM     20  C   UNL     1       7.216  11.478  24.310  0.00  0.00    +0.000 A 
ATOM     21  C   UNL     1       8.052  12.560  23.988  0.00  0.00    +0.000 A 
ENDBRANCH   1  21
BRANCH   5  22
ATOM     22  C   UNL     1       6.884  15.733  20.047  0.00  0.00    +0.000 A 
ATOM     23  C   UNL     1       5.483  15.572  20.204  0.00  0.00    +0.000 A 
ATOM     24  C   UNL     1       4.690  16.456  20.945  0.00  0.00    +0.000 A 
ATOM     25  C   UNL     1       5.272  17.542  21.571  0.00  0.00    +0.000 A 
ATOM     26  C   UNL     1       6.638  17.754  21.425  0.00  0.00    +0.000 A 
ATOM     27  C   UNL     1       7.447  16.890  20.649  0.00  0.00    +0.000 A 
ATOM     28  C   UNL     1       8.882  17.316  20.477  0.00  0.00    +0.000 C 
ENDBRANCH   5  22
TORSDOF 2
ENDMDL
MODEL 9
REMARK VINA RESULT:      -6.5      3.021      4.947
REMARK  Name = 
REMARK  5 active torsions:
REMARK  status: ('A' for Active; 'I' for Inactive)
REMARK    1  A    between atoms: C_1  and  C_2
REMARK    2  A    between atoms: C_7  and  N_8
REMARK    3  A    between atoms: N_12  and  C_13
REMARK    4  A    between atoms: N_12  and  C_14
REMARK    5  A    between atoms: C_19  and  C_20
REMARK                            x       y       z     vdW  Elec       q    Type
REMARK                         _______ _______ _______ _____ _____    ______ ____
ROOT
ATOM      1  N   UNL     1       8.358  13.656  17.398  0.00  0.00    +0.000 N 
ATOM      2  C   UNL     1       7.339  14.255  18.163  0.00  0.00    +0.000 A 
ATOM      3  N   UNL     1       7.626  14.818  19.345  0.00  0.00    +0.000 NA
ATOM      4  C   UNL     1       6.755  15.685  19.905  0.00  0.00    +0.000 A 
ATOM      5  N   UNL     1       7.156  16.342  21.111  0.00  0.00    +0.000 N 
ATOM      6  C   UNL     1       6.145  16.362  22.181  0.00  0.00    +0.000 C 
ATOM      7  C   UNL     1       5.516  15.946  19.273  0.00  0.00    +0.000 A 
ATOM      8  C   UNL     1       4.561  16.938  19.641  0.00  0.00    +0.000 A 
ATOM      9  C   UNL     1       3.304  17.001  19.044  0.00  0.00    +0.000 A 
ATOM     10  C   UNL     1       2.999  16.117  18.025  0.00  0.00    +0.000 A 
ATOM     11  C   UNL     1       3.975  15.226  17.573  0.00  0.00    +0.000 A 
ATOM     12  C   UNL     1       5.237  15.147  18.155  0.00  0.00    +0.000 A 
ATOM     13  N   UNL     1       6.136  14.337  17.592  0.00  0.00    +0.000 NA
ATOM     14  H   UNL     1       7.948  13.247  16.569  0.00  0.00    +0.000 HD
ENDROOT
BRANCH   1  21
ATOM     15  C   UNL     1      10.952  15.073  17.134  0.00  0.00    +0.000 C 
ATOM     16  C   UNL     1      10.797  13.688  17.698  0.00  0.00    +0.000 A 
ATOM     17  C   UNL     1      11.965  13.003  18.106  0.00  0.00    +0.000 A 
ATOM     18  C   UNL     1      11.898  11.731  18.651  0.00  0.00    +0.000 A 
ATOM     19  C   UNL     1      10.667  11.107  18.792  0.00  0.00    +0.000 A 
ATOM     20  C   UNL     1       9.506  11.760  18.388  0.00  0.00    +0.000 A 
ATOM     21  C   UNL     1       9.541  13.052  17.835  0.00  0.00    +0.000 A 
ENDBRANCH   1  21
BRANCH   5  22
ATOM     22  C   UNL     1       8.510  16.538  21.543  0.00  0.00    +0.000 A 
ATOM     23  C   UNL     1       9.071  15.761  22.591  0.00  0.00    +0.000 A 
ATOM     24  C   UNL     1      10.389  15.913  23.034  0.00  0.00    +0.000 A 
ATOM     25  C   UNL     1      11.211  16.849  22.438  0.00  0.00    +0.000 A 
ATOM     26  C   UNL     1      10.699  17.650  21.424  0.00  0.00    +0.000 A 
ATOM     27  C   UNL     1       9.357  17.534  20.989  0.00  0.00    +0.000 A 
ATOM     28  C   UNL     1       8.908  18.553  19.973  0.00  0.00    +0.000 C 
ENDBRANCH   5  22
TORSDOF 2
ENDMDL
