MODEL 1
REMARK VINA RESULT:      -7.8      0.000      0.000
REMARK  Name = 
REMARK  9 active torsions:
REMARK  status: ('A' for Active; 'I' for Inactive)
REMARK    1  A    between atoms: C_2  and  C_3
REMARK    2  A    between atoms: C_3  and  O_4
REMARK    3  A    between atoms: O_4  and  C_5
REMARK    4  A    between atoms: C_8  and  N_9
REMARK    5  A    between atoms: N_14  and  C_15
REMARK    6  A    between atoms: C_17  and  C_18
REMARK    7  A    between atoms: C_18  and  O_20
REMARK    8  A    between atoms: C_22  and  C_23
REMARK    9  A    between atoms: C_23  and  O_25
REMARK                            x       y       z     vdW  Elec       q    Type
REMARK                         _______ _______ _______ _____ _____    ______ ____
ROOT
ATOM      1  O   UNL     1       1.321   5.176  20.528  0.00  0.00    +0.000 OA
ATOM      2  C   UNL     1       2.357   5.703  20.128  0.00  0.00    +0.000 C 
ATOM      3  N   UNL     1       2.540   7.065  19.902  0.00  0.00    +0.000 N 
ATOM      4  H   UNL     1       3.398   7.343  19.439  0.00  0.00    +0.000 HD
ENDROOT
BRANCH   3   5
ATOM      5  C   UNL     1       1.618   8.096  20.195  0.00  0.00    +0.000 A 
ATOM      6  C   UNL     1       1.302   8.480  21.497  0.00  0.00    +0.000 A 
ATOM      7  C   UNL     1       0.342   9.466  21.740  0.00  0.00    +0.000 A 
ATOM      8  C   UNL     1      -0.243  10.160  20.676  0.00  0.00    +0.000 A 
ATOM      9  C   UNL     1       0.104   9.822  19.366  0.00  0.00    +0.000 A 
ATOM     10  C   UNL     1       1.008   8.770  19.129  0.00  0.00    +0.000 A 
BRANCH   7  11
ATOM     11  C   UNL     1      -0.064   9.811  23.120  0.00  0.00    +0.000 C 
ATOM     12  O   UNL     1       0.630   9.529  24.083  0.00  0.00    +0.000 OA
BRANCH  11  13
ATOM     13  O   UNL     1      -1.214  10.507  23.207  0.00  0.00    +0.000 OA
ATOM     14  H   UNL     1      -1.407  11.133  22.481  0.00  0.00    +0.000 HD
ENDBRANCH  11  13
ENDBRANCH   7  11
BRANCH   9  15
ATOM     15  C   UNL     1      -0.502  10.500  18.193  0.00  0.00    +0.000 C 
ATOM     16  O   UNL     1      -1.149   9.889  17.358  0.00  0.00    +0.000 OA
BRANCH  15  17
ATOM     17  O   UNL     1      -0.244  11.820  18.102  0.00  0.00    +0.000 OA
ATOM     18  H   UNL     1      -0.901  12.427  18.488  0.00  0.00    +0.000 HD
ENDBRANCH  15  17
ENDBRANCH   9  15
ENDBRANCH   3   5
BRANCH   2  19
ATOM     19  C   UNL     1       3.602   4.863  19.860  0.00  0.00    +0.000 C 
BRANCH  19  20
ATOM     20  O   UNL     1       4.723   5.699  19.594  0.00  0.00    +0.000 OA
BRANCH  20  21
ATOM     21  C   UNL     1       5.332   5.463  18.389  0.00  0.00    +0.000 A 
ATOM     22  C   UNL     1       4.615   5.847  17.252  0.00  0.00    +0.000 A 
ATOM     23  C   UNL     1       5.152   5.653  15.973  0.00  0.00    +0.000 A 
ATOM     24  C   UNL     1       6.425   5.083  15.841  0.00  0.00    +0.000 A 
ATOM     25  C   UNL     1       7.156   4.717  16.976  0.00  0.00    +0.000 A 
ATOM     26  C   UNL     1       6.608   4.911  18.245  0.00  0.00    +0.000 A 
BRANCH  24  27
ATOM     27  N   UNL     1       7.006   4.875  14.512  0.00  0.00    +0.000 N 
ATOM     28  O   UNL     1       7.990   5.560  14.198  0.00  0.00    +0.000 OA
ATOM     29  O   UNL     1       6.476   4.028  13.777  0.00  0.00    +0.000 OA
ENDBRANCH  24  27
ENDBRANCH  20  21
ENDBRANCH  19  20
ENDBRANCH   2  19
TORSDOF 9
ENDMDL
MODEL 2
REMARK VINA RESULT:      -7.7      0.456      1.081
REMARK  Name = 
REMARK  9 active torsions:
REMARK  status: ('A' for Active; 'I' for Inactive)
REMARK    1  A    between atoms: C_2  and  C_3
REMARK    2  A    between atoms: C_3  and  O_4
REMARK    3  A    between atoms: O_4  and  C_5
REMARK    4  A    between atoms: C_8  and  N_9
REMARK    5  A    between atoms: N_14  and  C_15
REMARK    6  A    between atoms: C_17  and  C_18
REMARK    7  A    between atoms: C_18  and  O_20
REMARK    8  A    between atoms: C_22  and  C_23
REMARK    9  A    between atoms: C_23  and  O_25
REMARK                            x       y       z     vdW  Elec       q    Type
REMARK                         _______ _______ _______ _____ _____    ______ ____
ROOT
ATOM      1  O   UNL     1       1.309   5.193  20.653  0.00  0.00    +0.000 OA
ATOM      2  C   UNL     1       2.311   5.699  20.153  0.00  0.00    +0.000 C 
ATOM      3  N   UNL     1       2.485   7.053  19.881  0.00  0.00    +0.000 N 
ATOM      4  H   UNL     1       3.303   7.312  19.339  0.00  0.00    +0.000 HD
ENDROOT
BRANCH   3   5
ATOM      5  C   UNL     1       1.602   8.100  20.230  0.00  0.00    +0.000 A 
ATOM      6  C   UNL     1       1.266   8.398  21.549  0.00  0.00    +0.000 A 
ATOM      7  C   UNL     1       0.344   9.407  21.844  0.00  0.00    +0.000 A 
ATOM      8  C   UNL     1      -0.179  10.206  20.822  0.00  0.00    +0.000 A 
ATOM      9  C   UNL     1       0.191   9.954  19.499  0.00  0.00    +0.000 A 
ATOM     10  C   UNL     1       1.054   8.882  19.205  0.00  0.00    +0.000 A 
BRANCH   7  11
ATOM     11  C   UNL     1      -0.087   9.664  23.235  0.00  0.00    +0.000 C 
ATOM     12  O   UNL     1       0.669   9.507  24.181  0.00  0.00    +0.000 OA
BRANCH  11  13
ATOM     13  O   UNL     1      -1.342  10.136  23.354  0.00  0.00    +0.000 OA
ATOM     14  H   UNL     1      -1.861  10.223  22.530  0.00  0.00    +0.000 HD
ENDBRANCH  11  13
ENDBRANCH   7  11
BRANCH   9  15
ATOM     15  C   UNL     1      -0.350  10.747  18.367  0.00  0.00    +0.000 C 
ATOM     16  O   UNL     1      -1.160  10.282  17.583  0.00  0.00    +0.000 OA
BRANCH  15  17
ATOM     17  O   UNL     1       0.156  11.991  18.251  0.00  0.00    +0.000 OA
ATOM     18  H   UNL     1      -0.261  12.580  17.596  0.00  0.00    +0.000 HD
ENDBRANCH  15  17
ENDBRANCH   9  15
ENDBRANCH   3   5
BRANCH   2  19
ATOM     19  C   UNL     1       3.520   4.840  19.797  0.00  0.00    +0.000 C 
BRANCH  19  20
ATOM     20  O   UNL     1       4.630   5.658  19.443  0.00  0.00    +0.000 OA
BRANCH  20  21
ATOM     21  C   UNL     1       5.134   5.418  18.191  0.00  0.00    +0.000 A 
ATOM     22  C   UNL     1       6.452   5.828  17.970  0.00  0.00    +0.000 A 
ATOM     23  C   UNL     1       7.061   5.624  16.725  0.00  0.00    +0.000 A 
ATOM     24  C   UNL     1       6.342   4.991  15.703  0.00  0.00    +0.000 A 
ATOM     25  C   UNL     1       5.030   4.559  15.926  0.00  0.00    +0.000 A 
ATOM     26  C   UNL     1       4.432   4.771  17.170  0.00  0.00    +0.000 A 
BRANCH  24  27
ATOM     27  N   UNL     1       6.962   4.765  14.394  0.00  0.00    +0.000 N 
ATOM     28  O   UNL     1       6.539   3.821  13.711  0.00  0.00    +0.000 OA
ATOM     29  O   UNL     1       7.875   5.529  14.050  0.00  0.00    +0.000 OA
ENDBRANCH  24  27
ENDBRANCH  20  21
ENDBRANCH  19  20
ENDBRANCH   2  19
TORSDOF 9
ENDMDL
MODEL 3
REMARK VINA RESULT:      -7.7      2.799      4.775
REMARK  Name = 
REMARK  9 active torsions:
REMARK  status: ('A' for Active; 'I' for Inactive)
REMARK    1  A    between atoms: C_2  and  C_3
REMARK    2  A    between atoms: C_3  and  O_4
REMARK    3  A    between atoms: O_4  and  C_5
REMARK    4  A    between atoms: C_8  and  N_9
REMARK    5  A    between atoms: N_14  and  C_15
REMARK    6  A    between atoms: C_17  and  C_18
REMARK    7  A    between atoms: C_18  and  O_20
REMARK    8  A    between atoms: C_22  and  C_23
REMARK    9  A    between atoms: C_23  and  O_25
REMARK                            x       y       z     vdW  Elec       q    Type
REMARK                         _______ _______ _______ _____ _____    ______ ____
ROOT
ATOM      1  O   UNL     1       7.028   5.456  19.458  0.00  0.00    +0.000 OA
ATOM      2  C   UNL     1       6.634   4.948  18.410  0.00  0.00    +0.000 C 
ATOM      3  N   UNL     1       5.313   4.632  18.108  0.00  0.00    +0.000 N 
ATOM      4  H   UNL     1       5.150   4.089  17.267  0.00  0.00    +0.000 HD
ENDROOT
BRANCH   3   5
ATOM      5  C   UNL     1       4.176   4.938  18.891  0.00  0.00    +0.000 A 
ATOM      6  C   UNL     1       3.592   4.024  19.766  0.00  0.00    +0.000 A 
ATOM      7  C   UNL     1       2.434   4.351  20.477  0.00  0.00    +0.000 A 
ATOM      8  C   UNL     1       1.901   5.642  20.402  0.00  0.00    +0.000 A 
ATOM      9  C   UNL     1       2.507   6.585  19.570  0.00  0.00    +0.000 A 
ATOM     10  C   UNL     1       3.622   6.221  18.793  0.00  0.00    +0.000 A 
BRANCH   7  11
ATOM     11  C   UNL     1       1.759   3.354  21.335  0.00  0.00    +0.000 C 
ATOM     12  O   UNL     1       2.254   2.965  22.381  0.00  0.00    +0.000 OA
BRANCH  11  13
ATOM     13  O   UNL     1       0.544   2.971  20.897  0.00  0.00    +0.000 OA
ATOM     14  H   UNL     1      -0.209   3.554  21.117  0.00  0.00    +0.000 HD
ENDBRANCH  11  13
ENDBRANCH   7  11
BRANCH   9  15
ATOM     15  C   UNL     1       1.973   7.963  19.424  0.00  0.00    +0.000 C 
ATOM     16  O   UNL     1       1.310   8.494  20.300  0.00  0.00    +0.000 OA
BRANCH  15  17
ATOM     17  O   UNL     1       2.237   8.553  18.241  0.00  0.00    +0.000 OA
ATOM     18  H   UNL     1       1.969   8.072  17.436  0.00  0.00    +0.000 HD
ENDBRANCH  15  17
ENDBRANCH   9  15
ENDBRANCH   3   5
BRANCH   2  19
ATOM     19  C   UNL     1       7.615   4.631  17.285  0.00  0.00    +0.000 C 
BRANCH  19  20
ATOM     20  O   UNL     1       7.408   5.503  16.179  0.00  0.00    +0.000 OA
BRANCH  20  21
ATOM     21  C   UNL     1       6.928   4.886  15.053  0.00  0.00    +0.000 A 
ATOM     22  C   UNL     1       5.759   4.136  15.214  0.00  0.00    +0.000 A 
ATOM     23  C   UNL     1       5.186   3.470  14.124  0.00  0.00    +0.000 A 
ATOM     24  C   UNL     1       5.786   3.574  12.862  0.00  0.00    +0.000 A 
ATOM     25  C   UNL     1       6.943   4.341  12.691  0.00  0.00    +0.000 A 
ATOM     26  C   UNL     1       7.508   4.996  13.787  0.00  0.00    +0.000 A 
BRANCH  24  27
ATOM     27  N   UNL     1       5.200   2.887  11.707  0.00  0.00    +0.000 N 
ATOM     28  O   UNL     1       4.243   3.431  11.136  0.00  0.00    +0.000 OA
ATOM     29  O   UNL     1       5.693   1.800  11.371  0.00  0.00    +0.000 OA
ENDBRANCH  24  27
ENDBRANCH  20  21
ENDBRANCH  19  20
ENDBRANCH   2  19
TORSDOF 9
ENDMDL
MODEL 4
REMARK VINA RESULT:      -7.6      3.007      9.058
REMARK  Name = 
REMARK  9 active torsions:
REMARK  status: ('A' for Active; 'I' for Inactive)
REMARK    1  A    between atoms: C_2  and  C_3
REMARK    2  A    between atoms: C_3  and  O_4
REMARK    3  A    between atoms: O_4  and  C_5
REMARK    4  A    between atoms: C_8  and  N_9
REMARK    5  A    between atoms: N_14  and  C_15
REMARK    6  A    between atoms: C_17  and  C_18
REMARK    7  A    between atoms: C_18  and  O_20
REMARK    8  A    between atoms: C_22  and  C_23
REMARK    9  A    between atoms: C_23  and  O_25
REMARK                            x       y       z     vdW  Elec       q    Type
REMARK                         _______ _______ _______ _____ _____    ______ ____
ROOT
ATOM      1  O   UNL     1       2.197   7.672  19.662  0.00  0.00    +0.000 OA
ATOM      2  C   UNL     1       2.380   8.066  18.512  0.00  0.00    +0.000 C 
ATOM      3  N   UNL     1       3.180   7.442  17.559  0.00  0.00    +0.000 N 
ATOM      4  H   UNL     1       3.353   7.950  16.698  0.00  0.00    +0.000 HD
ENDROOT
BRANCH   3   5
ATOM      5  C   UNL     1       3.831   6.194  17.695  0.00  0.00    +0.000 A 
ATOM      6  C   UNL     1       5.213   6.073  17.828  0.00  0.00    +0.000 A 
ATOM      7  C   UNL     1       5.819   4.816  17.903  0.00  0.00    +0.000 A 
ATOM      8  C   UNL     1       5.038   3.657  17.951  0.00  0.00    +0.000 A 
ATOM      9  C   UNL     1       3.647   3.767  17.872  0.00  0.00    +0.000 A 
ATOM     10  C   UNL     1       3.051   5.031  17.712  0.00  0.00    +0.000 A 
BRANCH   7  11
ATOM     11  C   UNL     1       7.291   4.680  17.950  0.00  0.00    +0.000 C 
ATOM     12  O   UNL     1       7.933   4.989  18.941  0.00  0.00    +0.000 OA
BRANCH  11  13
ATOM     13  O   UNL     1       7.838   4.137  16.845  0.00  0.00    +0.000 OA
ATOM     14  H   UNL     1       8.452   4.700  16.334  0.00  0.00    +0.000 HD
ENDBRANCH  11  13
ENDBRANCH   7  11
BRANCH   9  15
ATOM     15  C   UNL     1       2.763   2.574  17.889  0.00  0.00    +0.000 C 
ATOM     16  O   UNL     1       1.550   2.668  17.795  0.00  0.00    +0.000 OA
BRANCH  15  17
ATOM     17  O   UNL     1       3.399   1.397  18.060  0.00  0.00    +0.000 OA
ATOM     18  H   UNL     1       3.825   1.246  18.924  0.00  0.00    +0.000 HD
ENDBRANCH  15  17
ENDBRANCH   9  15
ENDBRANCH   3   5
BRANCH   2  19
ATOM     19  C   UNL     1       1.684   9.324  18.002  0.00  0.00    +0.000 C 
BRANCH  19  20
ATOM     20  O   UNL     1       0.939   9.943  19.045  0.00  0.00    +0.000 OA
BRANCH  20  21
ATOM     21  C   UNL     1      -0.332  10.313  18.691  0.00  0.00    +0.000 A 
ATOM     22  C   UNL     1      -0.917  11.321  19.465  0.00  0.00    +0.000 A 
ATOM     23  C   UNL     1      -2.211  11.773  19.182  0.00  0.00    +0.000 A 
ATOM     24  C   UNL     1      -2.914  11.219  18.104  0.00  0.00    +0.000 A 
ATOM     25  C   UNL     1      -2.325  10.226  17.313  0.00  0.00    +0.000 A 
ATOM     26  C   UNL     1      -1.035   9.779  17.608  0.00  0.00    +0.000 A 
BRANCH  24  27
ATOM     27  N   UNL     1      -4.268  11.681  17.789  0.00  0.00    +0.000 N 
ATOM     28  O   UNL     1      -5.004  11.998  18.735  0.00  0.00    +0.000 OA
ATOM     29  O   UNL     1      -4.600  11.723  16.595  0.00  0.00    +0.000 OA
ENDBRANCH  24  27
ENDBRANCH  20  21
ENDBRANCH  19  20
ENDBRANCH   2  19
TORSDOF 9
ENDMDL
MODEL 5
REMARK VINA RESULT:      -7.6      2.973      9.034
REMARK  Name = 
REMARK  9 active torsions:
REMARK  status: ('A' for Active; 'I' for Inactive)
REMARK    1  A    between atoms: C_2  and  C_3
REMARK    2  A    between atoms: C_3  and  O_4
REMARK    3  A    between atoms: O_4  and  C_5
REMARK    4  A    between atoms: C_8  and  N_9
REMARK    5  A    between atoms: N_14  and  C_15
REMARK    6  A    between atoms: C_17  and  C_18
REMARK    7  A    between atoms: C_18  and  O_20
REMARK    8  A    between atoms: C_22  and  C_23
REMARK    9  A    between atoms: C_23  and  O_25
REMARK                            x       y       z     vdW  Elec       q    Type
REMARK                         _______ _______ _______ _____ _____    ______ ____
ROOT
ATOM      1  O   UNL     1       2.139   7.691  19.648  0.00  0.00    +0.000 OA
ATOM      2  C   UNL     1       2.345   8.115  18.513  0.00  0.00    +0.000 C 
ATOM      3  N   UNL     1       3.166   7.517  17.561  0.00  0.00    +0.000 N 
ATOM      4  H   UNL     1       3.355   8.048  16.718  0.00  0.00    +0.000 HD
ENDROOT
BRANCH   3   5
ATOM      5  C   UNL     1       3.818   6.268  17.679  0.00  0.00    +0.000 A 
ATOM      6  C   UNL     1       5.202   6.144  17.780  0.00  0.00    +0.000 A 
ATOM      7  C   UNL     1       5.807   4.885  17.836  0.00  0.00    +0.000 A 
ATOM      8  C   UNL     1       5.024   3.728  17.899  0.00  0.00    +0.000 A 
ATOM      9  C   UNL     1       3.632   3.840  17.852  0.00  0.00    +0.000 A 
ATOM     10  C   UNL     1       3.036   5.106  17.709  0.00  0.00    +0.000 A 
BRANCH   7  11
ATOM     11  C   UNL     1       7.279   4.746  17.849  0.00  0.00    +0.000 C 
ATOM     12  O   UNL     1       7.932   4.917  18.866  0.00  0.00    +0.000 OA
BRANCH  11  13
ATOM     13  O   UNL     1       7.815   4.359  16.675  0.00  0.00    +0.000 OA
ATOM     14  H   UNL     1       8.631   3.823  16.718  0.00  0.00    +0.000 HD
ENDBRANCH  11  13
ENDBRANCH   7  11
BRANCH   9  15
ATOM     15  C   UNL     1       2.746   2.650  17.885  0.00  0.00    +0.000 C 
ATOM     16  O   UNL     1       1.533   2.746  17.806  0.00  0.00    +0.000 OA
BRANCH  15  17
ATOM     17  O   UNL     1       3.381   1.473  18.056  0.00  0.00    +0.000 OA
ATOM     18  H   UNL     1       3.643   1.238  18.965  0.00  0.00    +0.000 HD
ENDBRANCH  15  17
ENDBRANCH   9  15
ENDBRANCH   3   5
BRANCH   2  19
ATOM     19  C   UNL     1       1.656   9.384  18.022  0.00  0.00    +0.000 C 
BRANCH  19  20
ATOM     20  O   UNL     1       1.014  10.056  19.100  0.00  0.00    +0.000 OA
BRANCH  20  21
ATOM     21  C   UNL     1      -0.252  10.497  18.818  0.00  0.00    +0.000 A 
ATOM     22  C   UNL     1      -0.880   9.904  17.718  0.00  0.00    +0.000 A 
ATOM     23  C   UNL     1      -2.177  10.283  17.351  0.00  0.00    +0.000 A 
ATOM     24  C   UNL     1      -2.850  11.254  18.104  0.00  0.00    +0.000 A 
ATOM     25  C   UNL     1      -2.235  11.834  19.219  0.00  0.00    +0.000 A 
ATOM     26  C   UNL     1      -0.940  11.452  19.573  0.00  0.00    +0.000 A 
BRANCH  24  27
ATOM     27  N   UNL     1      -4.209  11.662  17.738  0.00  0.00    +0.000 N 
ATOM     28  O   UNL     1      -4.534  11.579  16.544  0.00  0.00    +0.000 OA
ATOM     29  O   UNL     1      -4.953  12.070  18.643  0.00  0.00    +0.000 OA
ENDBRANCH  24  27
ENDBRANCH  20  21
ENDBRANCH  19  20
ENDBRANCH   2  19
TORSDOF 9
ENDMDL
MODEL 6
REMARK VINA RESULT:      -7.6      2.698      5.221
REMARK  Name = 
REMARK  9 active torsions:
REMARK  status: ('A' for Active; 'I' for Inactive)
REMARK    1  A    between atoms: C_2  and  C_3
REMARK    2  A    between atoms: C_3  and  O_4
REMARK    3  A    between atoms: O_4  and  C_5
REMARK    4  A    between atoms: C_8  and  N_9
REMARK    5  A    between atoms: N_14  and  C_15
REMARK    6  A    between atoms: C_17  and  C_18
REMARK    7  A    between atoms: C_18  and  O_20
REMARK    8  A    between atoms: C_22  and  C_23
REMARK    9  A    between atoms: C_23  and  O_25
REMARK                            x       y       z     vdW  Elec       q    Type
REMARK                         _______ _______ _______ _____ _____    ______ ____
ROOT
ATOM      1  O   UNL     1       7.031   5.213  19.639  0.00  0.00    +0.000 OA
ATOM      2  C   UNL     1       6.611   4.888  18.531  0.00  0.00    +0.000 C 
ATOM      3  N   UNL     1       5.273   4.708  18.192  0.00  0.00    +0.000 N 
ATOM      4  H   UNL     1       5.079   4.303  17.282  0.00  0.00    +0.000 HD
ENDROOT
BRANCH   3   5
ATOM      5  C   UNL     1       4.155   4.974  19.014  0.00  0.00    +0.000 A 
ATOM      6  C   UNL     1       3.543   6.225  19.079  0.00  0.00    +0.000 A 
ATOM      7  C   UNL     1       2.475   6.457  19.950  0.00  0.00    +0.000 A 
ATOM      8  C   UNL     1       1.932   5.407  20.697  0.00  0.00    +0.000 A 
ATOM      9  C   UNL     1       2.501   4.134  20.602  0.00  0.00    +0.000 A 
ATOM     10  C   UNL     1       3.629   3.930  19.787  0.00  0.00    +0.000 A 
BRANCH   7  11
ATOM     11  C   UNL     1       1.885   7.806  20.090  0.00  0.00    +0.000 C 
ATOM     12  O   UNL     1       1.687   8.524  19.123  0.00  0.00    +0.000 OA
BRANCH  11  13
ATOM     13  O   UNL     1       1.535   8.135  21.348  0.00  0.00    +0.000 OA
ATOM     14  H   UNL     1       0.678   7.794  21.671  0.00  0.00    +0.000 HD
ENDBRANCH  11  13
ENDBRANCH   7  11
BRANCH   9  15
ATOM     15  C   UNL     1       1.990   2.985  21.390  0.00  0.00    +0.000 C 
ATOM     16  O   UNL     1       0.800   2.721  21.449  0.00  0.00    +0.000 OA
BRANCH  15  17
ATOM     17  O   UNL     1       2.931   2.294  22.064  0.00  0.00    +0.000 OA
ATOM     18  H   UNL     1       3.116   1.386  21.760  0.00  0.00    +0.000 HD
ENDBRANCH  15  17
ENDBRANCH   9  15
ENDBRANCH   3   5
BRANCH   2  19
ATOM     19  C   UNL     1       7.574   4.671  17.368  0.00  0.00    +0.000 C 
BRANCH  19  20
ATOM     20  O   UNL     1       7.269   5.552  16.293  0.00  0.00    +0.000 OA
BRANCH  20  21
ATOM     21  C   UNL     1       6.834   4.926  15.154  0.00  0.00    +0.000 A 
ATOM     22  C   UNL     1       5.580   4.310  15.231  0.00  0.00    +0.000 A 
ATOM     23  C   UNL     1       5.044   3.647  14.121  0.00  0.00    +0.000 A 
ATOM     24  C   UNL     1       5.768   3.618  12.921  0.00  0.00    +0.000 A 
ATOM     25  C   UNL     1       7.012   4.252  12.831  0.00  0.00    +0.000 A 
ATOM     26  C   UNL     1       7.539   4.906  13.947  0.00  0.00    +0.000 A 
BRANCH  24  27
ATOM     27  N   UNL     1       5.222   2.933  11.746  0.00  0.00    +0.000 N 
ATOM     28  O   UNL     1       4.214   3.417  11.212  0.00  0.00    +0.000 OA
ATOM     29  O   UNL     1       5.800   1.906  11.358  0.00  0.00    +0.000 OA
ENDBRANCH  24  27
ENDBRANCH  20  21
ENDBRANCH  19  20
ENDBRANCH   2  19
TORSDOF 9
ENDMDL
MODEL 7
REMARK VINA RESULT:      -7.6      1.654      3.479
REMARK  Name = 
REMARK  9 active torsions:
REMARK  status: ('A' for Active; 'I' for Inactive)
REMARK    1  A    between atoms: C_2  and  C_3
REMARK    2  A    between atoms: C_3  and  O_4
REMARK    3  A    between atoms: O_4  and  C_5
REMARK    4  A    between atoms: C_8  and  N_9
REMARK    5  A    between atoms: N_14  and  C_15
REMARK    6  A    between atoms: C_17  and  C_18
REMARK    7  A    between atoms: C_18  and  O_20
REMARK    8  A    between atoms: C_22  and  C_23
REMARK    9  A    between atoms: C_23  and  O_25
REMARK                            x       y       z     vdW  Elec       q    Type
REMARK                         _______ _______ _______ _____ _____    ______ ____
ROOT
ATOM      1  O   UNL     1       0.829   4.360  20.087  0.00  0.00    +0.000 OA
ATOM      2  C   UNL     1       2.027   4.550  20.284  0.00  0.00    +0.000 C 
ATOM      3  N   UNL     1       2.650   5.793  20.351  0.00  0.00    +0.000 N 
ATOM      4  H   UNL     1       3.665   5.798  20.377  0.00  0.00    +0.000 HD
ENDROOT
BRANCH   3   5
ATOM      5  C   UNL     1       2.014   7.055  20.322  0.00  0.00    +0.000 A 
ATOM      6  C   UNL     1       1.975   7.856  19.181  0.00  0.00    +0.000 A 
ATOM      7  C   UNL     1       1.384   9.122  19.215  0.00  0.00    +0.000 A 
ATOM      8  C   UNL     1       0.727   9.565  20.367  0.00  0.00    +0.000 A 
ATOM      9  C   UNL     1       0.712   8.749  21.501  0.00  0.00    +0.000 A 
ATOM     10  C   UNL     1       1.383   7.513  21.485  0.00  0.00    +0.000 A 
BRANCH   7  11
ATOM     11  C   UNL     1       1.423  10.013  18.035  0.00  0.00    +0.000 C 
ATOM     12  O   UNL     1       2.349   9.987  17.241  0.00  0.00    +0.000 OA
BRANCH  11  13
ATOM     13  O   UNL     1       0.334  10.792  17.886  0.00  0.00    +0.000 OA
ATOM     14  H   UNL     1      -0.121  10.754  17.022  0.00  0.00    +0.000 HD
ENDBRANCH  11  13
ENDBRANCH   7  11
BRANCH   9  15
ATOM     15  C   UNL     1       0.057   9.173  22.764  0.00  0.00    +0.000 C 
ATOM     16  O   UNL     1       0.620   9.892  23.573  0.00  0.00    +0.000 OA
BRANCH  15  17
ATOM     17  O   UNL     1      -1.177   8.667  22.963  0.00  0.00    +0.000 OA
ATOM     18  H   UNL     1      -1.300   7.717  22.784  0.00  0.00    +0.000 HD
ENDBRANCH  15  17
ENDBRANCH   9  15
ENDBRANCH   3   5
BRANCH   2  19
ATOM     19  C   UNL     1       2.973   3.375  20.510  0.00  0.00    +0.000 C 
BRANCH  19  20
ATOM     20  O   UNL     1       3.254   2.714  19.281  0.00  0.00    +0.000 OA
BRANCH  20  21
ATOM     21  C   UNL     1       4.060   3.423  18.428  0.00  0.00    +0.000 A 
ATOM     22  C   UNL     1       5.259   3.899  18.968  0.00  0.00    +0.000 A 
ATOM     23  C   UNL     1       6.153   4.631  18.177  0.00  0.00    +0.000 A 
ATOM     24  C   UNL     1       5.844   4.872  16.832  0.00  0.00    +0.000 A 
ATOM     25  C   UNL     1       4.656   4.380  16.282  0.00  0.00    +0.000 A 
ATOM     26  C   UNL     1       3.770   3.655  17.081  0.00  0.00    +0.000 A 
BRANCH  24  27
ATOM     27  N   UNL     1       6.768   5.634  15.987  0.00  0.00    +0.000 N 
ATOM     28  O   UNL     1       6.678   5.491  14.759  0.00  0.00    +0.000 OA
ATOM     29  O   UNL     1       7.590   6.372  16.551  0.00  0.00    +0.000 OA
ENDBRANCH  24  27
ENDBRANCH  20  21
ENDBRANCH  19  20
ENDBRANCH   2  19
TORSDOF 9
ENDMDL
MODEL 8
REMARK VINA RESULT:      -7.6      2.766      9.310
REMARK  Name = 
REMARK  9 active torsions:
REMARK  status: ('A' for Active; 'I' for Inactive)
REMARK    1  A    between atoms: C_2  and  C_3
REMARK    2  A    between atoms: C_3  and  O_4
REMARK    3  A    between atoms: O_4  and  C_5
REMARK    4  A    between atoms: C_8  and  N_9
REMARK    5  A    between atoms: N_14  and  C_15
REMARK    6  A    between atoms: C_17  and  C_18
REMARK    7  A    between atoms: C_18  and  O_20
REMARK    8  A    between atoms: C_22  and  C_23
REMARK    9  A    between atoms: C_23  and  O_25
REMARK                            x       y       z     vdW  Elec       q    Type
REMARK                         _______ _______ _______ _____ _____    ______ ____
ROOT
ATOM      1  O   UNL     1       2.697   8.794  17.005  0.00  0.00    +0.000 OA
ATOM      2  C   UNL     1       2.221   8.412  18.072  0.00  0.00    +0.000 C 
ATOM      3  N   UNL     1       2.436   7.168  18.658  0.00  0.00    +0.000 N 
ATOM      4  H   UNL     1       1.869   6.936  19.467  0.00  0.00    +0.000 HD
ENDROOT
BRANCH   3   5
ATOM      5  C   UNL     1       3.322   6.167  18.201  0.00  0.00    +0.000 A 
ATOM      6  C   UNL     1       4.622   6.442  17.777  0.00  0.00    +0.000 A 
ATOM      7  C   UNL     1       5.444   5.427  17.279  0.00  0.00    +0.000 A 
ATOM      8  C   UNL     1       5.012   4.097  17.295  0.00  0.00    +0.000 A 
ATOM      9  C   UNL     1       3.732   3.799  17.767  0.00  0.00    +0.000 A 
ATOM     10  C   UNL     1       2.880   4.838  18.187  0.00  0.00    +0.000 A 
BRANCH   7  11
ATOM     11  C   UNL     1       6.788   5.730  16.742  0.00  0.00    +0.000 C 
ATOM     12  O   UNL     1       7.198   6.875  16.644  0.00  0.00    +0.000 OA
BRANCH  11  13
ATOM     13  O   UNL     1       7.525   4.645  16.436  0.00  0.00    +0.000 OA
ATOM     14  H   UNL     1       7.633   4.437  15.487  0.00  0.00    +0.000 HD
ENDBRANCH  11  13
ENDBRANCH   7  11
BRANCH   9  15
ATOM     15  C   UNL     1       3.204   2.412  17.784  0.00  0.00    +0.000 C 
ATOM     16  O   UNL     1       2.063   2.152  17.439  0.00  0.00    +0.000 OA
BRANCH  15  17
ATOM     17  O   UNL     1       4.061   1.482  18.250  0.00  0.00    +0.000 OA
ATOM     18  H   UNL     1       4.666   1.074  17.603  0.00  0.00    +0.000 HD
ENDBRANCH  15  17
ENDBRANCH   9  15
ENDBRANCH   3   5
BRANCH   2  19
ATOM     19  C   UNL     1       1.329   9.335  18.898  0.00  0.00    +0.000 C 
BRANCH  19  20
ATOM     20  O   UNL     1       1.273   8.898  20.251  0.00  0.00    +0.000 OA
BRANCH  20  21
ATOM     21  C   UNL     1       0.467   9.658  21.059  0.00  0.00    +0.000 A 
ATOM     22  C   UNL     1       0.006  10.860  20.512  0.00  0.00    +0.000 A 
ATOM     23  C   UNL     1      -0.826  11.706  21.254  0.00  0.00    +0.000 A 
ATOM     24  C   UNL     1      -1.209  11.331  22.549  0.00  0.00    +0.000 A 
ATOM     25  C   UNL     1      -0.769  10.120  23.093  0.00  0.00    +0.000 A 
ATOM     26  C   UNL     1       0.064   9.287  22.345  0.00  0.00    +0.000 A 
BRANCH  24  27
ATOM     27  N   UNL     1      -2.083  12.201  23.342  0.00  0.00    +0.000 N 
ATOM     28  O   UNL     1      -3.187  11.752  23.685  0.00  0.00    +0.000 OA
ATOM     29  O   UNL     1      -1.669  13.337  23.618  0.00  0.00    +0.000 OA
ENDBRANCH  24  27
ENDBRANCH  20  21
ENDBRANCH  19  20
ENDBRANCH   2  19
TORSDOF 9
ENDMDL
MODEL 9
REMARK VINA RESULT:      -7.5      1.286      1.839
REMARK  Name = 
REMARK  9 active torsions:
REMARK  status: ('A' for Active; 'I' for Inactive)
REMARK    1  A    between atoms: C_2  and  C_3
REMARK    2  A    between atoms: C_3  and  O_4
REMARK    3  A    between atoms: O_4  and  C_5
REMARK    4  A    between atoms: C_8  and  N_9
REMARK    5  A    between atoms: N_14  and  C_15
REMARK    6  A    between atoms: C_17  and  C_18
REMARK    7  A    between atoms: C_18  and  O_20
REMARK    8  A    between atoms: C_22  and  C_23
REMARK    9  A    between atoms: C_23  and  O_25
REMARK                            x       y       z     vdW  Elec       q    Type
REMARK                         _______ _______ _______ _____ _____    ______ ____
ROOT
ATOM      1  O   UNL     1       0.662   5.056  20.537  0.00  0.00    +0.000 OA
ATOM      2  C   UNL     1       1.862   5.321  20.519  0.00  0.00    +0.000 C 
ATOM      3  N   UNL     1       2.411   6.600  20.513  0.00  0.00    +0.000 N 
ATOM      4  H   UNL     1       3.411   6.672  20.355  0.00  0.00    +0.000 HD
ENDROOT
BRANCH   3   5
ATOM      5  C   UNL     1       1.705   7.818  20.642  0.00  0.00    +0.000 A 
ATOM      6  C   UNL     1       1.121   8.231  21.838  0.00  0.00    +0.000 A 
ATOM      7  C   UNL     1       0.383   9.416  21.904  0.00  0.00    +0.000 A 
ATOM      8  C   UNL     1       0.305  10.262  20.794  0.00  0.00    +0.000 A 
ATOM      9  C   UNL     1       0.930   9.887  19.603  0.00  0.00    +0.000 A 
ATOM     10  C   UNL     1       1.599   8.652  19.521  0.00  0.00    +0.000 A 
BRANCH   7  11
ATOM     11  C   UNL     1      -0.316   9.811  23.147  0.00  0.00    +0.000 C 
ATOM     12  O   UNL     1      -1.317  10.508  23.127  0.00  0.00    +0.000 OA
BRANCH  11  13
ATOM     13  O   UNL     1       0.207   9.288  24.273  0.00  0.00    +0.000 OA
ATOM     14  H   UNL     1      -0.392   8.757  24.833  0.00  0.00    +0.000 HD
ENDBRANCH  11  13
ENDBRANCH   7  11
BRANCH   9  15
ATOM     15  C   UNL     1       0.861  10.726  18.380  0.00  0.00    +0.000 C 
ATOM     16  O   UNL     1      -0.001  11.576  18.230  0.00  0.00    +0.000 OA
BRANCH  15  17
ATOM     17  O   UNL     1       1.788  10.444  17.443  0.00  0.00    +0.000 OA
ATOM     18  H   UNL     1       2.398  11.162  17.194  0.00  0.00    +0.000 HD
ENDBRANCH  15  17
ENDBRANCH   9  15
ENDBRANCH   3   5
BRANCH   2  19
ATOM     19  C   UNL     1       2.903   4.206  20.530  0.00  0.00    +0.000 C 
BRANCH  19  20
ATOM     20  O   UNL     1       2.952   3.552  19.266  0.00  0.00    +0.000 OA
BRANCH  20  21
ATOM     21  C   UNL     1       3.939   4.007  18.431  0.00  0.00    +0.000 A 
ATOM     22  C   UNL     1       5.058   4.572  19.051  0.00  0.00    +0.000 A 
ATOM     23  C   UNL     1       6.123   5.062  18.287  0.00  0.00    +0.000 A 
ATOM     24  C   UNL     1       6.067   4.969  16.890  0.00  0.00    +0.000 A 
ATOM     25  C   UNL     1       4.960   4.385  16.265  0.00  0.00    +0.000 A 
ATOM     26  C   UNL     1       3.902   3.904  17.038  0.00  0.00    +0.000 A 
BRANCH  24  27
ATOM     27  N   UNL     1       7.173   5.474  16.071  0.00  0.00    +0.000 N 
ATOM     28  O   UNL     1       7.591   4.749  15.156  0.00  0.00    +0.000 OA
ATOM     29  O   UNL     1       7.629   6.594  16.344  0.00  0.00    +0.000 OA
ENDBRANCH  24  27
ENDBRANCH  20  21
ENDBRANCH  19  20
ENDBRANCH   2  19
TORSDOF 9
ENDMDL
