MODEL 1
REMARK VINA RESULT:      -8.0      0.000      0.000
REMARK  Name = 
REMARK  7 active torsions:
REMARK  status: ('A' for Active; 'I' for Inactive)
REMARK    1  A    between atoms: C_2  and  C_17
REMARK    2  A    between atoms: N_3  and  N_4
REMARK    3  A    between atoms: C_9  and  C_10
REMARK    4  A    between atoms: C_14  and  O_15
REMARK    5  A    between atoms: C_19  and  O_20
REMARK    6  A    between atoms: C_21  and  O_22
REMARK    7  A    between atoms: C_23  and  O_24
REMARK                            x       y       z     vdW  Elec       q    Type
REMARK                         _______ _______ _______ _____ _____    ______ ____
ROOT
ATOM      1  O   UNL     1       3.696   2.664  17.382  0.00  0.00    +0.000 OA
ATOM      2  C   UNL     1       4.552   3.492  17.698  0.00  0.00    +0.000 C 
ATOM      3  N   UNL     1       4.675   4.021  18.977  0.00  0.00    +0.000 N 
ATOM      4  H   UNL     1       5.320   4.767  19.209  0.00  0.00    +0.000 HD
ENDROOT
BRANCH   3   5
ATOM      5  N   UNL     1       3.659   3.694  19.910  0.00  0.00    +0.000 N 
ATOM      6  C   UNL     1       3.754   2.522  20.658  0.00  0.00    +0.000 C 
ATOM      7  O   UNL     1       4.662   1.699  20.596  0.00  0.00    +0.000 OA
ATOM      8  C   UNL     1       2.561   2.361  21.575  0.00  0.00    +0.000 C 
ATOM      9  S   UNL     1       1.384   3.678  21.171  0.00  0.00    +0.000 S 
ATOM     10  C   UNL     1       2.324   4.216  19.717  0.00  0.00    +0.000 C 
BRANCH  10  11
ATOM     11  C   UNL     1       2.193   5.699  19.465  0.00  0.00    +0.000 A 
ATOM     12  C   UNL     1       2.426   6.276  18.207  0.00  0.00    +0.000 A 
ATOM     13  C   UNL     1       2.265   7.650  18.010  0.00  0.00    +0.000 A 
ATOM     14  C   UNL     1       1.892   8.473  19.069  0.00  0.00    +0.000 A 
ATOM     15  C   UNL     1       1.702   7.916  20.325  0.00  0.00    +0.000 A 
ATOM     16  C   UNL     1       1.859   6.548  20.535  0.00  0.00    +0.000 A 
BRANCH  15  17
ATOM     17  O   UNL     1       1.365   8.684  21.401  0.00  0.00    +0.000 OA
ATOM     18  H   UNL     1       1.948   8.453  22.146  0.00  0.00    +0.000 HD
ENDBRANCH  15  17
ENDBRANCH  10  11
ENDBRANCH   3   5
BRANCH   2  19
ATOM     19  C   UNL     1       5.514   3.934  16.651  0.00  0.00    +0.000 A 
ATOM     20  C   UNL     1       6.325   5.045  16.959  0.00  0.00    +0.000 A 
ATOM     21  C   UNL     1       7.132   5.611  15.980  0.00  0.00    +0.000 A 
ATOM     22  C   UNL     1       7.150   5.070  14.703  0.00  0.00    +0.000 A 
ATOM     23  C   UNL     1       6.375   3.955  14.405  0.00  0.00    +0.000 A 
ATOM     24  C   UNL     1       5.552   3.372  15.368  0.00  0.00    +0.000 A 
BRANCH  21  25
ATOM     25  O   UNL     1       7.900   6.716  16.218  0.00  0.00    +0.000 OA
ATOM     26  H   UNL     1       8.803   6.533  15.902  0.00  0.00    +0.000 HD
ENDBRANCH  21  25
BRANCH  22  27
ATOM     27  O   UNL     1       7.906   5.644  13.716  0.00  0.00    +0.000 OA
ATOM     28  H   UNL     1       7.283   5.759  12.969  0.00  0.00    +0.000 HD
ENDBRANCH  22  27
BRANCH  23  29
ATOM     29  O   UNL     1       6.391   3.443  13.138  0.00  0.00    +0.000 OA
ATOM     30  H   UNL     1       6.459   4.226  12.556  0.00  0.00    +0.000 HD
ENDBRANCH  23  29
ENDBRANCH   2  19
TORSDOF 7
ENDMDL
MODEL 2
REMARK VINA RESULT:      -7.9      2.747      6.500
REMARK  Name = 
REMARK  7 active torsions:
REMARK  status: ('A' for Active; 'I' for Inactive)
REMARK    1  A    between atoms: C_2  and  C_17
REMARK    2  A    between atoms: N_3  and  N_4
REMARK    3  A    between atoms: C_9  and  C_10
REMARK    4  A    between atoms: C_14  and  O_15
REMARK    5  A    between atoms: C_19  and  O_20
REMARK    6  A    between atoms: C_21  and  O_22
REMARK    7  A    between atoms: C_23  and  O_24
REMARK                            x       y       z     vdW  Elec       q    Type
REMARK                         _______ _______ _______ _____ _____    ______ ____
ROOT
ATOM      1  O   UNL     1       2.058   6.360  17.893  0.00  0.00    +0.000 OA
ATOM      2  C   UNL     1       2.228   6.681  19.070  0.00  0.00    +0.000 C 
ATOM      3  N   UNL     1       2.751   5.826  20.032  0.00  0.00    +0.000 N 
ATOM      4  H   UNL     1       2.804   6.064  21.015  0.00  0.00    +0.000 HD
ENDROOT
BRANCH   3   5
ATOM      5  N   UNL     1       2.949   4.474  19.653  0.00  0.00    +0.000 N 
ATOM      6  C   UNL     1       1.969   3.524  19.931  0.00  0.00    +0.000 C 
ATOM      7  O   UNL     1       0.900   3.735  20.496  0.00  0.00    +0.000 OA
ATOM      8  C   UNL     1       2.391   2.149  19.458  0.00  0.00    +0.000 C 
ATOM      9  S   UNL     1       4.109   2.272  18.898  0.00  0.00    +0.000 S 
ATOM     10  C   UNL     1       4.296   3.970  19.505  0.00  0.00    +0.000 C 
BRANCH  10  11
ATOM     11  C   UNL     1       5.248   4.781  18.659  0.00  0.00    +0.000 A 
ATOM     12  C   UNL     1       5.072   4.957  17.278  0.00  0.00    +0.000 A 
ATOM     13  C   UNL     1       5.961   5.740  16.537  0.00  0.00    +0.000 A 
ATOM     14  C   UNL     1       7.054   6.339  17.157  0.00  0.00    +0.000 A 
ATOM     15  C   UNL     1       7.259   6.134  18.514  0.00  0.00    +0.000 A 
ATOM     16  C   UNL     1       6.380   5.357  19.264  0.00  0.00    +0.000 A 
BRANCH  15  17
ATOM     17  O   UNL     1       8.331   6.675  19.161  0.00  0.00    +0.000 OA
ATOM     18  H   UNL     1       8.018   7.119  19.969  0.00  0.00    +0.000 HD
ENDBRANCH  15  17
ENDBRANCH  10  11
ENDBRANCH   3   5
BRANCH   2  19
ATOM     19  C   UNL     1       1.864   8.067  19.474  0.00  0.00    +0.000 A 
ATOM     20  C   UNL     1       1.617   8.287  20.845  0.00  0.00    +0.000 A 
ATOM     21  C   UNL     1       1.123   9.512  21.276  0.00  0.00    +0.000 A 
ATOM     22  C   UNL     1       0.887  10.524  20.356  0.00  0.00    +0.000 A 
ATOM     23  C   UNL     1       1.159  10.319  19.008  0.00  0.00    +0.000 A 
ATOM     24  C   UNL     1       1.650   9.098  18.549  0.00  0.00    +0.000 A 
BRANCH  21  25
ATOM     25  O   UNL     1       0.825   9.757  22.587  0.00  0.00    +0.000 OA
ATOM     26  H   UNL     1       0.098   9.164  22.849  0.00  0.00    +0.000 HD
ENDBRANCH  21  25
BRANCH  22  27
ATOM     27  O   UNL     1       0.357  11.720  20.759  0.00  0.00    +0.000 OA
ATOM     28  H   UNL     1       0.515  11.741  21.725  0.00  0.00    +0.000 HD
ENDBRANCH  22  27
BRANCH  23  29
ATOM     29  O   UNL     1       0.906  11.319  18.111  0.00  0.00    +0.000 OA
ATOM     30  H   UNL     1      -0.020  11.579  18.285  0.00  0.00    +0.000 HD
ENDBRANCH  23  29
ENDBRANCH   2  19
TORSDOF 7
ENDMDL
MODEL 3
REMARK VINA RESULT:      -7.9      2.393      6.649
REMARK  Name = 
REMARK  7 active torsions:
REMARK  status: ('A' for Active; 'I' for Inactive)
REMARK    1  A    between atoms: C_2  and  C_17
REMARK    2  A    between atoms: N_3  and  N_4
REMARK    3  A    between atoms: C_9  and  C_10
REMARK    4  A    between atoms: C_14  and  O_15
REMARK    5  A    between atoms: C_19  and  O_20
REMARK    6  A    between atoms: C_21  and  O_22
REMARK    7  A    between atoms: C_23  and  O_24
REMARK                            x       y       z     vdW  Elec       q    Type
REMARK                         _______ _______ _______ _____ _____    ______ ____
ROOT
ATOM      1  O   UNL     1       2.018   6.513  17.937  0.00  0.00    +0.000 OA
ATOM      2  C   UNL     1       2.218   6.826  19.112  0.00  0.00    +0.000 C 
ATOM      3  N   UNL     1       2.796   5.976  20.046  0.00  0.00    +0.000 N 
ATOM      4  H   UNL     1       2.875   6.205  21.030  0.00  0.00    +0.000 HD
ENDROOT
BRANCH   3   5
ATOM      5  N   UNL     1       3.020   4.634  19.645  0.00  0.00    +0.000 N 
ATOM      6  C   UNL     1       2.032   3.673  19.854  0.00  0.00    +0.000 C 
ATOM      7  O   UNL     1       0.936   3.866  20.372  0.00  0.00    +0.000 OA
ATOM      8  C   UNL     1       2.483   2.312  19.369  0.00  0.00    +0.000 C 
ATOM      9  S   UNL     1       4.225   2.456  18.894  0.00  0.00    +0.000 S 
ATOM     10  C   UNL     1       4.375   4.140  19.549  0.00  0.00    +0.000 C 
BRANCH  10  11
ATOM     11  C   UNL     1       5.361   4.975  18.769  0.00  0.00    +0.000 A 
ATOM     12  C   UNL     1       6.546   5.472  19.333  0.00  0.00    +0.000 A 
ATOM     13  C   UNL     1       7.446   6.217  18.566  0.00  0.00    +0.000 A 
ATOM     14  C   UNL     1       7.166   6.499  17.232  0.00  0.00    +0.000 A 
ATOM     15  C   UNL     1       5.976   6.049  16.679  0.00  0.00    +0.000 A 
ATOM     16  C   UNL     1       5.071   5.305  17.432  0.00  0.00    +0.000 A 
BRANCH  15  17
ATOM     17  O   UNL     1       5.642   6.325  15.386  0.00  0.00    +0.000 OA
ATOM     18  H   UNL     1       4.702   6.114  15.253  0.00  0.00    +0.000 HD
ENDBRANCH  15  17
ENDBRANCH  10  11
ENDBRANCH   3   5
BRANCH   2  19
ATOM     19  C   UNL     1       1.829   8.197  19.544  0.00  0.00    +0.000 A 
ATOM     20  C   UNL     1       1.584   8.386  20.919  0.00  0.00    +0.000 A 
ATOM     21  C   UNL     1       1.068   9.593  21.375  0.00  0.00    +0.000 A 
ATOM     22  C   UNL     1       0.809  10.617  20.475  0.00  0.00    +0.000 A 
ATOM     23  C   UNL     1       1.079  10.443  19.122  0.00  0.00    +0.000 A 
ATOM     24  C   UNL     1       1.592   9.240  18.639  0.00  0.00    +0.000 A 
BRANCH  21  25
ATOM     25  O   UNL     1       0.770   9.807  22.691  0.00  0.00    +0.000 OA
ATOM     26  H   UNL     1       0.264  10.637  22.757  0.00  0.00    +0.000 HD
ENDBRANCH  21  25
BRANCH  22  27
ATOM     27  O   UNL     1       0.257  11.795  20.903  0.00  0.00    +0.000 OA
ATOM     28  H   UNL     1       0.587  12.462  20.266  0.00  0.00    +0.000 HD
ENDBRANCH  22  27
BRANCH  23  29
ATOM     29  O   UNL     1       0.803  11.455  18.246  0.00  0.00    +0.000 OA
ATOM     30  H   UNL     1       1.665  11.891  18.092  0.00  0.00    +0.000 HD
ENDBRANCH  23  29
ENDBRANCH   2  19
TORSDOF 7
ENDMDL
MODEL 4
REMARK VINA RESULT:      -7.8      2.144      6.195
REMARK  Name = 
REMARK  7 active torsions:
REMARK  status: ('A' for Active; 'I' for Inactive)
REMARK    1  A    between atoms: C_2  and  C_17
REMARK    2  A    between atoms: N_3  and  N_4
REMARK    3  A    between atoms: C_9  and  C_10
REMARK    4  A    between atoms: C_14  and  O_15
REMARK    5  A    between atoms: C_19  and  O_20
REMARK    6  A    between atoms: C_21  and  O_22
REMARK    7  A    between atoms: C_23  and  O_24
REMARK                            x       y       z     vdW  Elec       q    Type
REMARK                         _______ _______ _______ _____ _____    ______ ____
ROOT
ATOM      1  O   UNL     1       1.890   5.766  18.068  0.00  0.00    +0.000 OA
ATOM      2  C   UNL     1       2.433   6.408  18.970  0.00  0.00    +0.000 C 
ATOM      3  N   UNL     1       3.324   5.852  19.879  0.00  0.00    +0.000 N 
ATOM      4  H   UNL     1       3.697   6.361  20.671  0.00  0.00    +0.000 HD
ENDROOT
BRANCH   3   5
ATOM      5  N   UNL     1       3.486   4.444  19.844  0.00  0.00    +0.000 N 
ATOM      6  C   UNL     1       2.782   3.641  20.741  0.00  0.00    +0.000 C 
ATOM      7  O   UNL     1       2.001   4.036  21.601  0.00  0.00    +0.000 OA
ATOM      8  C   UNL     1       3.115   2.178  20.542  0.00  0.00    +0.000 C 
ATOM      9  S   UNL     1       4.462   2.088  19.335  0.00  0.00    +0.000 S 
ATOM     10  C   UNL     1       4.711   3.884  19.319  0.00  0.00    +0.000 C 
BRANCH  10  11
ATOM     11  C   UNL     1       5.180   4.387  17.976  0.00  0.00    +0.000 A 
ATOM     12  C   UNL     1       4.654   3.914  16.764  0.00  0.00    +0.000 A 
ATOM     13  C   UNL     1       5.096   4.428  15.543  0.00  0.00    +0.000 A 
ATOM     14  C   UNL     1       6.089   5.404  15.509  0.00  0.00    +0.000 A 
ATOM     15  C   UNL     1       6.645   5.845  16.701  0.00  0.00    +0.000 A 
ATOM     16  C   UNL     1       6.213   5.341  17.925  0.00  0.00    +0.000 A 
BRANCH  15  17
ATOM     17  O   UNL     1       7.641   6.777  16.720  0.00  0.00    +0.000 OA
ATOM     18  H   UNL     1       7.249   7.657  16.579  0.00  0.00    +0.000 HD
ENDBRANCH  15  17
ENDBRANCH  10  11
ENDBRANCH   3   5
BRANCH   2  19
ATOM     19  C   UNL     1       2.123   7.860  19.076  0.00  0.00    +0.000 A 
ATOM     20  C   UNL     1       1.340   8.265  20.176  0.00  0.00    +0.000 A 
ATOM     21  C   UNL     1       0.880   9.573  20.260  0.00  0.00    +0.000 A 
ATOM     22  C   UNL     1       1.206  10.485  19.266  0.00  0.00    +0.000 A 
ATOM     23  C   UNL     1       2.004  10.095  18.196  0.00  0.00    +0.000 A 
ATOM     24  C   UNL     1       2.473   8.787  18.085  0.00  0.00    +0.000 A 
BRANCH  21  25
ATOM     25  O   UNL     1       0.080  10.001  21.283  0.00  0.00    +0.000 OA
ATOM     26  H   UNL     1       0.010  10.971  21.228  0.00  0.00    +0.000 HD
ENDBRANCH  21  25
BRANCH  22  27
ATOM     27  O   UNL     1       0.722  11.765  19.311  0.00  0.00    +0.000 OA
ATOM     28  H   UNL     1       1.062  12.122  20.156  0.00  0.00    +0.000 HD
ENDBRANCH  22  27
BRANCH  23  29
ATOM     29  O   UNL     1       2.303  11.000  17.215  0.00  0.00    +0.000 OA
ATOM     30  H   UNL     1       2.790  11.711  17.676  0.00  0.00    +0.000 HD
ENDBRANCH  23  29
ENDBRANCH   2  19
TORSDOF 7
ENDMDL
MODEL 5
REMARK VINA RESULT:      -7.7      0.285      1.677
REMARK  Name = 
REMARK  7 active torsions:
REMARK  status: ('A' for Active; 'I' for Inactive)
REMARK    1  A    between atoms: C_2  and  C_17
REMARK    2  A    between atoms: N_3  and  N_4
REMARK    3  A    between atoms: C_9  and  C_10
REMARK    4  A    between atoms: C_14  and  O_15
REMARK    5  A    between atoms: C_19  and  O_20
REMARK    6  A    between atoms: C_21  and  O_22
REMARK    7  A    between atoms: C_23  and  O_24
REMARK                            x       y       z     vdW  Elec       q    Type
REMARK                         _______ _______ _______ _____ _____    ______ ____
ROOT
ATOM      1  O   UNL     1       3.517   3.056  17.220  0.00  0.00    +0.000 OA
ATOM      2  C   UNL     1       4.432   3.796  17.584  0.00  0.00    +0.000 C 
ATOM      3  N   UNL     1       4.669   4.128  18.912  0.00  0.00    +0.000 N 
ATOM      4  H   UNL     1       5.364   4.808  19.198  0.00  0.00    +0.000 HD
ENDROOT
BRANCH   3   5
ATOM      5  N   UNL     1       3.707   3.706  19.864  0.00  0.00    +0.000 N 
ATOM      6  C   UNL     1       3.873   2.492  20.527  0.00  0.00    +0.000 C 
ATOM      7  O   UNL     1       4.803   1.706  20.371  0.00  0.00    +0.000 OA
ATOM      8  C   UNL     1       2.728   2.230  21.482  0.00  0.00    +0.000 C 
ATOM      9  S   UNL     1       1.494   3.529  21.217  0.00  0.00    +0.000 S 
ATOM     10  C   UNL     1       2.350   4.194  19.764  0.00  0.00    +0.000 C 
BRANCH  10  11
ATOM     11  C   UNL     1       2.160   5.684  19.617  0.00  0.00    +0.000 A 
ATOM     12  C   UNL     1       2.298   6.347  18.388  0.00  0.00    +0.000 A 
ATOM     13  C   UNL     1       2.085   7.725  18.291  0.00  0.00    +0.000 A 
ATOM     14  C   UNL     1       1.756   8.466  19.422  0.00  0.00    +0.000 A 
ATOM     15  C   UNL     1       1.661   7.825  20.649  0.00  0.00    +0.000 A 
ATOM     16  C   UNL     1       1.870   6.452  20.759  0.00  0.00    +0.000 A 
BRANCH  15  17
ATOM     17  O   UNL     1       1.370   8.512  21.791  0.00  0.00    +0.000 OA
ATOM     18  H   UNL     1       0.404   8.537  21.904  0.00  0.00    +0.000 HD
ENDBRANCH  15  17
ENDBRANCH  10  11
ENDBRANCH   3   5
BRANCH   2  19
ATOM     19  C   UNL     1       5.337   4.351  16.540  0.00  0.00    +0.000 A 
ATOM     20  C   UNL     1       5.383   3.669  15.308  0.00  0.00    +0.000 A 
ATOM     21  C   UNL     1       6.314   4.032  14.344  0.00  0.00    +0.000 A 
ATOM     22  C   UNL     1       7.190   5.080  14.591  0.00  0.00    +0.000 A 
ATOM     23  C   UNL     1       7.126   5.775  15.793  0.00  0.00    +0.000 A 
ATOM     24  C   UNL     1       6.205   5.426  16.779  0.00  0.00    +0.000 A 
BRANCH  21  25
ATOM     25  O   UNL     1       6.427   3.370  13.153  0.00  0.00    +0.000 OA
ATOM     26  H   UNL     1       6.628   4.025  12.460  0.00  0.00    +0.000 HD
ENDBRANCH  21  25
BRANCH  22  27
ATOM     27  O   UNL     1       8.144   5.420  13.669  0.00  0.00    +0.000 OA
ATOM     28  H   UNL     1       8.867   5.811  14.202  0.00  0.00    +0.000 HD
ENDBRANCH  22  27
BRANCH  23  29
ATOM     29  O   UNL     1       8.007   6.794  16.029  0.00  0.00    +0.000 OA
ATOM     30  H   UNL     1       8.843   6.348  16.270  0.00  0.00    +0.000 HD
ENDBRANCH  23  29
ENDBRANCH   2  19
TORSDOF 7
ENDMDL
MODEL 6
REMARK VINA RESULT:      -7.7      0.909      2.116
REMARK  Name = 
REMARK  7 active torsions:
REMARK  status: ('A' for Active; 'I' for Inactive)
REMARK    1  A    between atoms: C_2  and  C_17
REMARK    2  A    between atoms: N_3  and  N_4
REMARK    3  A    between atoms: C_9  and  C_10
REMARK    4  A    between atoms: C_14  and  O_15
REMARK    5  A    between atoms: C_19  and  O_20
REMARK    6  A    between atoms: C_21  and  O_22
REMARK    7  A    between atoms: C_23  and  O_24
REMARK                            x       y       z     vdW  Elec       q    Type
REMARK                         _______ _______ _______ _____ _____    ______ ____
ROOT
ATOM      1  O   UNL     1       3.700   2.877  17.374  0.00  0.00    +0.000 OA
ATOM      2  C   UNL     1       4.495   3.755  17.713  0.00  0.00    +0.000 C 
ATOM      3  N   UNL     1       4.620   4.217  19.017  0.00  0.00    +0.000 N 
ATOM      4  H   UNL     1       5.209   5.001  19.273  0.00  0.00    +0.000 HD
ENDROOT
BRANCH   3   5
ATOM      5  N   UNL     1       3.671   3.749  19.960  0.00  0.00    +0.000 N 
ATOM      6  C   UNL     1       3.856   2.514  20.578  0.00  0.00    +0.000 C 
ATOM      7  O   UNL     1       4.795   1.746  20.387  0.00  0.00    +0.000 OA
ATOM      8  C   UNL     1       2.722   2.204  21.531  0.00  0.00    +0.000 C 
ATOM      9  S   UNL     1       1.470   3.496  21.323  0.00  0.00    +0.000 S 
ATOM     10  C   UNL     1       2.307   4.223  19.888  0.00  0.00    +0.000 C 
BRANCH  10  11
ATOM     11  C   UNL     1       2.098   5.715  19.796  0.00  0.00    +0.000 A 
ATOM     12  C   UNL     1       1.589   6.475  20.860  0.00  0.00    +0.000 A 
ATOM     13  C   UNL     1       1.438   7.859  20.743  0.00  0.00    +0.000 A 
ATOM     14  C   UNL     1       1.769   8.504  19.554  0.00  0.00    +0.000 A 
ATOM     15  C   UNL     1       2.232   7.753  18.483  0.00  0.00    +0.000 A 
ATOM     16  C   UNL     1       2.387   6.373  18.587  0.00  0.00    +0.000 A 
BRANCH  15  17
ATOM     17  O   UNL     1       2.541   8.334  17.288  0.00  0.00    +0.000 OA
ATOM     18  H   UNL     1       3.480   8.167  17.092  0.00  0.00    +0.000 HD
ENDBRANCH  15  17
ENDBRANCH  10  11
ENDBRANCH   3   5
BRANCH   2  19
ATOM     19  C   UNL     1       5.376   4.340  16.664  0.00  0.00    +0.000 A 
ATOM     20  C   UNL     1       5.423   3.670  15.425  0.00  0.00    +0.000 A 
ATOM     21  C   UNL     1       6.336   4.063  14.455  0.00  0.00    +0.000 A 
ATOM     22  C   UNL     1       7.191   5.128  14.702  0.00  0.00    +0.000 A 
ATOM     23  C   UNL     1       7.124   5.810  15.911  0.00  0.00    +0.000 A 
ATOM     24  C   UNL     1       6.222   5.432  16.904  0.00  0.00    +0.000 A 
BRANCH  21  25
ATOM     25  O   UNL     1       6.451   3.415  13.257  0.00  0.00    +0.000 OA
ATOM     26  H   UNL     1       7.252   3.743  12.810  0.00  0.00    +0.000 HD
ENDBRANCH  21  25
BRANCH  22  27
ATOM     27  O   UNL     1       8.126   5.498  13.773  0.00  0.00    +0.000 OA
ATOM     28  H   UNL     1       7.629   5.536  12.930  0.00  0.00    +0.000 HD
ENDBRANCH  22  27
BRANCH  23  29
ATOM     29  O   UNL     1       7.984   6.847  16.147  0.00  0.00    +0.000 OA
ATOM     30  H   UNL     1       7.586   7.609  15.680  0.00  0.00    +0.000 HD
ENDBRANCH  23  29
ENDBRANCH   2  19
TORSDOF 7
ENDMDL
MODEL 7
REMARK VINA RESULT:      -7.6      2.654      6.332
REMARK  Name = 
REMARK  7 active torsions:
REMARK  status: ('A' for Active; 'I' for Inactive)
REMARK    1  A    between atoms: C_2  and  C_17
REMARK    2  A    between atoms: N_3  and  N_4
REMARK    3  A    between atoms: C_9  and  C_10
REMARK    4  A    between atoms: C_14  and  O_15
REMARK    5  A    between atoms: C_19  and  O_20
REMARK    6  A    between atoms: C_21  and  O_22
REMARK    7  A    between atoms: C_23  and  O_24
REMARK                            x       y       z     vdW  Elec       q    Type
REMARK                         _______ _______ _______ _____ _____    ______ ____
ROOT
ATOM      1  O   UNL     1       2.130   6.167  17.855  0.00  0.00    +0.000 OA
ATOM      2  C   UNL     1       2.304   6.644  18.978  0.00  0.00    +0.000 C 
ATOM      3  N   UNL     1       2.875   5.941  20.031  0.00  0.00    +0.000 N 
ATOM      4  H   UNL     1       2.933   6.306  20.975  0.00  0.00    +0.000 HD
ENDROOT
BRANCH   3   5
ATOM      5  N   UNL     1       3.123   4.560  19.825  0.00  0.00    +0.000 N 
ATOM      6  C   UNL     1       2.179   3.618  20.228  0.00  0.00    +0.000 C 
ATOM      7  O   UNL     1       1.104   3.859  20.768  0.00  0.00    +0.000 OA
ATOM      8  C   UNL     1       2.651   2.210  19.930  0.00  0.00    +0.000 C 
ATOM      9  S   UNL     1       4.362   2.325  19.347  0.00  0.00    +0.000 S 
ATOM     10  C   UNL     1       4.488   4.092  19.733  0.00  0.00    +0.000 C 
BRANCH  10  11
ATOM     11  C   UNL     1       5.407   4.823  18.785  0.00  0.00    +0.000 A 
ATOM     12  C   UNL     1       5.222   4.815  17.394  0.00  0.00    +0.000 A 
ATOM     13  C   UNL     1       6.079   5.530  16.554  0.00  0.00    +0.000 A 
ATOM     14  C   UNL     1       7.150   6.243  17.086  0.00  0.00    +0.000 A 
ATOM     15  C   UNL     1       7.366   6.220  18.456  0.00  0.00    +0.000 A 
ATOM     16  C   UNL     1       6.518   5.512  19.305  0.00  0.00    +0.000 A 
BRANCH  15  17
ATOM     17  O   UNL     1       8.418   6.878  19.023  0.00  0.00    +0.000 OA
ATOM     18  H   UNL     1       8.159   7.176  19.913  0.00  0.00    +0.000 HD
ENDBRANCH  15  17
ENDBRANCH  10  11
ENDBRANCH   3   5
BRANCH   2  19
ATOM     19  C   UNL     1       1.889   8.056  19.208  0.00  0.00    +0.000 A 
ATOM     20  C   UNL     1       2.137   8.970  18.164  0.00  0.00    +0.000 A 
ATOM     21  C   UNL     1       1.922  10.328  18.362  0.00  0.00    +0.000 A 
ATOM     22  C   UNL     1       1.448  10.781  19.585  0.00  0.00    +0.000 A 
ATOM     23  C   UNL     1       1.173   9.877  20.606  0.00  0.00    +0.000 A 
ATOM     24  C   UNL     1       1.386   8.510  20.434  0.00  0.00    +0.000 A 
BRANCH  21  25
ATOM     25  O   UNL     1       2.191  11.257  17.397  0.00  0.00    +0.000 OA
ATOM     26  H   UNL     1       3.126  11.518  17.478  0.00  0.00    +0.000 HD
ENDBRANCH  21  25
BRANCH  22  27
ATOM     27  O   UNL     1       1.274  12.120  19.811  0.00  0.00    +0.000 OA
ATOM     28  H   UNL     1       2.184  12.471  19.898  0.00  0.00    +0.000 HD
ENDBRANCH  22  27
BRANCH  23  29
ATOM     29  O   UNL     1       0.722  10.340  21.811  0.00  0.00    +0.000 OA
ATOM     30  H   UNL     1       1.304  11.098  22.018  0.00  0.00    +0.000 HD
ENDBRANCH  23  29
ENDBRANCH   2  19
TORSDOF 7
ENDMDL
MODEL 8
REMARK VINA RESULT:      -7.6      2.699      6.295
REMARK  Name = 
REMARK  7 active torsions:
REMARK  status: ('A' for Active; 'I' for Inactive)
REMARK    1  A    between atoms: C_2  and  C_17
REMARK    2  A    between atoms: N_3  and  N_4
REMARK    3  A    between atoms: C_9  and  C_10
REMARK    4  A    between atoms: C_14  and  O_15
REMARK    5  A    between atoms: C_19  and  O_20
REMARK    6  A    between atoms: C_21  and  O_22
REMARK    7  A    between atoms: C_23  and  O_24
REMARK                            x       y       z     vdW  Elec       q    Type
REMARK                         _______ _______ _______ _____ _____    ______ ____
ROOT
ATOM      1  O   UNL     1       2.246   5.604  20.922  0.00  0.00    +0.000 OA
ATOM      2  C   UNL     1       2.179   6.115  19.803  0.00  0.00    +0.000 C 
ATOM      3  N   UNL     1       2.332   5.400  18.622  0.00  0.00    +0.000 N 
ATOM      4  H   UNL     1       2.367   5.839  17.709  0.00  0.00    +0.000 HD
ENDROOT
BRANCH   3   5
ATOM      5  N   UNL     1       2.735   4.045  18.735  0.00  0.00    +0.000 N 
ATOM      6  C   UNL     1       1.788   3.058  18.997  0.00  0.00    +0.000 C 
ATOM      7  O   UNL     1       0.583   3.238  19.150  0.00  0.00    +0.000 OA
ATOM      8  C   UNL     1       2.433   1.693  19.094  0.00  0.00    +0.000 C 
ATOM      9  S   UNL     1       4.227   1.936  19.027  0.00  0.00    +0.000 S 
ATOM     10  C   UNL     1       4.093   3.741  19.127  0.00  0.00    +0.000 C 
BRANCH  10  11
ATOM     11  C   UNL     1       5.202   4.442  18.380  0.00  0.00    +0.000 A 
ATOM     12  C   UNL     1       5.311   4.408  16.981  0.00  0.00    +0.000 A 
ATOM     13  C   UNL     1       6.337   5.095  16.327  0.00  0.00    +0.000 A 
ATOM     14  C   UNL     1       7.285   5.805  17.059  0.00  0.00    +0.000 A 
ATOM     15  C   UNL     1       7.209   5.807  18.444  0.00  0.00    +0.000 A 
ATOM     16  C   UNL     1       6.191   5.128  19.109  0.00  0.00    +0.000 A 
BRANCH  15  17
ATOM     17  O   UNL     1       8.130   6.464  19.207  0.00  0.00    +0.000 OA
ATOM     18  H   UNL     1       8.218   7.375  18.876  0.00  0.00    +0.000 HD
ENDBRANCH  15  17
ENDBRANCH  10  11
ENDBRANCH   3   5
BRANCH   2  19
ATOM     19  C   UNL     1       1.906   7.576  19.719  0.00  0.00    +0.000 A 
ATOM     20  C   UNL     1       1.307   8.177  20.844  0.00  0.00    +0.000 A 
ATOM     21  C   UNL     1       0.880   9.498  20.784  0.00  0.00    +0.000 A 
ATOM     22  C   UNL     1       1.061  10.229  19.618  0.00  0.00    +0.000 A 
ATOM     23  C   UNL     1       1.680   9.647  18.518  0.00  0.00    +0.000 A 
ATOM     24  C   UNL     1       2.111   8.322  18.551  0.00  0.00    +0.000 A 
BRANCH  21  25
ATOM     25  O   UNL     1       0.252  10.110  21.832  0.00  0.00    +0.000 OA
ATOM     26  H   UNL     1      -0.032  10.995  21.541  0.00  0.00    +0.000 HD
ENDBRANCH  21  25
BRANCH  22  27
ATOM     27  O   UNL     1       0.605  11.517  19.529  0.00  0.00    +0.000 OA
ATOM     28  H   UNL     1       0.127  11.664  20.370  0.00  0.00    +0.000 HD
ENDBRANCH  22  27
BRANCH  23  29
ATOM     29  O   UNL     1       1.836  10.375  17.371  0.00  0.00    +0.000 OA
ATOM     30  H   UNL     1       1.969   9.706  16.670  0.00  0.00    +0.000 HD
ENDBRANCH  23  29
ENDBRANCH   2  19
TORSDOF 7
ENDMDL
MODEL 9
REMARK VINA RESULT:      -7.6      2.757      7.095
REMARK  Name = 
REMARK  7 active torsions:
REMARK  status: ('A' for Active; 'I' for Inactive)
REMARK    1  A    between atoms: C_2  and  C_17
REMARK    2  A    between atoms: N_3  and  N_4
REMARK    3  A    between atoms: C_9  and  C_10
REMARK    4  A    between atoms: C_14  and  O_15
REMARK    5  A    between atoms: C_19  and  O_20
REMARK    6  A    between atoms: C_21  and  O_22
REMARK    7  A    between atoms: C_23  and  O_24
REMARK                            x       y       z     vdW  Elec       q    Type
REMARK                         _______ _______ _______ _____ _____    ______ ____
ROOT
ATOM      1  O   UNL     1       3.303   7.896  16.537  0.00  0.00    +0.000 OA
ATOM      2  C   UNL     1       3.239   7.622  17.737  0.00  0.00    +0.000 C 
ATOM      3  N   UNL     1       4.095   6.729  18.368  0.00  0.00    +0.000 N 
ATOM      4  H   UNL     1       3.981   6.438  19.332  0.00  0.00    +0.000 HD
ENDROOT
BRANCH   3   5
ATOM      5  N   UNL     1       4.984   5.994  17.543  0.00  0.00    +0.000 N 
ATOM      6  C   UNL     1       6.180   6.572  17.123  0.00  0.00    +0.000 C 
ATOM      7  O   UNL     1       6.571   7.702  17.399  0.00  0.00    +0.000 OA
ATOM      8  C   UNL     1       6.965   5.624  16.241  0.00  0.00    +0.000 C 
ATOM      9  S   UNL     1       5.915   4.182  15.927  0.00  0.00    +0.000 S 
ATOM     10  C   UNL     1       4.462   4.937  16.705  0.00  0.00    +0.000 C 
BRANCH  10  11
ATOM     11  C   UNL     1       3.565   3.915  17.362  0.00  0.00    +0.000 A 
ATOM     12  C   UNL     1       2.214   4.165  17.647  0.00  0.00    +0.000 A 
ATOM     13  C   UNL     1       1.412   3.181  18.229  0.00  0.00    +0.000 A 
ATOM     14  C   UNL     1       1.950   1.940  18.559  0.00  0.00    +0.000 A 
ATOM     15  C   UNL     1       3.295   1.700  18.319  0.00  0.00    +0.000 A 
ATOM     16  C   UNL     1       4.106   2.672  17.739  0.00  0.00    +0.000 A 
BRANCH  15  17
ATOM     17  O   UNL     1       3.876   0.511  18.651  0.00  0.00    +0.000 OA
ATOM     18  H   UNL     1       3.956  -0.034  17.848  0.00  0.00    +0.000 HD
ENDBRANCH  15  17
ENDBRANCH  10  11
ENDBRANCH   3   5
BRANCH   2  19
ATOM     19  C   UNL     1       2.190   8.297  18.550  0.00  0.00    +0.000 A 
ATOM     20  C   UNL     1       1.498   9.362  17.940  0.00  0.00    +0.000 A 
ATOM     21  C   UNL     1       0.619  10.139  18.683  0.00  0.00    +0.000 A 
ATOM     22  C   UNL     1       0.412   9.854  20.026  0.00  0.00    +0.000 A 
ATOM     23  C   UNL     1       1.071   8.785  20.622  0.00  0.00    +0.000 A 
ATOM     24  C   UNL     1       1.962   7.994  19.899  0.00  0.00    +0.000 A 
BRANCH  21  25
ATOM     25  O   UNL     1      -0.040  11.210  18.147  0.00  0.00    +0.000 OA
ATOM     26  H   UNL     1      -0.946  10.928  17.924  0.00  0.00    +0.000 HD
ENDBRANCH  21  25
BRANCH  22  27
ATOM     27  O   UNL     1      -0.416  10.639  20.783  0.00  0.00    +0.000 OA
ATOM     28  H   UNL     1       0.177  11.047  21.447  0.00  0.00    +0.000 HD
ENDBRANCH  22  27
BRANCH  23  29
ATOM     29  O   UNL     1       0.869   8.527  21.950  0.00  0.00    +0.000 OA
ATOM     30  H   UNL     1       1.386   9.214  22.416  0.00  0.00    +0.000 HD
ENDBRANCH  23  29
ENDBRANCH   2  19
TORSDOF 7
ENDMDL
