MODEL 1
REMARK VINA RESULT:      -8.9      0.000      0.000
REMARK  Name = 
REMARK  9 active torsions:
REMARK  status: ('A' for Active; 'I' for Inactive)
REMARK    1  A    between atoms: C_1  and  C_2
REMARK    2  A    between atoms: C_5  and  C_6
REMARK    3  A    between atoms: C_9  and  N_10
REMARK    4  A    between atoms: N_10  and  C_11
REMARK    5  A    between atoms: C_14  and  C_15
REMARK    6  A    between atoms: N_17  and  C_18
REMARK    7  A    between atoms: N_17  and  C_19
REMARK    8  A    between atoms: C_29  and  S_30
REMARK    9  A    between atoms: S_30  and  N_31
REMARK                            x       y       z     vdW  Elec       q    Type
REMARK                         _______ _______ _______ _____ _____    ______ ____
ROOT
ATOM      1  C   UNL     1       1.757   8.195  19.645  0.00  0.00    +0.000 A 
ATOM      2  N   UNL     1       1.890   8.611  18.368  0.00  0.00    +0.000 NA
ATOM      3  N   UNL     1       1.344   9.791  17.956  0.00  0.00    +0.000 NA
ATOM      4  C   UNL     1       0.612  10.558  18.790  0.00  0.00    +0.000 A 
ATOM      5  C   UNL     1       0.457  10.191  20.143  0.00  0.00    +0.000 A 
ATOM      6  C   UNL     1      -0.338  10.925  21.057  0.00  0.00    +0.000 A 
ATOM      7  C   UNL     1      -0.462  10.546  22.395  0.00  0.00    +0.000 A 
ATOM      8  C   UNL     1       0.244   9.452  22.865  0.00  0.00    +0.000 A 
ATOM      9  C   UNL     1       1.033   8.714  21.985  0.00  0.00    +0.000 A 
ATOM     10  C   UNL     1       1.101   9.009  20.599  0.00  0.00    +0.000 A 
ENDROOT
BRANCH   1  15
ATOM     11  C   UNL     1       3.454   2.624  20.269  0.00  0.00    +0.000 C 
ATOM     12  C   UNL     1       3.091   4.070  20.099  0.00  0.00    +0.000 A 
ATOM     13  C   UNL     1       1.969   4.549  20.785  0.00  0.00    +0.000 A 
ATOM     14  C   UNL     1       1.530   5.865  20.623  0.00  0.00    +0.000 A 
ATOM     15  C   UNL     1       2.236   6.802  19.853  0.00  0.00    +0.000 A 
ATOM     16  C   UNL     1       3.367   6.314  19.165  0.00  0.00    +0.000 A 
ATOM     17  C   UNL     1       3.765   4.962  19.251  0.00  0.00    +0.000 A 
BRANCH  17  18
ATOM     18  S   UNL     1       5.082   4.446  18.158  0.00  0.00    +0.000 S 
ATOM     19  O   UNL     1       6.273   4.199  18.938  0.00  0.00    +0.000 OA
ATOM     20  O   UNL     1       4.604   3.492  17.185  0.00  0.00    +0.000 OA
BRANCH  18  21
ATOM     21  N   UNL     1       5.366   5.870  17.320  0.00  0.00    +0.000 NA
ATOM     22  H   UNL     1       4.493   6.227  16.934  0.00  0.00    +0.000 HD
ATOM     23  H   UNL     1       5.873   6.532  17.905  0.00  0.00    +0.000 HD
ENDBRANCH  18  21
ENDBRANCH  17  18
ENDBRANCH   1  15
BRANCH   4  24
ATOM     24  N   UNL     1      -0.012  11.731  18.268  0.00  0.00    +0.000 N 
ATOM     25  H   UNL     1      -0.999  11.717  18.487  0.00  0.00    +0.000 HD
BRANCH  24  26
ATOM     26  C   UNL     1       0.566  13.017  18.414  0.00  0.00    +0.000 A 
ATOM     27  C   UNL     1       1.951  13.188  18.259  0.00  0.00    +0.000 A 
ATOM     28  C   UNL     1       2.573  14.409  18.539  0.00  0.00    +0.000 A 
ATOM     29  C   UNL     1       1.828  15.472  19.040  0.00  0.00    +0.000 A 
ATOM     30  C   UNL     1       0.427  15.339  19.094  0.00  0.00    +0.000 A 
ATOM     31  C   UNL     1      -0.201  14.126  18.774  0.00  0.00    +0.000 A 
BRANCH  29  32
ATOM     32  C   UNL     1       2.417  16.780  19.450  0.00  0.00    +0.000 C 
ATOM     33  O   UNL     1       2.490  17.631  18.556  0.00  0.00    +0.000 OA
ATOM     34  N   UNL     1       2.824  17.060  20.763  0.00  0.00    +0.000 N 
ATOM     35  C   UNL     1       2.678  16.229  21.951  0.00  0.00    +0.000 C 
ATOM     36  C   UNL     1       3.257  18.424  21.051  0.00  0.00    +0.000 C 
ENDBRANCH  29  32
ENDBRANCH  24  26
ENDBRANCH   4  24
TORSDOF 6
ENDMDL
MODEL 2
REMARK VINA RESULT:      -8.6      4.570      9.718
REMARK  Name = 
REMARK  9 active torsions:
REMARK  status: ('A' for Active; 'I' for Inactive)
REMARK    1  A    between atoms: C_1  and  C_2
REMARK    2  A    between atoms: C_5  and  C_6
REMARK    3  A    between atoms: C_9  and  N_10
REMARK    4  A    between atoms: N_10  and  C_11
REMARK    5  A    between atoms: C_14  and  C_15
REMARK    6  A    between atoms: N_17  and  C_18
REMARK    7  A    between atoms: N_17  and  C_19
REMARK    8  A    between atoms: C_29  and  S_30
REMARK    9  A    between atoms: S_30  and  N_31
REMARK                            x       y       z     vdW  Elec       q    Type
REMARK                         _______ _______ _______ _____ _____    ______ ____
ROOT
ATOM      1  C   UNL     1      -0.826  12.074  20.569  0.00  0.00    +0.000 A 
ATOM      2  N   UNL     1       0.497  11.822  20.650  0.00  0.00    +0.000 NA
ATOM      3  N   UNL     1       1.126  11.072  19.700  0.00  0.00    +0.000 NA
ATOM      4  C   UNL     1       0.445  10.514  18.678  0.00  0.00    +0.000 A 
ATOM      5  C   UNL     1      -0.935  10.761  18.524  0.00  0.00    +0.000 A 
ATOM      6  C   UNL     1      -1.717  10.167  17.502  0.00  0.00    +0.000 A 
ATOM      7  C   UNL     1      -3.079  10.440  17.365  0.00  0.00    +0.000 A 
ATOM      8  C   UNL     1      -3.684  11.351  18.214  0.00  0.00    +0.000 A 
ATOM      9  C   UNL     1      -2.935  11.948  19.226  0.00  0.00    +0.000 A 
ATOM     10  C   UNL     1      -1.576  11.617  19.459  0.00  0.00    +0.000 A 
ENDROOT
BRANCH   1  15
ATOM     11  C   UNL     1      -3.007  14.879  25.225  0.00  0.00    +0.000 C 
ATOM     12  C   UNL     1      -2.494  14.104  24.047  0.00  0.00    +0.000 A 
ATOM     13  C   UNL     1      -1.161  14.294  23.667  0.00  0.00    +0.000 A 
ATOM     14  C   UNL     1      -0.633  13.659  22.540  0.00  0.00    +0.000 A 
ATOM     15  C   UNL     1      -1.367  12.727  21.791  0.00  0.00    +0.000 A 
ATOM     16  C   UNL     1      -2.710  12.538  22.179  0.00  0.00    +0.000 A 
ATOM     17  C   UNL     1      -3.279  13.246  23.262  0.00  0.00    +0.000 A 
BRANCH  17  18
ATOM     18  S   UNL     1      -5.042  13.063  23.496  0.00  0.00    +0.000 S 
ATOM     19  O   UNL     1      -5.279  12.140  24.583  0.00  0.00    +0.000 OA
ATOM     20  O   UNL     1      -5.708  14.343  23.432  0.00  0.00    +0.000 OA
BRANCH  18  21
ATOM     21  N   UNL     1      -5.459  12.244  22.095  0.00  0.00    +0.000 NA
ATOM     22  H   UNL     1      -6.004  12.853  21.485  0.00  0.00    +0.000 HD
ATOM     23  H   UNL     1      -4.631  11.839  21.660  0.00  0.00    +0.000 HD
ENDBRANCH  18  21
ENDBRANCH  17  18
ENDBRANCH   1  15
BRANCH   4  24
ATOM     24  N   UNL     1       1.148   9.660  17.774  0.00  0.00    +0.000 N 
ATOM     25  H   UNL     1       1.598  10.219  17.061  0.00  0.00    +0.000 HD
BRANCH  24  26
ATOM     26  C   UNL     1       1.958   8.591  18.230  0.00  0.00    +0.000 A 
ATOM     27  C   UNL     1       2.962   8.064  17.402  0.00  0.00    +0.000 A 
ATOM     28  C   UNL     1       3.680   6.919  17.759  0.00  0.00    +0.000 A 
ATOM     29  C   UNL     1       3.367   6.237  18.931  0.00  0.00    +0.000 A 
ATOM     30  C   UNL     1       2.439   6.821  19.815  0.00  0.00    +0.000 A 
ATOM     31  C   UNL     1       1.746   7.993  19.473  0.00  0.00    +0.000 A 
BRANCH  29  32
ATOM     32  C   UNL     1       4.016   4.961  19.350  0.00  0.00    +0.000 C 
ATOM     33  O   UNL     1       5.174   5.069  19.771  0.00  0.00    +0.000 OA
ATOM     34  N   UNL     1       3.361   3.721  19.318  0.00  0.00    +0.000 N 
ATOM     35  C   UNL     1       1.969   3.442  18.988  0.00  0.00    +0.000 C 
ATOM     36  C   UNL     1       4.070   2.577  19.882  0.00  0.00    +0.000 C 
ENDBRANCH  29  32
ENDBRANCH  24  26
ENDBRANCH   4  24
TORSDOF 6
ENDMDL
MODEL 3
REMARK VINA RESULT:      -8.6      3.522      4.872
REMARK  Name = 
REMARK  9 active torsions:
REMARK  status: ('A' for Active; 'I' for Inactive)
REMARK    1  A    between atoms: C_1  and  C_2
REMARK    2  A    between atoms: C_5  and  C_6
REMARK    3  A    between atoms: C_9  and  N_10
REMARK    4  A    between atoms: N_10  and  C_11
REMARK    5  A    between atoms: C_14  and  C_15
REMARK    6  A    between atoms: N_17  and  C_18
REMARK    7  A    between atoms: N_17  and  C_19
REMARK    8  A    between atoms: C_29  and  S_30
REMARK    9  A    between atoms: S_30  and  N_31
REMARK                            x       y       z     vdW  Elec       q    Type
REMARK                         _______ _______ _______ _____ _____    ______ ____
ROOT
ATOM      1  C   UNL     1       1.830   8.041  19.519  0.00  0.00    +0.000 A 
ATOM      2  N   UNL     1       1.844   8.437  18.228  0.00  0.00    +0.000 NA
ATOM      3  N   UNL     1       1.216   9.583  17.841  0.00  0.00    +0.000 NA
ATOM      4  C   UNL     1       0.516  10.334  18.717  0.00  0.00    +0.000 A 
ATOM      5  C   UNL     1       0.483   9.987  20.083  0.00  0.00    +0.000 A 
ATOM      6  C   UNL     1      -0.271  10.704  21.045  0.00  0.00    +0.000 A 
ATOM      7  C   UNL     1      -0.274  10.347  22.394  0.00  0.00    +0.000 A 
ATOM      8  C   UNL     1       0.515   9.294  22.826  0.00  0.00    +0.000 A 
ATOM      9  C   UNL     1       1.266   8.575  21.899  0.00  0.00    +0.000 A 
ATOM     10  C   UNL     1       1.214   8.845  20.508  0.00  0.00    +0.000 A 
ENDROOT
BRANCH   1  15
ATOM     11  C   UNL     1       3.832   2.566  20.089  0.00  0.00    +0.000 C 
ATOM     12  C   UNL     1       3.389   3.992  19.931  0.00  0.00    +0.000 A 
ATOM     13  C   UNL     1       2.265   4.412  20.650  0.00  0.00    +0.000 A 
ATOM     14  C   UNL     1       1.753   5.704  20.502  0.00  0.00    +0.000 A 
ATOM     15  C   UNL     1       2.386   6.675  19.712  0.00  0.00    +0.000 A 
ATOM     16  C   UNL     1       3.521   6.246  18.990  0.00  0.00    +0.000 A 
ATOM     17  C   UNL     1       3.990   4.916  19.063  0.00  0.00    +0.000 A 
BRANCH  17  18
ATOM     18  S   UNL     1       5.300   4.469  17.931  0.00  0.00    +0.000 S 
ATOM     19  O   UNL     1       6.515   4.247  18.680  0.00  0.00    +0.000 OA
ATOM     20  O   UNL     1       4.832   3.518  16.949  0.00  0.00    +0.000 OA
BRANCH  18  21
ATOM     21  N   UNL     1       5.516   5.918  17.117  0.00  0.00    +0.000 NA
ATOM     22  H   UNL     1       5.028   6.668  17.605  0.00  0.00    +0.000 HD
ATOM     23  H   UNL     1       6.507   6.091  16.956  0.00  0.00    +0.000 HD
ENDBRANCH  18  21
ENDBRANCH  17  18
ENDBRANCH   1  15
BRANCH   4  24
ATOM     24  N   UNL     1      -0.199  11.468  18.225  0.00  0.00    +0.000 N 
ATOM     25  H   UNL     1       0.164  11.731  17.319  0.00  0.00    +0.000 HD
BRANCH  24  26
ATOM     26  C   UNL     1      -1.612  11.553  18.299  0.00  0.00    +0.000 A 
ATOM     27  C   UNL     1      -2.218  12.505  19.134  0.00  0.00    +0.000 A 
ATOM     28  C   UNL     1      -3.601  12.522  19.343  0.00  0.00    +0.000 A 
ATOM     29  C   UNL     1      -4.404  11.544  18.765  0.00  0.00    +0.000 A 
ATOM     30  C   UNL     1      -3.817  10.656  17.843  0.00  0.00    +0.000 A 
ATOM     31  C   UNL     1      -2.435  10.666  17.603  0.00  0.00    +0.000 A 
BRANCH  29  32
ATOM     32  C   UNL     1      -5.873  11.428  19.000  0.00  0.00    +0.000 C 
ATOM     33  O   UNL     1      -6.515  10.895  18.088  0.00  0.00    +0.000 OA
ATOM     34  N   UNL     1      -6.495  11.849  20.186  0.00  0.00    +0.000 N 
ATOM     35  C   UNL     1      -5.874  12.361  21.400  0.00  0.00    +0.000 C 
ATOM     36  C   UNL     1      -7.916  11.553  20.335  0.00  0.00    +0.000 C 
ENDBRANCH  29  32
ENDBRANCH  24  26
ENDBRANCH   4  24
TORSDOF 6
ENDMDL
MODEL 4
REMARK VINA RESULT:      -8.5      1.298      1.623
REMARK  Name = 
REMARK  9 active torsions:
REMARK  status: ('A' for Active; 'I' for Inactive)
REMARK    1  A    between atoms: C_1  and  C_2
REMARK    2  A    between atoms: C_5  and  C_6
REMARK    3  A    between atoms: C_9  and  N_10
REMARK    4  A    between atoms: N_10  and  C_11
REMARK    5  A    between atoms: C_14  and  C_15
REMARK    6  A    between atoms: N_17  and  C_18
REMARK    7  A    between atoms: N_17  and  C_19
REMARK    8  A    between atoms: C_29  and  S_30
REMARK    9  A    between atoms: S_30  and  N_31
REMARK                            x       y       z     vdW  Elec       q    Type
REMARK                         _______ _______ _______ _____ _____    ______ ____
ROOT
ATOM      1  C   UNL     1       2.302   7.927  18.561  0.00  0.00    +0.000 A 
ATOM      2  N   UNL     1       2.535   8.692  17.474  0.00  0.00    +0.000 NA
ATOM      3  N   UNL     1       2.042   9.961  17.394  0.00  0.00    +0.000 NA
ATOM      4  C   UNL     1       1.263  10.477  18.368  0.00  0.00    +0.000 A 
ATOM      5  C   UNL     1       1.004   9.737  19.539  0.00  0.00    +0.000 A 
ATOM      6  C   UNL     1       0.157  10.200  20.576  0.00  0.00    +0.000 A 
ATOM      7  C   UNL     1      -0.071   9.452  21.731  0.00  0.00    +0.000 A 
ATOM      8  C   UNL     1       0.580   8.242  21.903  0.00  0.00    +0.000 A 
ATOM      9  C   UNL     1       1.418   7.765  20.898  0.00  0.00    +0.000 A 
ATOM     10  C   UNL     1       1.593   8.450  19.668  0.00  0.00    +0.000 A 
ENDROOT
BRANCH   1  15
ATOM     11  C   UNL     1       3.936   2.387  17.581  0.00  0.00    +0.000 C 
ATOM     12  C   UNL     1       3.586   3.821  17.858  0.00  0.00    +0.000 A 
ATOM     13  C   UNL     1       2.262   4.117  18.200  0.00  0.00    +0.000 A 
ATOM     14  C   UNL     1       1.847   5.436  18.405  0.00  0.00    +0.000 A 
ATOM     15  C   UNL     1       2.741   6.516  18.381  0.00  0.00    +0.000 A 
ATOM     16  C   UNL     1       4.075   6.211  18.037  0.00  0.00    +0.000 A 
ATOM     17  C   UNL     1       4.484   4.892  17.738  0.00  0.00    +0.000 A 
BRANCH  17  18
ATOM     18  S   UNL     1       6.146   4.695  17.111  0.00  0.00    +0.000 S 
ATOM     19  O   UNL     1       7.032   4.397  18.213  0.00  0.00    +0.000 OA
ATOM     20  O   UNL     1       6.153   3.906  15.901  0.00  0.00    +0.000 OA
BRANCH  18  21
ATOM     21  N   UNL     1       6.494   6.268  16.650  0.00  0.00    +0.000 NA
ATOM     22  H   UNL     1       7.319   6.281  16.051  0.00  0.00    +0.000 HD
ATOM     23  H   UNL     1       5.670   6.711  16.247  0.00  0.00    +0.000 HD
ENDBRANCH  18  21
ENDBRANCH  17  18
ENDBRANCH   1  15
BRANCH   4  24
ATOM     24  N   UNL     1       0.700  11.775  18.175  0.00  0.00    +0.000 N 
ATOM     25  H   UNL     1      -0.294  11.745  18.365  0.00  0.00    +0.000 HD
BRANCH  24  26
ATOM     26  C   UNL     1       1.322  12.945  18.676  0.00  0.00    +0.000 A 
ATOM     27  C   UNL     1       0.581  13.868  19.433  0.00  0.00    +0.000 A 
ATOM     28  C   UNL     1       1.121  15.099  19.819  0.00  0.00    +0.000 A 
ATOM     29  C   UNL     1       2.398  15.461  19.402  0.00  0.00    +0.000 A 
ATOM     30  C   UNL     1       3.182  14.498  18.737  0.00  0.00    +0.000 A 
ATOM     31  C   UNL     1       2.653  13.247  18.385  0.00  0.00    +0.000 A 
BRANCH  29  32
ATOM     32  C   UNL     1       3.022  16.785  19.689  0.00  0.00    +0.000 C 
ATOM     33  O   UNL     1       2.799  17.668  18.852  0.00  0.00    +0.000 OA
ATOM     34  N   UNL     1       3.777  17.044  20.843  0.00  0.00    +0.000 N 
ATOM     35  C   UNL     1       4.014  16.167  21.983  0.00  0.00    +0.000 C 
ATOM     36  C   UNL     1       4.215  18.419  21.060  0.00  0.00    +0.000 C 
ENDBRANCH  29  32
ENDBRANCH  24  26
ENDBRANCH   4  24
TORSDOF 6
ENDMDL
MODEL 5
REMARK VINA RESULT:      -8.5      3.642      4.929
REMARK  Name = 
REMARK  9 active torsions:
REMARK  status: ('A' for Active; 'I' for Inactive)
REMARK    1  A    between atoms: C_1  and  C_2
REMARK    2  A    between atoms: C_5  and  C_6
REMARK    3  A    between atoms: C_9  and  N_10
REMARK    4  A    between atoms: N_10  and  C_11
REMARK    5  A    between atoms: C_14  and  C_15
REMARK    6  A    between atoms: N_17  and  C_18
REMARK    7  A    between atoms: N_17  and  C_19
REMARK    8  A    between atoms: C_29  and  S_30
REMARK    9  A    between atoms: S_30  and  N_31
REMARK                            x       y       z     vdW  Elec       q    Type
REMARK                         _______ _______ _______ _____ _____    ______ ____
ROOT
ATOM      1  C   UNL     1       2.468   8.051  18.369  0.00  0.00    +0.000 A 
ATOM      2  N   UNL     1       2.546   8.968  17.383  0.00  0.00    +0.000 NA
ATOM      3  N   UNL     1       1.861  10.145  17.466  0.00  0.00    +0.000 NA
ATOM      4  C   UNL     1       1.043  10.412  18.505  0.00  0.00    +0.000 A 
ATOM      5  C   UNL     1       0.937   9.504  19.579  0.00  0.00    +0.000 A 
ATOM      6  C   UNL     1       0.061   9.701  20.675  0.00  0.00    +0.000 A 
ATOM      7  C   UNL     1      -0.013   8.792  21.732  0.00  0.00    +0.000 A 
ATOM      8  C   UNL     1       0.822   7.688  21.745  0.00  0.00    +0.000 A 
ATOM      9  C   UNL     1       1.692   7.473  20.678  0.00  0.00    +0.000 A 
ATOM     10  C   UNL     1       1.721   8.319  19.541  0.00  0.00    +0.000 A 
ENDROOT
BRANCH   1  15
ATOM     11  C   UNL     1       4.899   2.992  16.692  0.00  0.00    +0.000 C 
ATOM     12  C   UNL     1       4.343   4.310  17.148  0.00  0.00    +0.000 A 
ATOM     13  C   UNL     1       3.007   4.350  17.559  0.00  0.00    +0.000 A 
ATOM     14  C   UNL     1       2.400   5.552  17.931  0.00  0.00    +0.000 A 
ATOM     15  C   UNL     1       3.113   6.758  18.010  0.00  0.00    +0.000 A 
ATOM     16  C   UNL     1       4.461   6.712  17.595  0.00  0.00    +0.000 A 
ATOM     17  C   UNL     1       5.056   5.519  17.130  0.00  0.00    +0.000 A 
BRANCH  17  18
ATOM     18  S   UNL     1       6.698   5.662  16.438  0.00  0.00    +0.000 S 
ATOM     19  O   UNL     1       7.606   4.842  17.206  0.00  0.00    +0.000 OA
ATOM     20  O   UNL     1       6.658   5.601  14.995  0.00  0.00    +0.000 OA
BRANCH  18  21
ATOM     21  N   UNL     1       7.063   7.250  16.832  0.00  0.00    +0.000 NA
ATOM     22  H   UNL     1       7.413   7.300  17.788  0.00  0.00    +0.000 HD
ATOM     23  H   UNL     1       7.683   7.656  16.131  0.00  0.00    +0.000 HD
ENDBRANCH  18  21
ENDBRANCH  17  18
ENDBRANCH   1  15
BRANCH   4  24
ATOM     24  N   UNL     1       0.280  11.619  18.481  0.00  0.00    +0.000 N 
ATOM     25  H   UNL     1       0.626  12.223  17.747  0.00  0.00    +0.000 HD
BRANCH  24  26
ATOM     26  C   UNL     1      -1.134  11.614  18.570  0.00  0.00    +0.000 A 
ATOM     27  C   UNL     1      -1.892  10.815  17.699  0.00  0.00    +0.000 A 
ATOM     28  C   UNL     1      -3.288  10.895  17.661  0.00  0.00    +0.000 A 
ATOM     29  C   UNL     1      -3.955  11.824  18.454  0.00  0.00    +0.000 A 
ATOM     30  C   UNL     1      -3.209  12.548  19.404  0.00  0.00    +0.000 A 
ATOM     31  C   UNL     1      -1.812  12.438  19.470  0.00  0.00    +0.000 A 
BRANCH  29  32
ATOM     32  C   UNL     1      -5.430  12.043  18.416  0.00  0.00    +0.000 C 
ATOM     33  O   UNL     1      -5.948  11.970  17.296  0.00  0.00    +0.000 OA
ATOM     34  N   UNL     1      -6.201  12.273  19.566  0.00  0.00    +0.000 N 
ATOM     35  C   UNL     1      -5.774  12.250  20.959  0.00  0.00    +0.000 C 
ATOM     36  C   UNL     1      -7.648  12.337  19.397  0.00  0.00    +0.000 C 
ENDBRANCH  29  32
ENDBRANCH  24  26
ENDBRANCH   4  24
TORSDOF 6
ENDMDL
MODEL 6
REMARK VINA RESULT:      -8.4      3.388      4.827
REMARK  Name = 
REMARK  9 active torsions:
REMARK  status: ('A' for Active; 'I' for Inactive)
REMARK    1  A    between atoms: C_1  and  C_2
REMARK    2  A    between atoms: C_5  and  C_6
REMARK    3  A    between atoms: C_9  and  N_10
REMARK    4  A    between atoms: N_10  and  C_11
REMARK    5  A    between atoms: C_14  and  C_15
REMARK    6  A    between atoms: N_17  and  C_18
REMARK    7  A    between atoms: N_17  and  C_19
REMARK    8  A    between atoms: C_29  and  S_30
REMARK    9  A    between atoms: S_30  and  N_31
REMARK                            x       y       z     vdW  Elec       q    Type
REMARK                         _______ _______ _______ _____ _____    ______ ____
ROOT
ATOM      1  C   UNL     1       2.229   8.089  18.522  0.00  0.00    +0.000 A 
ATOM      2  N   UNL     1       2.351   8.908  17.457  0.00  0.00    +0.000 NA
ATOM      3  N   UNL     1       1.805  10.158  17.469  0.00  0.00    +0.000 NA
ATOM      4  C   UNL     1       1.083  10.601  18.520  0.00  0.00    +0.000 A 
ATOM      5  C   UNL     1       0.940   9.802  19.673  0.00  0.00    +0.000 A 
ATOM      6  C   UNL     1       0.156  10.187  20.788  0.00  0.00    +0.000 A 
ATOM      7  C   UNL     1       0.044   9.382  21.923  0.00  0.00    +0.000 A 
ATOM      8  C   UNL     1       0.752   8.194  21.992  0.00  0.00    +0.000 A 
ATOM      9  C   UNL     1       1.529   7.794  20.908  0.00  0.00    +0.000 A 
ATOM     10  C   UNL     1       1.585   8.536  19.701  0.00  0.00    +0.000 A 
ENDROOT
BRANCH   1  15
ATOM     11  C   UNL     1       4.001   2.670  17.176  0.00  0.00    +0.000 C 
ATOM     12  C   UNL     1       3.616   4.074  17.545  0.00  0.00    +0.000 A 
ATOM     13  C   UNL     1       2.299   4.305  17.955  0.00  0.00    +0.000 A 
ATOM     14  C   UNL     1       1.850   5.595  18.249  0.00  0.00    +0.000 A 
ATOM     15  C   UNL     1       2.706   6.706  18.247  0.00  0.00    +0.000 A 
ATOM     16  C   UNL     1       4.034   6.467  17.834  0.00  0.00    +0.000 A 
ATOM     17  C   UNL     1       4.472   5.181  17.447  0.00  0.00    +0.000 A 
BRANCH  17  18
ATOM     18  S   UNL     1       6.113   5.076  16.744  0.00  0.00    +0.000 S 
ATOM     19  O   UNL     1       6.098   4.131  15.651  0.00  0.00    +0.000 OA
ATOM     20  O   UNL     1       6.700   6.388  16.602  0.00  0.00    +0.000 OA
BRANCH  18  21
ATOM     21  N   UNL     1       6.939   4.325  17.994  0.00  0.00    +0.000 NA
ATOM     22  H   UNL     1       7.379   5.024  18.591  0.00  0.00    +0.000 HD
ATOM     23  H   UNL     1       6.328   3.673  18.483  0.00  0.00    +0.000 HD
ENDBRANCH  18  21
ENDBRANCH  17  18
ENDBRANCH   1  15
BRANCH   4  24
ATOM     24  N   UNL     1       0.457  11.881  18.426  0.00  0.00    +0.000 N 
ATOM     25  H   UNL     1       0.805  12.370  17.611  0.00  0.00    +0.000 HD
BRANCH  24  26
ATOM     26  C   UNL     1      -0.936  12.050  18.618  0.00  0.00    +0.000 A 
ATOM     27  C   UNL     1      -1.410  12.923  19.611  0.00  0.00    +0.000 A 
ATOM     28  C   UNL     1      -2.770  13.005  19.924  0.00  0.00    +0.000 A 
ATOM     29  C   UNL     1      -3.684  12.168  19.291  0.00  0.00    +0.000 A 
ATOM     30  C   UNL     1      -3.229  11.372  18.222  0.00  0.00    +0.000 A 
ATOM     31  C   UNL     1      -1.869  11.320  17.880  0.00  0.00    +0.000 A 
BRANCH  29  32
ATOM     32  C   UNL     1      -5.138  12.121  19.622  0.00  0.00    +0.000 C 
ATOM     33  O   UNL     1      -5.404  11.918  20.812  0.00  0.00    +0.000 OA
ATOM     34  N   UNL     1      -6.148  12.333  18.671  0.00  0.00    +0.000 N 
ATOM     35  C   UNL     1      -6.006  12.719  17.273  0.00  0.00    +0.000 C 
ATOM     36  C   UNL     1      -7.521  12.391  19.159  0.00  0.00    +0.000 C 
ENDBRANCH  29  32
ENDBRANCH  24  26
ENDBRANCH   4  24
TORSDOF 6
ENDMDL
MODEL 7
REMARK VINA RESULT:      -8.4      4.603      9.723
REMARK  Name = 
REMARK  9 active torsions:
REMARK  status: ('A' for Active; 'I' for Inactive)
REMARK    1  A    between atoms: C_1  and  C_2
REMARK    2  A    between atoms: C_5  and  C_6
REMARK    3  A    between atoms: C_9  and  N_10
REMARK    4  A    between atoms: N_10  and  C_11
REMARK    5  A    between atoms: C_14  and  C_15
REMARK    6  A    between atoms: N_17  and  C_18
REMARK    7  A    between atoms: N_17  and  C_19
REMARK    8  A    between atoms: C_29  and  S_30
REMARK    9  A    between atoms: S_30  and  N_31
REMARK                            x       y       z     vdW  Elec       q    Type
REMARK                         _______ _______ _______ _____ _____    ______ ____
ROOT
ATOM      1  C   UNL     1      -0.701  12.291  20.641  0.00  0.00    +0.000 A 
ATOM      2  N   UNL     1       0.641  12.175  20.722  0.00  0.00    +0.000 NA
ATOM      3  N   UNL     1       1.341  11.482  19.778  0.00  0.00    +0.000 NA
ATOM      4  C   UNL     1       0.717  10.848  18.763  0.00  0.00    +0.000 A 
ATOM      5  C   UNL     1      -0.680  10.952  18.610  0.00  0.00    +0.000 A 
ATOM      6  C   UNL     1      -1.400  10.272  17.597  0.00  0.00    +0.000 A 
ATOM      7  C   UNL     1      -2.783  10.404  17.461  0.00  0.00    +0.000 A 
ATOM      8  C   UNL     1      -3.475  11.258  18.302  0.00  0.00    +0.000 A 
ATOM      9  C   UNL     1      -2.789  11.938  19.306  0.00  0.00    +0.000 A 
ATOM     10  C   UNL     1      -1.403  11.749  19.538  0.00  0.00    +0.000 A 
ENDROOT
BRANCH   1  15
ATOM     11  C   UNL     1      -3.130  14.919  25.279  0.00  0.00    +0.000 C 
ATOM     12  C   UNL     1      -2.551  14.186  24.103  0.00  0.00    +0.000 A 
ATOM     13  C   UNL     1      -1.219  14.444  23.762  0.00  0.00    +0.000 A 
ATOM     14  C   UNL     1      -0.633  13.852  22.640  0.00  0.00    +0.000 A 
ATOM     15  C   UNL     1      -1.303  12.900  21.858  0.00  0.00    +0.000 A 
ATOM     16  C   UNL     1      -2.646  12.643  22.208  0.00  0.00    +0.000 A 
ATOM     17  C   UNL     1      -3.275  13.306  23.285  0.00  0.00    +0.000 A 
BRANCH  17  18
ATOM     18  S   UNL     1      -5.033  13.038  23.470  0.00  0.00    +0.000 S 
ATOM     19  O   UNL     1      -5.667  14.291  23.810  0.00  0.00    +0.000 OA
ATOM     20  O   UNL     1      -5.542  12.194  22.414  0.00  0.00    +0.000 OA
BRANCH  18  21
ATOM     21  N   UNL     1      -5.061  12.111  24.866  0.00  0.00    +0.000 NA
ATOM     22  H   UNL     1      -5.090  11.121  24.627  0.00  0.00    +0.000 HD
ATOM     23  H   UNL     1      -4.295  12.376  25.484  0.00  0.00    +0.000 HD
ENDBRANCH  18  21
ENDBRANCH  17  18
ENDBRANCH   1  15
BRANCH   4  24
ATOM     24  N   UNL     1       1.502  10.060  17.867  0.00  0.00    +0.000 N 
ATOM     25  H   UNL     1       2.226  10.634  17.455  0.00  0.00    +0.000 HD
BRANCH  24  26
ATOM     26  C   UNL     1       1.956   8.762  18.210  0.00  0.00    +0.000 A 
ATOM     27  C   UNL     1       1.695   8.240  19.487  0.00  0.00    +0.000 A 
ATOM     28  C   UNL     1       2.251   7.028  19.910  0.00  0.00    +0.000 A 
ATOM     29  C   UNL     1       3.133   6.339  19.082  0.00  0.00    +0.000 A 
ATOM     30  C   UNL     1       3.311   6.803  17.764  0.00  0.00    +0.000 A 
ATOM     31  C   UNL     1       2.721   7.999  17.327  0.00  0.00    +0.000 A 
BRANCH  29  32
ATOM     32  C   UNL     1       3.842   5.088  19.479  0.00  0.00    +0.000 C 
ATOM     33  O   UNL     1       5.014   5.237  19.844  0.00  0.00    +0.000 OA
ATOM     34  N   UNL     1       3.226   3.827  19.486  0.00  0.00    +0.000 N 
ATOM     35  C   UNL     1       1.831   3.501  19.224  0.00  0.00    +0.000 C 
ATOM     36  C   UNL     1       3.997   2.712  20.025  0.00  0.00    +0.000 C 
ENDBRANCH  29  32
ENDBRANCH  24  26
ENDBRANCH   4  24
TORSDOF 6
ENDMDL
MODEL 8
REMARK VINA RESULT:      -8.4      1.984      2.411
REMARK  Name = 
REMARK  9 active torsions:
REMARK  status: ('A' for Active; 'I' for Inactive)
REMARK    1  A    between atoms: C_1  and  C_2
REMARK    2  A    between atoms: C_5  and  C_6
REMARK    3  A    between atoms: C_9  and  N_10
REMARK    4  A    between atoms: N_10  and  C_11
REMARK    5  A    between atoms: C_14  and  C_15
REMARK    6  A    between atoms: N_17  and  C_18
REMARK    7  A    between atoms: N_17  and  C_19
REMARK    8  A    between atoms: C_29  and  S_30
REMARK    9  A    between atoms: S_30  and  N_31
REMARK                            x       y       z     vdW  Elec       q    Type
REMARK                         _______ _______ _______ _____ _____    ______ ____
ROOT
ATOM      1  C   UNL     1       2.230   8.060  18.494  0.00  0.00    +0.000 A 
ATOM      2  N   UNL     1       2.382   8.877  17.430  0.00  0.00    +0.000 NA
ATOM      3  N   UNL     1       1.862  10.137  17.437  0.00  0.00    +0.000 NA
ATOM      4  C   UNL     1       1.136  10.595  18.478  0.00  0.00    +0.000 A 
ATOM      5  C   UNL     1       0.963   9.799  19.629  0.00  0.00    +0.000 A 
ATOM      6  C   UNL     1       0.173  10.200  20.735  0.00  0.00    +0.000 A 
ATOM      7  C   UNL     1       0.030   9.398  21.868  0.00  0.00    +0.000 A 
ATOM      8  C   UNL     1       0.712   8.195  21.946  0.00  0.00    +0.000 A 
ATOM      9  C   UNL     1       1.495   7.780  20.871  0.00  0.00    +0.000 A 
ATOM     10  C   UNL     1       1.581   8.520  19.665  0.00  0.00    +0.000 A 
ENDROOT
BRANCH   1  15
ATOM     11  C   UNL     1       4.178   2.599  17.662  0.00  0.00    +0.000 C 
ATOM     12  C   UNL     1       3.609   3.972  17.871  0.00  0.00    +0.000 A 
ATOM     13  C   UNL     1       4.343   5.064  17.397  0.00  0.00    +0.000 A 
ATOM     14  C   UNL     1       3.911   6.375  17.616  0.00  0.00    +0.000 A 
ATOM     15  C   UNL     1       2.682   6.668  18.225  0.00  0.00    +0.000 A 
ATOM     16  C   UNL     1       1.944   5.563  18.699  0.00  0.00    +0.000 A 
ATOM     17  C   UNL     1       2.418   4.239  18.564  0.00  0.00    +0.000 A 
BRANCH  17  18
ATOM     18  S   UNL     1       1.482   2.967  19.402  0.00  0.00    +0.000 S 
ATOM     19  O   UNL     1       0.624   2.306  18.446  0.00  0.00    +0.000 OA
ATOM     20  O   UNL     1       2.322   2.220  20.309  0.00  0.00    +0.000 OA
BRANCH  18  21
ATOM     21  N   UNL     1       0.473   3.903  20.359  0.00  0.00    +0.000 NA
ATOM     22  H   UNL     1      -0.502   3.686  20.153  0.00  0.00    +0.000 HD
ATOM     23  H   UNL     1       0.730   3.812  21.341  0.00  0.00    +0.000 HD
ENDBRANCH  18  21
ENDBRANCH  17  18
ENDBRANCH   1  15
BRANCH   4  24
ATOM     24  N   UNL     1       0.538  11.888  18.378  0.00  0.00    +0.000 N 
ATOM     25  H   UNL     1      -0.317  11.909  18.917  0.00  0.00    +0.000 HD
BRANCH  24  26
ATOM     26  C   UNL     1       1.298  13.077  18.503  0.00  0.00    +0.000 A 
ATOM     27  C   UNL     1       2.677  13.064  18.235  0.00  0.00    +0.000 A 
ATOM     28  C   UNL     1       3.482  14.179  18.488  0.00  0.00    +0.000 A 
ATOM     29  C   UNL     1       2.934  15.317  19.073  0.00  0.00    +0.000 A 
ATOM     30  C   UNL     1       1.537  15.373  19.242  0.00  0.00    +0.000 A 
ATOM     31  C   UNL     1       0.723  14.268  18.951  0.00  0.00    +0.000 A 
BRANCH  29  32
ATOM     32  C   UNL     1       3.729  16.518  19.460  0.00  0.00    +0.000 C 
ATOM     33  O   UNL     1       3.696  17.456  18.655  0.00  0.00    +0.000 OA
ATOM     34  N   UNL     1       4.435  16.614  20.669  0.00  0.00    +0.000 N 
ATOM     35  C   UNL     1       4.462  15.669  21.777  0.00  0.00    +0.000 C 
ATOM     36  C   UNL     1       5.058  17.897  20.977  0.00  0.00    +0.000 C 
ENDBRANCH  29  32
ENDBRANCH  24  26
ENDBRANCH   4  24
TORSDOF 6
ENDMDL
MODEL 9
REMARK VINA RESULT:      -8.4      3.569      4.803
REMARK  Name = 
REMARK  9 active torsions:
REMARK  status: ('A' for Active; 'I' for Inactive)
REMARK    1  A    between atoms: C_1  and  C_2
REMARK    2  A    between atoms: C_5  and  C_6
REMARK    3  A    between atoms: C_9  and  N_10
REMARK    4  A    between atoms: N_10  and  C_11
REMARK    5  A    between atoms: C_14  and  C_15
REMARK    6  A    between atoms: N_17  and  C_18
REMARK    7  A    between atoms: N_17  and  C_19
REMARK    8  A    between atoms: C_29  and  S_30
REMARK    9  A    between atoms: S_30  and  N_31
REMARK                            x       y       z     vdW  Elec       q    Type
REMARK                         _______ _______ _______ _____ _____    ______ ____
ROOT
ATOM      1  C   UNL     1       2.229   8.042  18.555  0.00  0.00    +0.000 A 
ATOM      2  N   UNL     1       2.350   8.866  17.493  0.00  0.00    +0.000 NA
ATOM      3  N   UNL     1       1.766  10.098  17.494  0.00  0.00    +0.000 NA
ATOM      4  C   UNL     1       1.005  10.517  18.526  0.00  0.00    +0.000 A 
ATOM      5  C   UNL     1       0.860   9.712  19.675  0.00  0.00    +0.000 A 
ATOM      6  C   UNL     1       0.037  10.071  20.771  0.00  0.00    +0.000 A 
ATOM      7  C   UNL     1      -0.077   9.261  21.902  0.00  0.00    +0.000 A 
ATOM      8  C   UNL     1       0.665   8.096  21.988  0.00  0.00    +0.000 A 
ATOM      9  C   UNL     1       1.481   7.722  20.923  0.00  0.00    +0.000 A 
ATOM     10  C   UNL     1       1.543   8.467  19.718  0.00  0.00    +0.000 A 
ENDROOT
BRANCH   1  15
ATOM     11  C   UNL     1       4.241   2.701  17.237  0.00  0.00    +0.000 C 
ATOM     12  C   UNL     1       3.789   4.083  17.611  0.00  0.00    +0.000 A 
ATOM     13  C   UNL     1       2.421   4.294  17.806  0.00  0.00    +0.000 A 
ATOM     14  C   UNL     1       1.919   5.567  18.088  0.00  0.00    +0.000 A 
ATOM     15  C   UNL     1       2.755   6.675  18.290  0.00  0.00    +0.000 A 
ATOM     16  C   UNL     1       4.135   6.456  18.094  0.00  0.00    +0.000 A 
ATOM     17  C   UNL     1       4.642   5.192  17.718  0.00  0.00    +0.000 A 
BRANCH  17  18
ATOM     18  S   UNL     1       6.378   5.122  17.296  0.00  0.00    +0.000 S 
ATOM     19  O   UNL     1       7.089   4.426  18.343  0.00  0.00    +0.000 OA
ATOM     20  O   UNL     1       6.559   4.783  15.904  0.00  0.00    +0.000 OA
BRANCH  18  21
ATOM     21  N   UNL     1       6.800   6.737  17.445  0.00  0.00    +0.000 NA
ATOM     22  H   UNL     1       6.837   7.174  16.525  0.00  0.00    +0.000 HD
ATOM     23  H   UNL     1       6.188   7.205  18.113  0.00  0.00    +0.000 HD
ENDBRANCH  18  21
ENDBRANCH  17  18
ENDBRANCH   1  15
BRANCH   4  24
ATOM     24  N   UNL     1       0.342  11.777  18.419  0.00  0.00    +0.000 N 
ATOM     25  H   UNL     1       0.767  12.321  17.679  0.00  0.00    +0.000 HD
BRANCH  24  26
ATOM     26  C   UNL     1      -1.070  11.886  18.442  0.00  0.00    +0.000 A 
ATOM     27  C   UNL     1      -1.711  12.509  19.525  0.00  0.00    +0.000 A 
ATOM     28  C   UNL     1      -3.104  12.506  19.651  0.00  0.00    +0.000 A 
ATOM     29  C   UNL     1      -3.886  11.823  18.725  0.00  0.00    +0.000 A 
ATOM     30  C   UNL     1      -3.257  11.291  17.583  0.00  0.00    +0.000 A 
ATOM     31  C   UNL     1      -1.862  11.330  17.436  0.00  0.00    +0.000 A 
BRANCH  29  32
ATOM     32  C   UNL     1      -5.369  11.689  18.826  0.00  0.00    +0.000 C 
ATOM     33  O   UNL     1      -5.822  10.579  18.526  0.00  0.00    +0.000 OA
ATOM     34  N   UNL     1      -6.204  12.726  19.271  0.00  0.00    +0.000 N 
ATOM     35  C   UNL     1      -5.824  14.033  19.790  0.00  0.00    +0.000 C 
ATOM     36  C   UNL     1      -7.618  12.414  19.447  0.00  0.00    +0.000 C 
ENDBRANCH  29  32
ENDBRANCH  24  26
ENDBRANCH   4  24
TORSDOF 6
ENDMDL
