MODEL 1
REMARK VINA RESULT:      -7.4      0.000      0.000
REMARK  Name = 
REMARK  8 active torsions:
REMARK  status: ('A' for Active; 'I' for Inactive)
REMARK    1  A    between atoms: C_1  and  C_2
REMARK    2  A    between atoms: C_3  and  C_4
REMARK    3  A    between atoms: N_7  and  C_8
REMARK    4  A    between atoms: C_8  and  C_9
REMARK    5  A    between atoms: C_8  and  C_10
REMARK    6  A    between atoms: C_11  and  C_12
REMARK    7  A    between atoms: N_14  and  C_15
REMARK    8  A    between atoms: C_23  and  C_24
REMARK                            x       y       z     vdW  Elec       q    Type
REMARK                         _______ _______ _______ _____ _____    ______ ____
ROOT
ATOM      1  C   UNL     1       2.107  12.307  19.334  0.00  0.00    +0.000 C 
ATOM      2  C   UNL     1       0.757  11.732  19.075  0.00  0.00    +0.000 A 
ATOM      3  C   UNL     1       0.407  10.373  18.831  0.00  0.00    +0.000 A 
ATOM      4  N   UNL     1      -0.919  10.224  18.730  0.00  0.00    +0.000 NA
ATOM      5  N   UNL     1      -1.419  11.485  18.689  0.00  0.00    +0.000 N 
ATOM      6  C   UNL     1      -0.456  12.434  19.055  0.00  0.00    +0.000 A 
ENDROOT
BRANCH   5   7
ATOM      7  C   UNL     1      -2.807  11.641  18.382  0.00  0.00    +0.000 A 
ATOM      8  C   UNL     1      -3.663  12.039  19.431  0.00  0.00    +0.000 A 
ATOM      9  C   UNL     1      -5.017  12.293  19.192  0.00  0.00    +0.000 A 
ATOM     10  C   UNL     1      -5.527  12.153  17.906  0.00  0.00    +0.000 A 
ATOM     11 CL   UNL     1      -7.190  12.471  17.605  0.00  0.00    +0.000 Cl
ATOM     12  C   UNL     1      -4.707  11.717  16.869  0.00  0.00    +0.000 A 
ATOM     13  C   UNL     1      -3.359  11.418  17.111  0.00  0.00    +0.000 A 
ATOM     14 CL   UNL     1      -2.549  10.578  15.833  0.00  0.00    +0.000 Cl
ENDBRANCH   5   7
BRANCH   6  15
ATOM     15  C   UNL     1      -0.715  13.857  19.367  0.00  0.00    +0.000 A 
ATOM     16  C   UNL     1      -0.313  14.890  18.503  0.00  0.00    +0.000 A 
ATOM     17  C   UNL     1      -0.449  16.233  18.878  0.00  0.00    +0.000 A 
ATOM     18  C   UNL     1      -1.045  16.560  20.093  0.00  0.00    +0.000 A 
ATOM     19 CL   UNL     1      -1.191  18.207  20.564  0.00  0.00    +0.000 Cl
ATOM     20  C   UNL     1      -1.509  15.557  20.933  0.00  0.00    +0.000 A 
ATOM     21  C   UNL     1      -1.333  14.216  20.577  0.00  0.00    +0.000 A 
ENDBRANCH   6  15
BRANCH   3  22
ATOM     22  C   UNL     1       1.339   9.224  18.719  0.00  0.00    +0.000 A 
ATOM     23  N   UNL     1       2.011   8.974  17.546  0.00  0.00    +0.000 NA
ATOM     24  C   UNL     1       2.711   7.884  17.755  0.00  0.00    +0.000 A 
ATOM     25  N   UNL     1       2.535   7.398  19.022  0.00  0.00    +0.000 N 
ATOM     26  C   UNL     1       1.643   8.246  19.661  0.00  0.00    +0.000 A 
ATOM     27  C   UNL     1       1.129   8.070  21.042  0.00  0.00    +0.000 C 
BRANCH  25  28
ATOM     28  C   UNL     1       3.127   6.169  19.548  0.00  0.00    +0.000 C 
ATOM     29  C   UNL     1       2.131   5.012  19.473  0.00  0.00    +0.000 C 
ATOM     30  C   UNL     1       4.447   5.782  18.862  0.00  0.00    +0.000 C 
ENDBRANCH  25  28
ENDBRANCH   3  22
TORSDOF 4
ENDMDL
MODEL 2
REMARK VINA RESULT:      -7.3      3.064      7.322
REMARK  Name = 
REMARK  8 active torsions:
REMARK  status: ('A' for Active; 'I' for Inactive)
REMARK    1  A    between atoms: C_1  and  C_2
REMARK    2  A    between atoms: C_3  and  C_4
REMARK    3  A    between atoms: N_7  and  C_8
REMARK    4  A    between atoms: C_8  and  C_9
REMARK    5  A    between atoms: C_8  and  C_10
REMARK    6  A    between atoms: C_11  and  C_12
REMARK    7  A    between atoms: N_14  and  C_15
REMARK    8  A    between atoms: C_23  and  C_24
REMARK                            x       y       z     vdW  Elec       q    Type
REMARK                         _______ _______ _______ _____ _____    ______ ____
ROOT
ATOM      1  C   UNL     1      -1.172  14.667  20.398  0.00  0.00    +0.000 C 
ATOM      2  C   UNL     1      -1.030  13.224  20.052  0.00  0.00    +0.000 A 
ATOM      3  C   UNL     1      -2.051  12.235  19.951  0.00  0.00    +0.000 A 
ATOM      4  N   UNL     1      -1.554  11.067  19.529  0.00  0.00    +0.000 NA
ATOM      5  N   UNL     1      -0.205  11.218  19.560  0.00  0.00    +0.000 N 
ATOM      6  C   UNL     1       0.159  12.561  19.719  0.00  0.00    +0.000 A 
ENDROOT
BRANCH   5   7
ATOM      7  C   UNL     1       0.600  10.055  19.348  0.00  0.00    +0.000 A 
ATOM      8  C   UNL     1       1.059   9.816  18.035  0.00  0.00    +0.000 A 
ATOM      9  C   UNL     1       1.920   8.748  17.762  0.00  0.00    +0.000 A 
ATOM     10  C   UNL     1       2.328   7.912  18.796  0.00  0.00    +0.000 A 
ATOM     11 CL   UNL     1       3.391   6.600  18.467  0.00  0.00    +0.000 Cl
ATOM     12  C   UNL     1       1.847   8.106  20.088  0.00  0.00    +0.000 A 
ATOM     13  C   UNL     1       0.951   9.149  20.360  0.00  0.00    +0.000 A 
ATOM     14 CL   UNL     1       0.181   9.075  21.909  0.00  0.00    +0.000 Cl
ENDBRANCH   5   7
BRANCH   6  15
ATOM     15  C   UNL     1       1.518  13.119  19.539  0.00  0.00    +0.000 A 
ATOM     16  C   UNL     1       2.328  13.464  20.634  0.00  0.00    +0.000 A 
ATOM     17  C   UNL     1       3.556  14.111  20.444  0.00  0.00    +0.000 A 
ATOM     18  C   UNL     1       4.017  14.364  19.155  0.00  0.00    +0.000 A 
ATOM     19 CL   UNL     1       5.513  15.178  18.920  0.00  0.00    +0.000 Cl
ATOM     20  C   UNL     1       3.263  13.972  18.056  0.00  0.00    +0.000 A 
ATOM     21  C   UNL     1       2.018  13.366  18.249  0.00  0.00    +0.000 A 
ENDBRANCH   6  15
BRANCH   3  22
ATOM     22  C   UNL     1      -3.495  12.420  20.236  0.00  0.00    +0.000 A 
ATOM     23  N   UNL     1      -3.923  12.789  21.490  0.00  0.00    +0.000 NA
ATOM     24  C   UNL     1      -5.233  12.826  21.428  0.00  0.00    +0.000 A 
ATOM     25  N   UNL     1      -5.697  12.500  20.182  0.00  0.00    +0.000 N 
ATOM     26  C   UNL     1      -4.587  12.225  19.397  0.00  0.00    +0.000 A 
ATOM     27  C   UNL     1      -4.625  11.780  17.981  0.00  0.00    +0.000 C 
BRANCH  25  28
ATOM     28  C   UNL     1      -7.104  12.393  19.803  0.00  0.00    +0.000 C 
ATOM     29  C   UNL     1      -7.766  11.206  20.503  0.00  0.00    +0.000 C 
ATOM     30  C   UNL     1      -7.908  13.678  20.057  0.00  0.00    +0.000 C 
ENDBRANCH  25  28
ENDBRANCH   3  22
TORSDOF 4
ENDMDL
MODEL 3
REMARK VINA RESULT:      -7.2      3.453      7.389
REMARK  Name = 
REMARK  8 active torsions:
REMARK  status: ('A' for Active; 'I' for Inactive)
REMARK    1  A    between atoms: C_1  and  C_2
REMARK    2  A    between atoms: C_3  and  C_4
REMARK    3  A    between atoms: N_7  and  C_8
REMARK    4  A    between atoms: C_8  and  C_9
REMARK    5  A    between atoms: C_8  and  C_10
REMARK    6  A    between atoms: C_11  and  C_12
REMARK    7  A    between atoms: N_14  and  C_15
REMARK    8  A    between atoms: C_23  and  C_24
REMARK                            x       y       z     vdW  Elec       q    Type
REMARK                         _______ _______ _______ _____ _____    ______ ____
ROOT
ATOM      1  C   UNL     1      -1.175  14.933  21.029  0.00  0.00    +0.000 C 
ATOM      2  C   UNL     1      -1.098  13.494  20.647  0.00  0.00    +0.000 A 
ATOM      3  C   UNL     1      -2.135  12.517  20.669  0.00  0.00    +0.000 A 
ATOM      4  N   UNL     1      -1.712  11.350  20.170  0.00  0.00    +0.000 NA
ATOM      5  N   UNL     1      -0.370  11.487  20.025  0.00  0.00    +0.000 N 
ATOM      6  C   UNL     1       0.029  12.824  20.151  0.00  0.00    +0.000 A 
ENDROOT
BRANCH   5   7
ATOM      7  C   UNL     1       0.386  10.319  19.693  0.00  0.00    +0.000 A 
ATOM      8  C   UNL     1       0.696  10.112  18.332  0.00  0.00    +0.000 A 
ATOM      9  C   UNL     1       1.502   9.040  17.936  0.00  0.00    +0.000 A 
ATOM     10  C   UNL     1       2.004   8.167  18.895  0.00  0.00    +0.000 A 
ATOM     11 CL   UNL     1       3.001   6.850  18.415  0.00  0.00    +0.000 Cl
ATOM     12  C   UNL     1       1.671   8.330  20.237  0.00  0.00    +0.000 A 
ATOM     13  C   UNL     1       0.828   9.377  20.635  0.00  0.00    +0.000 A 
ATOM     14 CL   UNL     1       0.230   9.267  22.255  0.00  0.00    +0.000 Cl
ENDBRANCH   5   7
BRANCH   6  15
ATOM     15  C   UNL     1       1.359  13.370  19.801  0.00  0.00    +0.000 A 
ATOM     16  C   UNL     1       2.344  13.604  20.776  0.00  0.00    +0.000 A 
ATOM     17  C   UNL     1       3.546  14.242  20.444  0.00  0.00    +0.000 A 
ATOM     18  C   UNL     1       3.803  14.597  19.123  0.00  0.00    +0.000 A 
ATOM     19 CL   UNL     1       5.268  15.402  18.718  0.00  0.00    +0.000 Cl
ATOM     20  C   UNL     1       2.872  14.316  18.132  0.00  0.00    +0.000 A 
ATOM     21  C   UNL     1       1.654  13.718  18.473  0.00  0.00    +0.000 A 
ENDBRANCH   6  15
BRANCH   3  22
ATOM     22  C   UNL     1      -3.526  12.713  21.145  0.00  0.00    +0.000 A 
ATOM     23  N   UNL     1      -4.531  13.049  20.268  0.00  0.00    +0.000 NA
ATOM     24  C   UNL     1      -5.614  13.188  20.995  0.00  0.00    +0.000 A 
ATOM     25  N   UNL     1      -5.374  12.956  22.322  0.00  0.00    +0.000 N 
ATOM     26  C   UNL     1      -4.026  12.656  22.442  0.00  0.00    +0.000 A 
ATOM     27  C   UNL     1      -3.317  12.381  23.718  0.00  0.00    +0.000 C 
BRANCH  25  28
ATOM     28  C   UNL     1      -6.356  13.087  23.396  0.00  0.00    +0.000 C 
ATOM     29  C   UNL     1      -6.742  14.552  23.604  0.00  0.00    +0.000 C 
ATOM     30  C   UNL     1      -7.614  12.229  23.186  0.00  0.00    +0.000 C 
ENDBRANCH  25  28
ENDBRANCH   3  22
TORSDOF 4
ENDMDL
MODEL 4
REMARK VINA RESULT:      -7.1      1.662      1.988
REMARK  Name = 
REMARK  8 active torsions:
REMARK  status: ('A' for Active; 'I' for Inactive)
REMARK    1  A    between atoms: C_1  and  C_2
REMARK    2  A    between atoms: C_3  and  C_4
REMARK    3  A    between atoms: N_7  and  C_8
REMARK    4  A    between atoms: C_8  and  C_9
REMARK    5  A    between atoms: C_8  and  C_10
REMARK    6  A    between atoms: C_11  and  C_12
REMARK    7  A    between atoms: N_14  and  C_15
REMARK    8  A    between atoms: C_23  and  C_24
REMARK                            x       y       z     vdW  Elec       q    Type
REMARK                         _______ _______ _______ _____ _____    ______ ____
ROOT
ATOM      1  C   UNL     1       2.606  12.234  18.259  0.00  0.00    +0.000 C 
ATOM      2  C   UNL     1       1.344  11.801  18.923  0.00  0.00    +0.000 A 
ATOM      3  C   UNL     1       0.897  10.475  19.190  0.00  0.00    +0.000 A 
ATOM      4  N   UNL     1      -0.248  10.480  19.883  0.00  0.00    +0.000 NA
ATOM      5  N   UNL     1      -0.661  11.773  19.884  0.00  0.00    +0.000 N 
ATOM      6  C   UNL     1       0.352  12.638  19.451  0.00  0.00    +0.000 A 
ENDROOT
BRANCH   5   7
ATOM      7  C   UNL     1      -1.970  12.053  20.387  0.00  0.00    +0.000 A 
ATOM      8  C   UNL     1      -2.107  12.220  21.781  0.00  0.00    +0.000 A 
ATOM      9  C   UNL     1      -3.338  12.579  22.341  0.00  0.00    +0.000 A 
ATOM     10  C   UNL     1      -4.439  12.772  21.515  0.00  0.00    +0.000 A 
ATOM     11 CL   UNL     1      -5.954  13.219  22.197  0.00  0.00    +0.000 Cl
ATOM     12  C   UNL     1      -4.332  12.566  20.143  0.00  0.00    +0.000 A 
ATOM     13  C   UNL     1      -3.113  12.165  19.580  0.00  0.00    +0.000 A 
ATOM     14 CL   UNL     1      -3.200  11.625  17.938  0.00  0.00    +0.000 Cl
ENDBRANCH   5   7
BRANCH   6  15
ATOM     15  C   UNL     1       0.342  14.113  19.568  0.00  0.00    +0.000 A 
ATOM     16  C   UNL     1      -0.236  14.931  18.583  0.00  0.00    +0.000 A 
ATOM     17  C   UNL     1      -0.119  16.325  18.647  0.00  0.00    +0.000 A 
ATOM     18  C   UNL     1       0.523  16.921  19.729  0.00  0.00    +0.000 A 
ATOM     19 CL   UNL     1       0.688  18.631  19.798  0.00  0.00    +0.000 Cl
ATOM     20  C   UNL     1       1.046  16.134  20.748  0.00  0.00    +0.000 A 
ATOM     21  C   UNL     1       0.966  14.741  20.660  0.00  0.00    +0.000 A 
ENDBRANCH   6  15
BRANCH   3  22
ATOM     22  C   UNL     1       1.577   9.215  18.801  0.00  0.00    +0.000 A 
ATOM     23  N   UNL     1       2.030   9.026  17.517  0.00  0.00    +0.000 NA
ATOM     24  C   UNL     1       2.536   7.816  17.486  0.00  0.00    +0.000 A 
ATOM     25  N   UNL     1       2.442   7.190  18.699  0.00  0.00    +0.000 N 
ATOM     26  C   UNL     1       1.815   8.076  19.563  0.00  0.00    +0.000 A 
ATOM     27  C   UNL     1       1.464   7.792  20.978  0.00  0.00    +0.000 C 
BRANCH  25  28
ATOM     28  C   UNL     1       2.860   5.818  18.979  0.00  0.00    +0.000 C 
ATOM     29  C   UNL     1       2.057   4.824  18.140  0.00  0.00    +0.000 C 
ATOM     30  C   UNL     1       4.367   5.584  18.787  0.00  0.00    +0.000 C 
ENDBRANCH  25  28
ENDBRANCH   3  22
TORSDOF 4
ENDMDL
MODEL 5
REMARK VINA RESULT:      -7.1      2.018      2.542
REMARK  Name = 
REMARK  8 active torsions:
REMARK  status: ('A' for Active; 'I' for Inactive)
REMARK    1  A    between atoms: C_1  and  C_2
REMARK    2  A    between atoms: C_3  and  C_4
REMARK    3  A    between atoms: N_7  and  C_8
REMARK    4  A    between atoms: C_8  and  C_9
REMARK    5  A    between atoms: C_8  and  C_10
REMARK    6  A    between atoms: C_11  and  C_12
REMARK    7  A    between atoms: N_14  and  C_15
REMARK    8  A    between atoms: C_23  and  C_24
REMARK                            x       y       z     vdW  Elec       q    Type
REMARK                         _______ _______ _______ _____ _____    ______ ____
ROOT
ATOM      1  C   UNL     1       2.548  12.202  18.046  0.00  0.00    +0.000 C 
ATOM      2  C   UNL     1       1.430  11.791  18.942  0.00  0.00    +0.000 A 
ATOM      3  C   UNL     1       1.057  10.476  19.343  0.00  0.00    +0.000 A 
ATOM      4  N   UNL     1       0.054  10.505  20.228  0.00  0.00    +0.000 NA
ATOM      5  N   UNL     1      -0.371  11.794  20.247  0.00  0.00    +0.000 N 
ATOM      6  C   UNL     1       0.536  12.645  19.603  0.00  0.00    +0.000 A 
ENDROOT
BRANCH   5   7
ATOM      7  C   UNL     1      -1.574  12.088  20.962  0.00  0.00    +0.000 A 
ATOM      8  C   UNL     1      -1.510  12.068  22.372  0.00  0.00    +0.000 A 
ATOM      9  C   UNL     1      -2.621  12.426  23.143  0.00  0.00    +0.000 A 
ATOM     10  C   UNL     1      -3.801  12.805  22.514  0.00  0.00    +0.000 A 
ATOM     11 CL   UNL     1      -5.169  13.253  23.457  0.00  0.00    +0.000 Cl
ATOM     12  C   UNL     1      -3.895  12.786  21.125  0.00  0.00    +0.000 A 
ATOM     13  C   UNL     1      -2.799  12.387  20.348  0.00  0.00    +0.000 A 
ATOM     14 CL   UNL     1      -3.148  12.088  18.679  0.00  0.00    +0.000 Cl
ENDBRANCH   5   7
BRANCH   6  15
ATOM     15  C   UNL     1       0.527  14.124  19.656  0.00  0.00    +0.000 A 
ATOM     16  C   UNL     1       1.297  14.836  20.590  0.00  0.00    +0.000 A 
ATOM     17  C   UNL     1       1.174  16.227  20.711  0.00  0.00    +0.000 A 
ATOM     18  C   UNL     1       0.326  16.927  19.858  0.00  0.00    +0.000 A 
ATOM     19 CL   UNL     1       0.157  18.631  20.021  0.00  0.00    +0.000 Cl
ATOM     20  C   UNL     1      -0.396  16.251  18.883  0.00  0.00    +0.000 A 
ATOM     21  C   UNL     1      -0.304  14.858  18.793  0.00  0.00    +0.000 A 
ENDBRANCH   6  15
BRANCH   3  22
ATOM     22  C   UNL     1       1.675   9.204  18.893  0.00  0.00    +0.000 A 
ATOM     23  N   UNL     1       2.123   9.056  17.601  0.00  0.00    +0.000 NA
ATOM     24  C   UNL     1       2.568   7.825  17.512  0.00  0.00    +0.000 A 
ATOM     25  N   UNL     1       2.439   7.146  18.693  0.00  0.00    +0.000 N 
ATOM     26  C   UNL     1       1.854   8.019  19.599  0.00  0.00    +0.000 A 
ATOM     27  C   UNL     1       1.483   7.684  20.998  0.00  0.00    +0.000 C 
BRANCH  25  28
ATOM     28  C   UNL     1       2.787   5.743  18.906  0.00  0.00    +0.000 C 
ATOM     29  C   UNL     1       2.029   4.842  17.931  0.00  0.00    +0.000 C 
ATOM     30  C   UNL     1       4.296   5.466  18.826  0.00  0.00    +0.000 C 
ENDBRANCH  25  28
ENDBRANCH   3  22
TORSDOF 4
ENDMDL
MODEL 6
REMARK VINA RESULT:      -7.0      2.023      2.432
REMARK  Name = 
REMARK  8 active torsions:
REMARK  status: ('A' for Active; 'I' for Inactive)
REMARK    1  A    between atoms: C_1  and  C_2
REMARK    2  A    between atoms: C_3  and  C_4
REMARK    3  A    between atoms: N_7  and  C_8
REMARK    4  A    between atoms: C_8  and  C_9
REMARK    5  A    between atoms: C_8  and  C_10
REMARK    6  A    between atoms: C_11  and  C_12
REMARK    7  A    between atoms: N_14  and  C_15
REMARK    8  A    between atoms: C_23  and  C_24
REMARK                            x       y       z     vdW  Elec       q    Type
REMARK                         _______ _______ _______ _____ _____    ______ ____
ROOT
ATOM      1  C   UNL     1       2.587  12.133  18.280  0.00  0.00    +0.000 C 
ATOM      2  C   UNL     1       1.307  11.755  18.946  0.00  0.00    +0.000 A 
ATOM      3  C   UNL     1       0.827  10.451  19.260  0.00  0.00    +0.000 A 
ATOM      4  N   UNL     1      -0.324  10.509  19.938  0.00  0.00    +0.000 NA
ATOM      5  N   UNL     1      -0.708  11.810  19.884  0.00  0.00    +0.000 N 
ATOM      6  C   UNL     1       0.329  12.634  19.429  0.00  0.00    +0.000 A 
ENDROOT
BRANCH   5   7
ATOM      7  C   UNL     1      -2.016  12.138  20.360  0.00  0.00    +0.000 A 
ATOM      8  C   UNL     1      -3.064  12.154  19.414  0.00  0.00    +0.000 A 
ATOM      9  C   UNL     1      -4.384  12.384  19.814  0.00  0.00    +0.000 A 
ATOM     10  C   UNL     1      -4.668  12.599  21.158  0.00  0.00    +0.000 A 
ATOM     11 CL   UNL     1      -6.291  12.875  21.656  0.00  0.00    +0.000 Cl
ATOM     12  C   UNL     1      -3.641  12.632  22.097  0.00  0.00    +0.000 A 
ATOM     13  C   UNL     1      -2.310  12.446  21.696  0.00  0.00    +0.000 A 
ATOM     14 CL   UNL     1      -1.120  12.841  22.889  0.00  0.00    +0.000 Cl
ENDBRANCH   5   7
BRANCH   6  15
ATOM     15  C   UNL     1       0.352  14.113  19.488  0.00  0.00    +0.000 A 
ATOM     16  C   UNL     1      -0.369  14.902  18.576  0.00  0.00    +0.000 A 
ATOM     17  C   UNL     1      -0.231  16.296  18.565  0.00  0.00    +0.000 A 
ATOM     18  C   UNL     1       0.582  16.921  19.507  0.00  0.00    +0.000 A 
ATOM     19 CL   UNL     1       0.771  18.630  19.481  0.00  0.00    +0.000 Cl
ATOM     20  C   UNL     1       1.253  16.166  20.460  0.00  0.00    +0.000 A 
ATOM     21  C   UNL     1       1.148  14.772  20.440  0.00  0.00    +0.000 A 
ENDBRANCH   6  15
BRANCH   3  22
ATOM     22  C   UNL     1       1.483   9.161  18.929  0.00  0.00    +0.000 A 
ATOM     23  N   UNL     1       1.880   8.883  17.642  0.00  0.00    +0.000 NA
ATOM     24  C   UNL     1       2.377   7.669  17.672  0.00  0.00    +0.000 A 
ATOM     25  N   UNL     1       2.331   7.127  18.928  0.00  0.00    +0.000 N 
ATOM     26  C   UNL     1       1.746   8.074  19.756  0.00  0.00    +0.000 A 
ATOM     27  C   UNL     1       1.454   7.890  21.200  0.00  0.00    +0.000 C 
BRANCH  25  28
ATOM     28  C   UNL     1       2.752   5.773  19.282  0.00  0.00    +0.000 C 
ATOM     29  C   UNL     1       1.839   4.733  18.632  0.00  0.00    +0.000 C 
ATOM     30  C   UNL     1       4.222   5.479  18.944  0.00  0.00    +0.000 C 
ENDBRANCH  25  28
ENDBRANCH   3  22
TORSDOF 4
ENDMDL
MODEL 7
REMARK VINA RESULT:      -7.0      4.203      6.747
REMARK  Name = 
REMARK  8 active torsions:
REMARK  status: ('A' for Active; 'I' for Inactive)
REMARK    1  A    between atoms: C_1  and  C_2
REMARK    2  A    between atoms: C_3  and  C_4
REMARK    3  A    between atoms: N_7  and  C_8
REMARK    4  A    between atoms: C_8  and  C_9
REMARK    5  A    between atoms: C_8  and  C_10
REMARK    6  A    between atoms: C_11  and  C_12
REMARK    7  A    between atoms: N_14  and  C_15
REMARK    8  A    between atoms: C_23  and  C_24
REMARK                            x       y       z     vdW  Elec       q    Type
REMARK                         _______ _______ _______ _____ _____    ______ ____
ROOT
ATOM      1  C   UNL     1       2.608  12.497  18.369  0.00  0.00    +0.000 C 
ATOM      2  C   UNL     1       1.852  12.843  19.606  0.00  0.00    +0.000 A 
ATOM      3  C   UNL     1       2.278  13.637  20.709  0.00  0.00    +0.000 A 
ATOM      4  N   UNL     1       1.291  13.801  21.598  0.00  0.00    +0.000 NA
ATOM      5  N   UNL     1       0.305  12.958  21.199  0.00  0.00    +0.000 N 
ATOM      6  C   UNL     1       0.534  12.471  19.906  0.00  0.00    +0.000 A 
ENDROOT
BRANCH   5   7
ATOM      7  C   UNL     1      -0.807  12.771  22.080  0.00  0.00    +0.000 A 
ATOM      8  C   UNL     1      -1.594  13.904  22.378  0.00  0.00    +0.000 A 
ATOM      9  C   UNL     1      -2.746  13.789  23.163  0.00  0.00    +0.000 A 
ATOM     10  C   UNL     1      -3.120  12.543  23.654  0.00  0.00    +0.000 A 
ATOM     11 CL   UNL     1      -4.540  12.393  24.614  0.00  0.00    +0.000 Cl
ATOM     12  C   UNL     1      -2.331  11.424  23.407  0.00  0.00    +0.000 A 
ATOM     13  C   UNL     1      -1.152  11.541  22.658  0.00  0.00    +0.000 A 
ATOM     14 CL   UNL     1      -0.105  10.163  22.710  0.00  0.00    +0.000 Cl
ENDBRANCH   5   7
BRANCH   6  15
ATOM     15  C   UNL     1      -0.445  11.745  19.066  0.00  0.00    +0.000 A 
ATOM     16  C   UNL     1      -0.298  10.379  18.771  0.00  0.00    +0.000 A 
ATOM     17  C   UNL     1      -1.161   9.743  17.868  0.00  0.00    +0.000 A 
ATOM     18  C   UNL     1      -2.217  10.450  17.300  0.00  0.00    +0.000 A 
ATOM     19 CL   UNL     1      -3.263   9.676  16.175  0.00  0.00    +0.000 Cl
ATOM     20  C   UNL     1      -2.420  11.784  17.629  0.00  0.00    +0.000 A 
ATOM     21  C   UNL     1      -1.532  12.428  18.495  0.00  0.00    +0.000 A 
ENDBRANCH   6  15
BRANCH   3  22
ATOM     22  C   UNL     1       3.616  14.249  20.895  0.00  0.00    +0.000 A 
ATOM     23  N   UNL     1       4.422  13.877  21.946  0.00  0.00    +0.000 NA
ATOM     24  C   UNL     1       5.500  14.619  21.856  0.00  0.00    +0.000 A 
ATOM     25  N   UNL     1       5.448  15.470  20.786  0.00  0.00    +0.000 N 
ATOM     26  C   UNL     1       4.232  15.254  20.155  0.00  0.00    +0.000 A 
ATOM     27  C   UNL     1       3.734  15.998  18.971  0.00  0.00    +0.000 C 
BRANCH  25  28
ATOM     28  C   UNL     1       6.463  16.465  20.445  0.00  0.00    +0.000 C 
ATOM     29  C   UNL     1       6.940  17.205  21.695  0.00  0.00    +0.000 C 
ATOM     30  C   UNL     1       7.662  15.881  19.680  0.00  0.00    +0.000 C 
ENDBRANCH  25  28
ENDBRANCH   3  22
TORSDOF 4
ENDMDL
MODEL 8
REMARK VINA RESULT:      -7.0      3.677      7.538
REMARK  Name = 
REMARK  8 active torsions:
REMARK  status: ('A' for Active; 'I' for Inactive)
REMARK    1  A    between atoms: C_1  and  C_2
REMARK    2  A    between atoms: C_3  and  C_4
REMARK    3  A    between atoms: N_7  and  C_8
REMARK    4  A    between atoms: C_8  and  C_9
REMARK    5  A    between atoms: C_8  and  C_10
REMARK    6  A    between atoms: C_11  and  C_12
REMARK    7  A    between atoms: N_14  and  C_15
REMARK    8  A    between atoms: C_23  and  C_24
REMARK                            x       y       z     vdW  Elec       q    Type
REMARK                         _______ _______ _______ _____ _____    ______ ____
ROOT
ATOM      1  C   UNL     1      -0.554  14.967  21.886  0.00  0.00    +0.000 C 
ATOM      2  C   UNL     1      -0.603  13.551  21.424  0.00  0.00    +0.000 A 
ATOM      3  C   UNL     1      -1.639  12.593  21.618  0.00  0.00    +0.000 A 
ATOM      4  N   UNL     1      -1.368  11.449  20.981  0.00  0.00    +0.000 NA
ATOM      5  N   UNL     1      -0.084  11.570  20.558  0.00  0.00    +0.000 N 
ATOM      6  C   UNL     1       0.372  12.890  20.664  0.00  0.00    +0.000 A 
ENDROOT
BRANCH   5   7
ATOM      7  C   UNL     1       0.549  10.409  20.012  0.00  0.00    +0.000 A 
ATOM      8  C   UNL     1       0.682  10.344  18.608  0.00  0.00    +0.000 A 
ATOM      9  C   UNL     1       1.363   9.283  18.003  0.00  0.00    +0.000 A 
ATOM     10  C   UNL     1       1.916   8.281  18.793  0.00  0.00    +0.000 A 
ATOM     11 CL   UNL     1       2.761   6.977  18.055  0.00  0.00    +0.000 Cl
ATOM     12  C   UNL     1       1.755   8.307  20.175  0.00  0.00    +0.000 A 
ATOM     13  C   UNL     1       1.036   9.344  20.785  0.00  0.00    +0.000 A 
ATOM     14 CL   UNL     1       0.627   9.082  22.446  0.00  0.00    +0.000 Cl
ENDBRANCH   5   7
BRANCH   6  15
ATOM     15  C   UNL     1       1.612  13.431  20.064  0.00  0.00    +0.000 A 
ATOM     16  C   UNL     1       2.749  13.711  20.840  0.00  0.00    +0.000 A 
ATOM     17  C   UNL     1       3.865  14.344  20.277  0.00  0.00    +0.000 A 
ATOM     18  C   UNL     1       3.880  14.649  18.919  0.00  0.00    +0.000 A 
ATOM     19 CL   UNL     1       5.239  15.447  18.232  0.00  0.00    +0.000 Cl
ATOM     20  C   UNL     1       2.793  14.322  18.119  0.00  0.00    +0.000 A 
ATOM     21  C   UNL     1       1.663  13.730  18.692  0.00  0.00    +0.000 A 
ENDBRANCH   6  15
BRANCH   3  22
ATOM     22  C   UNL     1      -2.890  12.786  22.392  0.00  0.00    +0.000 A 
ATOM     23  N   UNL     1      -3.033  12.244  23.648  0.00  0.00    +0.000 NA
ATOM     24  C   UNL     1      -4.246  12.553  24.040  0.00  0.00    +0.000 A 
ATOM     25  N   UNL     1      -4.918  13.283  23.098  0.00  0.00    +0.000 N 
ATOM     26  C   UNL     1      -4.061  13.438  22.019  0.00  0.00    +0.000 A 
ATOM     27  C   UNL     1      -4.397  14.127  20.747  0.00  0.00    +0.000 C 
BRANCH  25  28
ATOM     28  C   UNL     1      -6.305  13.732  23.205  0.00  0.00    +0.000 C 
ATOM     29  C   UNL     1      -7.136  12.741  24.020  0.00  0.00    +0.000 C 
ATOM     30  C   UNL     1      -6.448  15.150  23.781  0.00  0.00    +0.000 C 
ENDBRANCH  25  28
ENDBRANCH   3  22
TORSDOF 4
ENDMDL
MODEL 9
REMARK VINA RESULT:      -6.9      3.312      4.686
REMARK  Name = 
REMARK  8 active torsions:
REMARK  status: ('A' for Active; 'I' for Inactive)
REMARK    1  A    between atoms: C_1  and  C_2
REMARK    2  A    between atoms: C_3  and  C_4
REMARK    3  A    between atoms: N_7  and  C_8
REMARK    4  A    between atoms: C_8  and  C_9
REMARK    5  A    between atoms: C_8  and  C_10
REMARK    6  A    between atoms: C_11  and  C_12
REMARK    7  A    between atoms: N_14  and  C_15
REMARK    8  A    between atoms: C_23  and  C_24
REMARK                            x       y       z     vdW  Elec       q    Type
REMARK                         _______ _______ _______ _____ _____    ______ ____
ROOT
ATOM      1  C   UNL     1      -0.522   9.469  22.860  0.00  0.00    +0.000 C 
ATOM      2  C   UNL     1      -0.061  10.377  21.772  0.00  0.00    +0.000 A 
ATOM      3  C   UNL     1       0.707  10.053  20.616  0.00  0.00    +0.000 A 
ATOM      4  N   UNL     1       0.852  11.116  19.817  0.00  0.00    +0.000 NA
ATOM      5  N   UNL     1       0.379  12.169  20.530  0.00  0.00    +0.000 N 
ATOM      6  C   UNL     1      -0.332  11.748  21.661  0.00  0.00    +0.000 A 
ENDROOT
BRANCH   5   7
ATOM      7  C   UNL     1       0.591  13.480  20.000  0.00  0.00    +0.000 A 
ATOM      8  C   UNL     1      -0.397  13.996  19.133  0.00  0.00    +0.000 A 
ATOM      9  C   UNL     1      -0.305  15.301  18.640  0.00  0.00    +0.000 A 
ATOM     10  C   UNL     1       0.771  16.101  19.009  0.00  0.00    +0.000 A 
ATOM     11 CL   UNL     1       0.886  17.710  18.411  0.00  0.00    +0.000 Cl
ATOM     12  C   UNL     1       1.777  15.593  19.826  0.00  0.00    +0.000 A 
ATOM     13  C   UNL     1       1.713  14.271  20.288  0.00  0.00    +0.000 A 
ATOM     14 CL   UNL     1       3.169  13.669  21.005  0.00  0.00    +0.000 Cl
ENDBRANCH   5   7
BRANCH   6  15
ATOM     15  C   UNL     1      -1.192  12.600  22.513  0.00  0.00    +0.000 A 
ATOM     16  C   UNL     1      -2.553  12.312  22.714  0.00  0.00    +0.000 A 
ATOM     17  C   UNL     1      -3.379  13.201  23.414  0.00  0.00    +0.000 A 
ATOM     18  C   UNL     1      -2.841  14.356  23.975  0.00  0.00    +0.000 A 
ATOM     19 CL   UNL     1      -3.858  15.459  24.815  0.00  0.00    +0.000 Cl
ATOM     20  C   UNL     1      -1.485  14.628  23.844  0.00  0.00    +0.000 A 
ATOM     21  C   UNL     1      -0.671  13.761  23.107  0.00  0.00    +0.000 A 
ENDBRANCH   6  15
BRANCH   3  22
ATOM     22  C   UNL     1       1.277   8.726  20.275  0.00  0.00    +0.000 A 
ATOM     23  N   UNL     1       1.319   7.716  21.208  0.00  0.00    +0.000 NA
ATOM     24  C   UNL     1       1.909   6.704  20.618  0.00  0.00    +0.000 A 
ATOM     25  N   UNL     1       2.260   6.996  19.328  0.00  0.00    +0.000 N 
ATOM     26  C   UNL     1       1.868   8.304  19.089  0.00  0.00    +0.000 A 
ATOM     27  C   UNL     1       2.096   9.053  17.827  0.00  0.00    +0.000 C 
BRANCH  25  28
ATOM     28  C   UNL     1       2.983   6.104  18.424  0.00  0.00    +0.000 C 
ATOM     29  C   UNL     1       4.248   5.563  19.092  0.00  0.00    +0.000 C 
ATOM     30  C   UNL     1       2.126   4.947  17.888  0.00  0.00    +0.000 C 
ENDBRANCH  25  28
ENDBRANCH   3  22
TORSDOF 4
ENDMDL
