MODEL 1
REMARK VINA RESULT:      -7.4      0.000      0.000
REMARK  Name = 
REMARK  5 active torsions:
REMARK  status: ('A' for Active; 'I' for Inactive)
REMARK    1  A    between atoms: C_1  and  C_2
REMARK    2  A    between atoms: C_6  and  C_7
REMARK    3  A    between atoms: N_12  and  C_13
REMARK    4  A    between atoms: C_16  and  S_17
REMARK    5  A    between atoms: S_17  and  N_18
REMARK                            x       y       z     vdW  Elec       q    Type
REMARK                         _______ _______ _______ _____ _____    ______ ____
ROOT
ATOM      1  C   UNL     1       4.229   4.788  18.657  0.00  0.00    +0.000 C 
ATOM      2  O   UNL     1       3.890   3.824  19.349  0.00  0.00    +0.000 OA
ATOM      3  N   UNL     1       3.409   5.927  18.776  0.00  0.00    +0.000 N 
ATOM      4  N   UNL     1       3.263   6.830  17.762  0.00  0.00    +0.000 NA
ATOM      5  C   UNL     1       2.371   7.683  18.269  0.00  0.00    +0.000 A 
ATOM      6  N   UNL     1       1.803   8.705  17.604  0.00  0.00    +0.000 N 
ATOM      7  N   UNL     1       1.961   7.398  19.537  0.00  0.00    +0.000 NA
ATOM      8  C   UNL     1       2.579   6.286  19.832  0.00  0.00    +0.000 A 
ATOM      9  N   UNL     1       2.465   5.621  21.000  0.00  0.00    +0.000 N 
ATOM     10  H   UNL     1       1.860   8.675  16.595  0.00  0.00    +0.000 HD
ATOM     11  H   UNL     1       1.650   5.849  21.562  0.00  0.00    +0.000 HD
ATOM     12  H   UNL     1       2.732   4.637  21.049  0.00  0.00    +0.000 HD
ENDROOT
BRANCH   1  18
ATOM     13  C   UNL     1       7.293   5.635  19.348  0.00  0.00    +0.000 C 
ATOM     14  C   UNL     1       6.746   5.092  18.067  0.00  0.00    +0.000 A 
ATOM     15  C   UNL     1       7.593   4.796  16.944  0.00  0.00    +0.000 A 
ATOM     16  C   UNL     1       6.911   4.235  15.890  0.00  0.00    +0.000 A 
ATOM     17  S   UNL     1       5.249   4.077  16.226  0.00  0.00    +0.000 S 
ATOM     18  C   UNL     1       5.419   4.754  17.800  0.00  0.00    +0.000 A 
ENDBRANCH   1  18
BRANCH   6  19
ATOM     19  C   UNL     1       1.370   9.950  18.103  0.00  0.00    +0.000 A 
ATOM     20  C   UNL     1       2.242  11.038  18.265  0.00  0.00    +0.000 A 
ATOM     21  C   UNL     1       1.784  12.269  18.741  0.00  0.00    +0.000 A 
ATOM     22  C   UNL     1       0.442  12.409  19.093  0.00  0.00    +0.000 A 
ATOM     23  C   UNL     1      -0.429  11.321  19.013  0.00  0.00    +0.000 A 
ATOM     24  C   UNL     1       0.037  10.100  18.514  0.00  0.00    +0.000 A 
BRANCH  22  25
ATOM     25  S   UNL     1      -0.149  13.978  19.662  0.00  0.00    +0.000 S 
ATOM     26  O   UNL     1       0.264  14.176  21.028  0.00  0.00    +0.000 OA
ATOM     27  O   UNL     1       0.051  14.968  18.635  0.00  0.00    +0.000 OA
BRANCH  25  28
ATOM     28  N   UNL     1      -1.807  13.699  19.719  0.00  0.00    +0.000 NA
ATOM     29  H   UNL     1      -2.214  14.199  20.508  0.00  0.00    +0.000 HD
ATOM     30  H   UNL     1      -2.230  13.926  18.819  0.00  0.00    +0.000 HD
ENDBRANCH  25  28
ENDBRANCH  22  25
ENDBRANCH   6  19
TORSDOF 4
ENDMDL
MODEL 2
REMARK VINA RESULT:      -7.4      0.274      1.001
REMARK  Name = 
REMARK  5 active torsions:
REMARK  status: ('A' for Active; 'I' for Inactive)
REMARK    1  A    between atoms: C_1  and  C_2
REMARK    2  A    between atoms: C_6  and  C_7
REMARK    3  A    between atoms: N_12  and  C_13
REMARK    4  A    between atoms: C_16  and  S_17
REMARK    5  A    between atoms: S_17  and  N_18
REMARK                            x       y       z     vdW  Elec       q    Type
REMARK                         _______ _______ _______ _____ _____    ______ ____
ROOT
ATOM      1  C   UNL     1       4.141   4.770  18.653  0.00  0.00    +0.000 C 
ATOM      2  O   UNL     1       3.774   3.803  19.326  0.00  0.00    +0.000 OA
ATOM      3  N   UNL     1       3.345   5.925  18.784  0.00  0.00    +0.000 N 
ATOM      4  N   UNL     1       3.229   6.848  17.783  0.00  0.00    +0.000 NA
ATOM      5  C   UNL     1       2.351   7.712  18.297  0.00  0.00    +0.000 A 
ATOM      6  N   UNL     1       1.813   8.758  17.644  0.00  0.00    +0.000 N 
ATOM      7  N   UNL     1       1.924   7.416  19.556  0.00  0.00    +0.000 NA
ATOM      8  C   UNL     1       2.514   6.285  19.838  0.00  0.00    +0.000 A 
ATOM      9  N   UNL     1       2.375   5.604  20.993  0.00  0.00    +0.000 N 
ATOM     10  H   UNL     1       1.879   8.743  16.635  0.00  0.00    +0.000 HD
ATOM     11  H   UNL     1       1.560   5.842  21.553  0.00  0.00    +0.000 HD
ATOM     12  H   UNL     1       2.619   4.614  21.029  0.00  0.00    +0.000 HD
ENDROOT
BRANCH   1  18
ATOM     13  C   UNL     1       7.207   5.582  19.371  0.00  0.00    +0.000 C 
ATOM     14  C   UNL     1       6.665   5.045  18.084  0.00  0.00    +0.000 A 
ATOM     15  C   UNL     1       7.518   4.741  16.968  0.00  0.00    +0.000 A 
ATOM     16  C   UNL     1       6.840   4.188  15.909  0.00  0.00    +0.000 A 
ATOM     17  S   UNL     1       5.173   4.048  16.231  0.00  0.00    +0.000 S 
ATOM     18  C   UNL     1       5.337   4.722  17.806  0.00  0.00    +0.000 A 
ENDBRANCH   1  18
BRANCH   6  19
ATOM     19  C   UNL     1       1.403  10.004  18.159  0.00  0.00    +0.000 A 
ATOM     20  C   UNL     1       0.111  10.219  18.664  0.00  0.00    +0.000 A 
ATOM     21  C   UNL     1      -0.263  11.457  19.190  0.00  0.00    +0.000 A 
ATOM     22  C   UNL     1       0.652  12.509  19.183  0.00  0.00    +0.000 A 
ATOM     23  C   UNL     1       1.918  12.343  18.618  0.00  0.00    +0.000 A 
ATOM     24  C   UNL     1       2.289  11.091  18.115  0.00  0.00    +0.000 A 
BRANCH  22  25
ATOM     25  S   UNL     1       0.192  14.069  19.882  0.00  0.00    +0.000 S 
ATOM     26  O   UNL     1       0.253  13.983  21.319  0.00  0.00    +0.000 OA
ATOM     27  O   UNL     1       0.815  15.132  19.136  0.00  0.00    +0.000 OA
BRANCH  25  28
ATOM     28  N   UNL     1      -1.445  14.129  19.494  0.00  0.00    +0.000 NA
ATOM     29  H   UNL     1      -1.863  14.968  19.891  0.00  0.00    +0.000 HD
ATOM     30  H   UNL     1      -1.567  14.038  18.486  0.00  0.00    +0.000 HD
ENDBRANCH  25  28
ENDBRANCH  22  25
ENDBRANCH   6  19
TORSDOF 4
ENDMDL
MODEL 3
REMARK VINA RESULT:      -7.2      0.919      1.630
REMARK  Name = 
REMARK  5 active torsions:
REMARK  status: ('A' for Active; 'I' for Inactive)
REMARK    1  A    between atoms: C_1  and  C_2
REMARK    2  A    between atoms: C_6  and  C_7
REMARK    3  A    between atoms: N_12  and  C_13
REMARK    4  A    between atoms: C_16  and  S_17
REMARK    5  A    between atoms: S_17  and  N_18
REMARK                            x       y       z     vdW  Elec       q    Type
REMARK                         _______ _______ _______ _____ _____    ______ ____
ROOT
ATOM      1  C   UNL     1       4.141   4.825  19.090  0.00  0.00    +0.000 C 
ATOM      2  O   UNL     1       3.705   3.860  19.722  0.00  0.00    +0.000 OA
ATOM      3  N   UNL     1       3.311   5.964  19.091  0.00  0.00    +0.000 N 
ATOM      4  N   UNL     1       3.315   6.870  18.068  0.00  0.00    +0.000 NA
ATOM      5  C   UNL     1       2.357   7.721  18.441  0.00  0.00    +0.000 A 
ATOM      6  N   UNL     1       1.892   8.745  17.703  0.00  0.00    +0.000 N 
ATOM      7  N   UNL     1       1.766   7.432  19.635  0.00  0.00    +0.000 NA
ATOM      8  C   UNL     1       2.335   6.319  20.015  0.00  0.00    +0.000 A 
ATOM      9  N   UNL     1       2.051   5.651  21.151  0.00  0.00    +0.000 N 
ATOM     10  H   UNL     1       2.097   8.717  16.713  0.00  0.00    +0.000 HD
ATOM     11  H   UNL     1       1.162   5.878  21.588  0.00  0.00    +0.000 HD
ATOM     12  H   UNL     1       2.309   4.667  21.236  0.00  0.00    +0.000 HD
ENDROOT
BRANCH   1  18
ATOM     13  C   UNL     1       4.863   3.985  16.032  0.00  0.00    +0.000 C 
ATOM     14  C   UNL     1       5.787   4.457  17.109  0.00  0.00    +0.000 A 
ATOM     15  C   UNL     1       7.188   4.673  16.868  0.00  0.00    +0.000 A 
ATOM     16  C   UNL     1       7.850   5.178  17.962  0.00  0.00    +0.000 A 
ATOM     17  S   UNL     1       6.807   5.376  19.293  0.00  0.00    +0.000 S 
ATOM     18  C   UNL     1       5.444   4.794  18.418  0.00  0.00    +0.000 A 
ENDBRANCH   1  18
BRANCH   6  19
ATOM     19  C   UNL     1       1.390   9.988  18.136  0.00  0.00    +0.000 A 
ATOM     20  C   UNL     1       0.037  10.179  18.459  0.00  0.00    +0.000 A 
ATOM     21  C   UNL     1      -0.432  11.415  18.908  0.00  0.00    +0.000 A 
ATOM     22  C   UNL     1       0.452  12.489  19.003  0.00  0.00    +0.000 A 
ATOM     23  C   UNL     1       1.786  12.346  18.615  0.00  0.00    +0.000 A 
ATOM     24  C   UNL     1       2.249  11.096  18.190  0.00  0.00    +0.000 A 
BRANCH  22  25
ATOM     25  S   UNL     1      -0.132  14.048  19.605  0.00  0.00    +0.000 S 
ATOM     26  O   UNL     1       0.307  14.228  20.966  0.00  0.00    +0.000 OA
ATOM     27  O   UNL     1       0.044  15.053  18.588  0.00  0.00    +0.000 OA
BRANCH  25  28
ATOM     28  N   UNL     1      -1.788  13.763  19.692  0.00  0.00    +0.000 NA
ATOM     29  H   UNL     1      -2.263  14.251  18.934  0.00  0.00    +0.000 HD
ATOM     30  H   UNL     1      -1.968  12.759  19.719  0.00  0.00    +0.000 HD
ENDBRANCH  25  28
ENDBRANCH  22  25
ENDBRANCH   6  19
TORSDOF 4
ENDMDL
MODEL 4
REMARK VINA RESULT:      -7.2      2.448      9.147
REMARK  Name = 
REMARK  5 active torsions:
REMARK  status: ('A' for Active; 'I' for Inactive)
REMARK    1  A    between atoms: C_1  and  C_2
REMARK    2  A    between atoms: C_6  and  C_7
REMARK    3  A    between atoms: N_12  and  C_13
REMARK    4  A    between atoms: C_16  and  S_17
REMARK    5  A    between atoms: S_17  and  N_18
REMARK                            x       y       z     vdW  Elec       q    Type
REMARK                         _______ _______ _______ _____ _____    ______ ____
ROOT
ATOM      1  C   UNL     1       0.034  12.967  19.202  0.00  0.00    +0.000 C 
ATOM      2  O   UNL     1       0.195  13.954  18.480  0.00  0.00    +0.000 OA
ATOM      3  N   UNL     1       0.796  11.836  18.847  0.00  0.00    +0.000 N 
ATOM      4  N   UNL     1       0.385  10.563  19.123  0.00  0.00    +0.000 NA
ATOM      5  C   UNL     1       1.349   9.828  18.564  0.00  0.00    +0.000 A 
ATOM      6  N   UNL     1       1.347   8.487  18.465  0.00  0.00    +0.000 N 
ATOM      7  N   UNL     1       2.349  10.543  17.978  0.00  0.00    +0.000 NA
ATOM      8  C   UNL     1       1.981  11.788  18.122  0.00  0.00    +0.000 A 
ATOM      9  N   UNL     1       2.672  12.858  17.679  0.00  0.00    +0.000 N 
ATOM     10  H   UNL     1       0.456   8.026  18.589  0.00  0.00    +0.000 HD
ATOM     11  H   UNL     1       3.366  12.670  16.960  0.00  0.00    +0.000 HD
ATOM     12  H   UNL     1       2.198  13.754  17.564  0.00  0.00    +0.000 HD
ENDROOT
BRANCH   1  18
ATOM     13  C   UNL     1      -3.106  12.140  19.398  0.00  0.00    +0.000 C 
ATOM     14  C   UNL     1      -2.203  12.625  20.487  0.00  0.00    +0.000 A 
ATOM     15  C   UNL     1      -2.640  12.715  21.854  0.00  0.00    +0.000 A 
ATOM     16  C   UNL     1      -1.642  13.109  22.713  0.00  0.00    +0.000 A 
ATOM     17  S   UNL     1      -0.179  13.396  21.890  0.00  0.00    +0.000 S 
ATOM     18  C   UNL     1      -0.862  12.987  20.363  0.00  0.00    +0.000 A 
ENDBRANCH   1  18
BRANCH   6  19
ATOM     19  C   UNL     1       2.443   7.600  18.476  0.00  0.00    +0.000 A 
ATOM     20  C   UNL     1       3.413   7.593  17.462  0.00  0.00    +0.000 A 
ATOM     21  C   UNL     1       4.501   6.719  17.507  0.00  0.00    +0.000 A 
ATOM     22  C   UNL     1       4.608   5.814  18.562  0.00  0.00    +0.000 A 
ATOM     23  C   UNL     1       3.617   5.749  19.543  0.00  0.00    +0.000 A 
ATOM     24  C   UNL     1       2.543   6.645  19.499  0.00  0.00    +0.000 A 
BRANCH  22  25
ATOM     25  S   UNL     1       6.005   4.730  18.642  0.00  0.00    +0.000 S 
ATOM     26  O   UNL     1       6.494   4.484  17.308  0.00  0.00    +0.000 OA
ATOM     27  O   UNL     1       6.865   5.132  19.726  0.00  0.00    +0.000 OA
BRANCH  25  28
ATOM     28  N   UNL     1       5.277   3.296  19.136  0.00  0.00    +0.000 NA
ATOM     29  H   UNL     1       5.947   2.728  19.651  0.00  0.00    +0.000 HD
ATOM     30  H   UNL     1       4.420   3.500  19.650  0.00  0.00    +0.000 HD
ENDBRANCH  25  28
ENDBRANCH  22  25
ENDBRANCH   6  19
TORSDOF 4
ENDMDL
MODEL 5
REMARK VINA RESULT:      -7.0      0.887      1.121
REMARK  Name = 
REMARK  5 active torsions:
REMARK  status: ('A' for Active; 'I' for Inactive)
REMARK    1  A    between atoms: C_1  and  C_2
REMARK    2  A    between atoms: C_6  and  C_7
REMARK    3  A    between atoms: N_12  and  C_13
REMARK    4  A    between atoms: C_16  and  S_17
REMARK    5  A    between atoms: S_17  and  N_18
REMARK                            x       y       z     vdW  Elec       q    Type
REMARK                         _______ _______ _______ _____ _____    ______ ____
ROOT
ATOM      1  C   UNL     1       4.114   4.834  18.525  0.00  0.00    +0.000 C 
ATOM      2  O   UNL     1       3.706   3.852  19.151  0.00  0.00    +0.000 OA
ATOM      3  N   UNL     1       3.374   6.016  18.720  0.00  0.00    +0.000 N 
ATOM      4  N   UNL     1       3.296   6.993  17.768  0.00  0.00    +0.000 NA
ATOM      5  C   UNL     1       2.461   7.869  18.330  0.00  0.00    +0.000 A 
ATOM      6  N   UNL     1       1.968   8.970  17.734  0.00  0.00    +0.000 N 
ATOM      7  N   UNL     1       2.025   7.529  19.576  0.00  0.00    +0.000 NA
ATOM      8  C   UNL     1       2.564   6.360  19.797  0.00  0.00    +0.000 A 
ATOM      9  N   UNL     1       2.399   5.628  20.917  0.00  0.00    +0.000 N 
ATOM     10  H   UNL     1       2.029   9.003  16.726  0.00  0.00    +0.000 HD
ATOM     11  H   UNL     1       1.598   5.874  21.493  0.00  0.00    +0.000 HD
ATOM     12  H   UNL     1       2.598   4.627  20.900  0.00  0.00    +0.000 HD
ENDROOT
BRANCH   1  18
ATOM     13  C   UNL     1       7.196   5.605  19.222  0.00  0.00    +0.000 C 
ATOM     14  C   UNL     1       6.637   5.080  17.938  0.00  0.00    +0.000 A 
ATOM     15  C   UNL     1       7.478   4.769  16.814  0.00  0.00    +0.000 A 
ATOM     16  C   UNL     1       6.784   4.228  15.758  0.00  0.00    +0.000 A 
ATOM     17  S   UNL     1       5.119   4.108  16.092  0.00  0.00    +0.000 S 
ATOM     18  C   UNL     1       5.304   4.774  17.669  0.00  0.00    +0.000 A 
ENDBRANCH   1  18
BRANCH   6  19
ATOM     19  C   UNL     1       1.619  10.206  18.315  0.00  0.00    +0.000 A 
ATOM     20  C   UNL     1       2.359  11.377  18.088  0.00  0.00    +0.000 A 
ATOM     21  C   UNL     1       1.979  12.594  18.657  0.00  0.00    +0.000 A 
ATOM     22  C   UNL     1       0.864  12.641  19.493  0.00  0.00    +0.000 A 
ATOM     23  C   UNL     1       0.156  11.476  19.795  0.00  0.00    +0.000 A 
ATOM     24  C   UNL     1       0.532  10.267  19.200  0.00  0.00    +0.000 A 
BRANCH  22  25
ATOM     25  S   UNL     1       0.359  14.189  20.186  0.00  0.00    +0.000 S 
ATOM     26  O   UNL     1      -0.789  14.681  19.468  0.00  0.00    +0.000 OA
ATOM     27  O   UNL     1       0.406  14.110  21.624  0.00  0.00    +0.000 OA
BRANCH  25  28
ATOM     28  N   UNL     1       1.642  15.181  19.736  0.00  0.00    +0.000 NA
ATOM     29  H   UNL     1       1.363  16.158  19.803  0.00  0.00    +0.000 HD
ATOM     30  H   UNL     1       2.472  14.946  20.282  0.00  0.00    +0.000 HD
ENDBRANCH  25  28
ENDBRANCH  22  25
ENDBRANCH   6  19
TORSDOF 4
ENDMDL
MODEL 6
REMARK VINA RESULT:      -7.0      1.255      1.341
REMARK  Name = 
REMARK  5 active torsions:
REMARK  status: ('A' for Active; 'I' for Inactive)
REMARK    1  A    between atoms: C_1  and  C_2
REMARK    2  A    between atoms: C_6  and  C_7
REMARK    3  A    between atoms: N_12  and  C_13
REMARK    4  A    between atoms: C_16  and  S_17
REMARK    5  A    between atoms: S_17  and  N_18
REMARK                            x       y       z     vdW  Elec       q    Type
REMARK                         _______ _______ _______ _____ _____    ______ ____
ROOT
ATOM      1  C   UNL     1       4.175   4.469  18.525  0.00  0.00    +0.000 C 
ATOM      2  O   UNL     1       3.830   3.391  19.017  0.00  0.00    +0.000 OA
ATOM      3  N   UNL     1       3.383   5.574  18.892  0.00  0.00    +0.000 N 
ATOM      4  N   UNL     1       3.235   6.666  18.084  0.00  0.00    +0.000 NA
ATOM      5  C   UNL     1       2.371   7.413  18.775  0.00  0.00    +0.000 A 
ATOM      6  N   UNL     1       1.812   8.558  18.344  0.00  0.00    +0.000 N 
ATOM      7  N   UNL     1       1.983   6.885  19.970  0.00  0.00    +0.000 NA
ATOM      8  C   UNL     1       2.583   5.726  20.019  0.00  0.00    +0.000 A 
ATOM      9  N   UNL     1       2.480   4.841  21.031  0.00  0.00    +0.000 N 
ATOM     10  H   UNL     1       1.847   8.731  17.349  0.00  0.00    +0.000 HD
ATOM     11  H   UNL     1       1.682   4.965  21.649  0.00  0.00    +0.000 HD
ATOM     12  H   UNL     1       2.727   3.863  20.875  0.00  0.00    +0.000 HD
ENDROOT
BRANCH   1  18
ATOM     13  C   UNL     1       7.151   5.594  19.202  0.00  0.00    +0.000 C 
ATOM     14  C   UNL     1       6.636   5.048  17.909  0.00  0.00    +0.000 A 
ATOM     15  C   UNL     1       7.486   4.883  16.761  0.00  0.00    +0.000 A 
ATOM     16  C   UNL     1       6.844   4.296  15.697  0.00  0.00    +0.000 A 
ATOM     17  S   UNL     1       5.214   3.958  16.052  0.00  0.00    +0.000 S 
ATOM     18  C   UNL     1       5.346   4.588  17.649  0.00  0.00    +0.000 A 
ENDBRANCH   1  18
BRANCH   6  19
ATOM     19  C   UNL     1       1.417   9.684  19.094  0.00  0.00    +0.000 A 
ATOM     20  C   UNL     1       1.618  10.996  18.639  0.00  0.00    +0.000 A 
ATOM     21  C   UNL     1       1.197  12.095  19.392  0.00  0.00    +0.000 A 
ATOM     22  C   UNL     1       0.596  11.886  20.632  0.00  0.00    +0.000 A 
ATOM     23  C   UNL     1       0.453  10.594  21.141  0.00  0.00    +0.000 A 
ATOM     24  C   UNL     1       0.857   9.500  20.368  0.00  0.00    +0.000 A 
BRANCH  22  25
ATOM     25  S   UNL     1       0.029  13.275  21.571  0.00  0.00    +0.000 S 
ATOM     26  O   UNL     1       1.165  14.000  22.082  0.00  0.00    +0.000 OA
ATOM     27  O   UNL     1      -1.057  13.916  20.874  0.00  0.00    +0.000 OA
BRANCH  25  28
ATOM     28  N   UNL     1      -0.662  12.509  22.900  0.00  0.00    +0.000 NA
ATOM     29  H   UNL     1       0.019  11.889  23.334  0.00  0.00    +0.000 HD
ATOM     30  H   UNL     1      -1.058  13.204  23.535  0.00  0.00    +0.000 HD
ENDBRANCH  25  28
ENDBRANCH  22  25
ENDBRANCH   6  19
TORSDOF 4
ENDMDL
MODEL 7
REMARK VINA RESULT:      -6.9      1.128      1.528
REMARK  Name = 
REMARK  5 active torsions:
REMARK  status: ('A' for Active; 'I' for Inactive)
REMARK    1  A    between atoms: C_1  and  C_2
REMARK    2  A    between atoms: C_6  and  C_7
REMARK    3  A    between atoms: N_12  and  C_13
REMARK    4  A    between atoms: C_16  and  S_17
REMARK    5  A    between atoms: S_17  and  N_18
REMARK                            x       y       z     vdW  Elec       q    Type
REMARK                         _______ _______ _______ _____ _____    ______ ____
ROOT
ATOM      1  C   UNL     1       4.118   4.821  19.043  0.00  0.00    +0.000 C 
ATOM      2  O   UNL     1       3.680   3.824  19.624  0.00  0.00    +0.000 OA
ATOM      3  N   UNL     1       3.287   5.958  19.096  0.00  0.00    +0.000 N 
ATOM      4  N   UNL     1       3.296   6.913  18.120  0.00  0.00    +0.000 NA
ATOM      5  C   UNL     1       2.335   7.743  18.531  0.00  0.00    +0.000 A 
ATOM      6  N   UNL     1       1.873   8.803  17.842  0.00  0.00    +0.000 N 
ATOM      7  N   UNL     1       1.738   7.395  19.705  0.00  0.00    +0.000 NA
ATOM      8  C   UNL     1       2.306   6.265  20.032  0.00  0.00    +0.000 A 
ATOM      9  N   UNL     1       2.018   5.541  21.132  0.00  0.00    +0.000 N 
ATOM     10  H   UNL     1       2.083   8.825  16.853  0.00  0.00    +0.000 HD
ATOM     11  H   UNL     1       1.126   5.745  21.575  0.00  0.00    +0.000 HD
ATOM     12  H   UNL     1       2.276   4.554  21.169  0.00  0.00    +0.000 HD
ENDROOT
BRANCH   1  18
ATOM     13  C   UNL     1       4.871   4.035  15.978  0.00  0.00    +0.000 C 
ATOM     14  C   UNL     1       5.781   4.511  17.065  0.00  0.00    +0.000 A 
ATOM     15  C   UNL     1       7.178   4.758  16.833  0.00  0.00    +0.000 A 
ATOM     16  C   UNL     1       7.824   5.262  17.936  0.00  0.00    +0.000 A 
ATOM     17  S   UNL     1       6.772   5.422  19.266  0.00  0.00    +0.000 S 
ATOM     18  C   UNL     1       5.425   4.824  18.376  0.00  0.00    +0.000 A 
ENDBRANCH   1  18
BRANCH   6  19
ATOM     19  C   UNL     1       1.367  10.023  18.334  0.00  0.00    +0.000 A 
ATOM     20  C   UNL     1       2.129  11.201  18.345  0.00  0.00    +0.000 A 
ATOM     21  C   UNL     1       1.597  12.403  18.818  0.00  0.00    +0.000 A 
ATOM     22  C   UNL     1       0.296  12.425  19.319  0.00  0.00    +0.000 A 
ATOM     23  C   UNL     1      -0.457  11.251  19.389  0.00  0.00    +0.000 A 
ATOM     24  C   UNL     1       0.079  10.058  18.891  0.00  0.00    +0.000 A 
BRANCH  22  25
ATOM     25  S   UNL     1      -0.393  13.954  19.885  0.00  0.00    +0.000 S 
ATOM     26  O   UNL     1      -1.773  13.749  20.247  0.00  0.00    +0.000 OA
ATOM     27  O   UNL     1       0.550  14.616  20.749  0.00  0.00    +0.000 OA
BRANCH  25  28
ATOM     28  N   UNL     1      -0.421  14.846  18.459  0.00  0.00    +0.000 NA
ATOM     29  H   UNL     1      -1.384  15.028  18.183  0.00  0.00    +0.000 HD
ATOM     30  H   UNL     1       0.149  15.686  18.563  0.00  0.00    +0.000 HD
ENDBRANCH  25  28
ENDBRANCH  22  25
ENDBRANCH   6  19
TORSDOF 4
ENDMDL
MODEL 8
REMARK VINA RESULT:      -6.8      2.063      2.563
REMARK  Name = 
REMARK  5 active torsions:
REMARK  status: ('A' for Active; 'I' for Inactive)
REMARK    1  A    between atoms: C_1  and  C_2
REMARK    2  A    between atoms: C_6  and  C_7
REMARK    3  A    between atoms: N_12  and  C_13
REMARK    4  A    between atoms: C_16  and  S_17
REMARK    5  A    between atoms: S_17  and  N_18
REMARK                            x       y       z     vdW  Elec       q    Type
REMARK                         _______ _______ _______ _____ _____    ______ ____
ROOT
ATOM      1  C   UNL     1       4.332   4.271  19.052  0.00  0.00    +0.000 C 
ATOM      2  O   UNL     1       4.013   3.103  19.289  0.00  0.00    +0.000 OA
ATOM      3  N   UNL     1       3.374   5.237  19.419  0.00  0.00    +0.000 N 
ATOM      4  N   UNL     1       3.270   6.440  18.779  0.00  0.00    +0.000 NA
ATOM      5  C   UNL     1       2.219   6.993  19.388  0.00  0.00    +0.000 A 
ATOM      6  N   UNL     1       1.636   8.153  19.037  0.00  0.00    +0.000 N 
ATOM      7  N   UNL     1       1.668   6.239  20.381  0.00  0.00    +0.000 NA
ATOM      8  C   UNL     1       2.365   5.134  20.369  0.00  0.00    +0.000 A 
ATOM      9  N   UNL     1       2.164   4.081  21.187  0.00  0.00    +0.000 N 
ATOM     10  H   UNL     1       1.841   8.499  18.110  0.00  0.00    +0.000 HD
ATOM     11  H   UNL     1       1.255   4.039  21.641  0.00  0.00    +0.000 HD
ATOM     12  H   UNL     1       2.535   3.165  20.933  0.00  0.00    +0.000 HD
ENDROOT
BRANCH   1  18
ATOM     13  C   UNL     1       5.374   3.905  15.993  0.00  0.00    +0.000 C 
ATOM     14  C   UNL     1       6.102   4.496  17.158  0.00  0.00    +0.000 A 
ATOM     15  C   UNL     1       7.411   5.074  17.023  0.00  0.00    +0.000 A 
ATOM     16  C   UNL     1       7.876   5.631  18.190  0.00  0.00    +0.000 A 
ATOM     17  S   UNL     1       6.761   5.447  19.464  0.00  0.00    +0.000 S 
ATOM     18  C   UNL     1       5.628   4.623  18.464  0.00  0.00    +0.000 A 
ENDBRANCH   1  18
BRANCH   6  19
ATOM     19  C   UNL     1       0.991   9.100  19.858  0.00  0.00    +0.000 A 
ATOM     20  C   UNL     1       0.349  10.233  19.334  0.00  0.00    +0.000 A 
ATOM     21  C   UNL     1      -0.302  11.146  20.167  0.00  0.00    +0.000 A 
ATOM     22  C   UNL     1      -0.284  10.947  21.547  0.00  0.00    +0.000 A 
ATOM     23  C   UNL     1       0.412   9.869  22.098  0.00  0.00    +0.000 A 
ATOM     24  C   UNL     1       1.041   8.949  21.252  0.00  0.00    +0.000 A 
BRANCH  22  25
ATOM     25  S   UNL     1      -1.139  12.082  22.602  0.00  0.00    +0.000 S 
ATOM     26  O   UNL     1      -2.037  11.351  23.460  0.00  0.00    +0.000 OA
ATOM     27  O   UNL     1      -0.212  13.066  23.101  0.00  0.00    +0.000 OA
BRANCH  25  28
ATOM     28  N   UNL     1      -2.115  12.886  21.492  0.00  0.00    +0.000 NA
ATOM     29  H   UNL     1      -2.604  12.210  20.909  0.00  0.00    +0.000 HD
ATOM     30  H   UNL     1      -2.730  13.539  21.979  0.00  0.00    +0.000 HD
ENDBRANCH  25  28
ENDBRANCH  22  25
ENDBRANCH   6  19
TORSDOF 4
ENDMDL
MODEL 9
REMARK VINA RESULT:      -6.8      2.841      9.092
REMARK  Name = 
REMARK  5 active torsions:
REMARK  status: ('A' for Active; 'I' for Inactive)
REMARK    1  A    between atoms: C_1  and  C_2
REMARK    2  A    between atoms: C_6  and  C_7
REMARK    3  A    between atoms: N_12  and  C_13
REMARK    4  A    between atoms: C_16  and  S_17
REMARK    5  A    between atoms: S_17  and  N_18
REMARK                            x       y       z     vdW  Elec       q    Type
REMARK                         _______ _______ _______ _____ _____    ______ ____
ROOT
ATOM      1  C   UNL     1      -1.892  11.628  19.342  0.00  0.00    +0.000 C 
ATOM      2  O   UNL     1      -1.914  12.482  20.233  0.00  0.00    +0.000 OA
ATOM      3  N   UNL     1      -0.752  10.800  19.336  0.00  0.00    +0.000 N 
ATOM      4  N   UNL     1      -0.277  10.221  18.193  0.00  0.00    +0.000 NA
ATOM      5  C   UNL     1       0.822   9.601  18.626  0.00  0.00    +0.000 A 
ATOM      6  N   UNL     1       1.718   8.968  17.848  0.00  0.00    +0.000 N 
ATOM      7  N   UNL     1       1.062   9.725  19.962  0.00  0.00    +0.000 NA
ATOM      8  C   UNL     1       0.104  10.503  20.390  0.00  0.00    +0.000 A 
ATOM      9  N   UNL     1      -0.054  10.909  21.666  0.00  0.00    +0.000 N 
ATOM     10  H   UNL     1       1.697   9.191  16.862  0.00  0.00    +0.000 HD
ATOM     11  H   UNL     1       0.767  10.832  22.260  0.00  0.00    +0.000 HD
ATOM     12  H   UNL     1      -0.628  11.729  21.867  0.00  0.00    +0.000 HD
ENDROOT
BRANCH   1  18
ATOM     13  C   UNL     1      -5.066  12.221  19.731  0.00  0.00    +0.000 C 
ATOM     14  C   UNL     1      -4.355  11.731  18.510  0.00  0.00    +0.000 A 
ATOM     15  C   UNL     1      -5.040  11.523  17.263  0.00  0.00    +0.000 A 
ATOM     16  C   UNL     1      -4.199  11.145  16.244  0.00  0.00    +0.000 A 
ATOM     17  S   UNL     1      -2.586  11.013  16.774  0.00  0.00    +0.000 S 
ATOM     18  C   UNL     1      -2.991  11.472  18.384  0.00  0.00    +0.000 A 
ENDBRANCH   1  18
BRANCH   6  19
ATOM     19  C   UNL     1       2.511   7.843  18.151  0.00  0.00    +0.000 A 
ATOM     20  C   UNL     1       2.266   7.032  19.271  0.00  0.00    +0.000 A 
ATOM     21  C   UNL     1       3.053   5.909  19.537  0.00  0.00    +0.000 A 
ATOM     22  C   UNL     1       4.121   5.607  18.694  0.00  0.00    +0.000 A 
ATOM     23  C   UNL     1       4.433   6.440  17.618  0.00  0.00    +0.000 A 
ATOM     24  C   UNL     1       3.623   7.549  17.348  0.00  0.00    +0.000 A 
BRANCH  22  25
ATOM     25  S   UNL     1       5.097   4.164  19.008  0.00  0.00    +0.000 S 
ATOM     26  O   UNL     1       6.429   4.563  19.387  0.00  0.00    +0.000 OA
ATOM     27  O   UNL     1       4.322   3.215  19.765  0.00  0.00    +0.000 OA
BRANCH  25  28
ATOM     28  N   UNL     1       5.235   3.520  17.460  0.00  0.00    +0.000 NA
ATOM     29  H   UNL     1       5.830   4.117  16.889  0.00  0.00    +0.000 HD
ATOM     30  H   UNL     1       5.545   2.550  17.513  0.00  0.00    +0.000 HD
ENDBRANCH  25  28
ENDBRANCH  22  25
ENDBRANCH   6  19
TORSDOF 4
ENDMDL
