MODEL 1
REMARK VINA RESULT:      -7.2      0.000      0.000
REMARK  Name = 
REMARK  4 active torsions:
REMARK  status: ('A' for Active; 'I' for Inactive)
REMARK    1  A    between atoms: S_2  and  C_4
REMARK    2  A    between atoms: S_2  and  N_11
REMARK    3  A    between atoms: C_4  and  C_5
REMARK    4  A    between atoms: N_11  and  C_12
REMARK                            x       y       z     vdW  Elec       q    Type
REMARK                         _______ _______ _______ _____ _____    ______ ____
ROOT
ATOM      1  O   UNL     1       6.985   5.336  19.901  0.00  0.00    +0.000 OA
ATOM      2  S   UNL     1       6.104   5.160  18.768  0.00  0.00    +0.000 S 
ATOM      3  O   UNL     1       5.317   6.247  18.246  0.00  0.00    +0.000 OA
ENDROOT
BRANCH   2   4
ATOM      4  N   UNL     1       5.112   3.827  19.059  0.00  0.00    +0.000 NA
ATOM      5  H   UNL     1       5.541   3.047  19.549  0.00  0.00    +0.000 HD
BRANCH   4   6
ATOM      6  C   UNL     1       3.555   3.751  19.009  0.00  0.00    +0.000 C 
ATOM      7  C   UNL     1       3.508   4.673  20.306  0.00  0.00    +0.000 C 
ATOM      8  C   UNL     1       2.109   5.128  20.636  0.00  0.00    +0.000 C 
ATOM      9  C   UNL     1       1.308   3.927  20.261  0.00  0.00    +0.000 C 
ATOM     10  C   UNL     1       2.349   2.936  19.736  0.00  0.00    +0.000 C 
ATOM     11  O   UNL     1       1.588   2.134  18.809  0.00  0.00    +0.000 OA
ATOM     12  C   UNL     1       2.393   1.987  17.669  0.00  0.00    +0.000 C 
ATOM     13  C   UNL     1       3.731   2.415  18.176  0.00  0.00    +0.000 C 
ENDBRANCH   4   6
ENDBRANCH   2   4
BRANCH   2  14
ATOM     14  C   UNL     1       7.085   4.529  17.402  0.00  0.00    +0.000 C 
BRANCH  14  15
ATOM     15  C   UNL     1       6.283   4.633  16.120  0.00  0.00    +0.000 C 
ATOM     16  C   UNL     1       7.078   4.954  14.831  0.00  0.00    +0.000 C 
ATOM     17  C   UNL     1       6.065   4.057  14.075  0.00  0.00    +0.000 C 
ATOM     18  F   UNL     1       6.575   3.322  13.063  0.00  0.00    +0.000 F 
ATOM     19  F   UNL     1       4.977   4.699  13.592  0.00  0.00    +0.000 F 
ATOM     20  C   UNL     1       5.857   3.317  15.418  0.00  0.00    +0.000 C 
ENDBRANCH  14  15
ENDBRANCH   2  14
TORSDOF 4
ENDMDL
MODEL 2
REMARK VINA RESULT:      -6.8      3.219      5.775
REMARK  Name = 
REMARK  4 active torsions:
REMARK  status: ('A' for Active; 'I' for Inactive)
REMARK    1  A    between atoms: S_2  and  C_4
REMARK    2  A    between atoms: S_2  and  N_11
REMARK    3  A    between atoms: C_4  and  C_5
REMARK    4  A    between atoms: N_11  and  C_12
REMARK                            x       y       z     vdW  Elec       q    Type
REMARK                         _______ _______ _______ _____ _____    ______ ____
ROOT
ATOM      1  O   UNL     1       3.017   2.868  19.879  0.00  0.00    +0.000 OA
ATOM      2  S   UNL     1       3.233   3.821  18.813  0.00  0.00    +0.000 S 
ATOM      3  O   UNL     1       2.319   3.938  17.706  0.00  0.00    +0.000 OA
ENDROOT
BRANCH   2   4
ATOM      4  N   UNL     1       4.807   3.634  18.234  0.00  0.00    +0.000 NA
ATOM      5  H   UNL     1       5.200   2.700  18.299  0.00  0.00    +0.000 HD
BRANCH   4   6
ATOM      6  C   UNL     1       5.612   4.585  17.296  0.00  0.00    +0.000 C 
ATOM      7  C   UNL     1       5.187   3.667  16.067  0.00  0.00    +0.000 C 
ATOM      8  C   UNL     1       5.566   4.275  14.740  0.00  0.00    +0.000 C 
ATOM      9  C   UNL     1       6.866   4.926  15.069  0.00  0.00    +0.000 C 
ATOM     10  C   UNL     1       7.061   4.632  16.559  0.00  0.00    +0.000 C 
ATOM     11  O   UNL     1       7.869   5.742  17.001  0.00  0.00    +0.000 OA
ATOM     12  C   UNL     1       7.317   6.165  18.219  0.00  0.00    +0.000 C 
ATOM     13  C   UNL     1       6.437   5.013  18.579  0.00  0.00    +0.000 C 
ENDBRANCH   4   6
ENDBRANCH   2   4
BRANCH   2  14
ATOM     14  C   UNL     1       3.362   5.453  19.552  0.00  0.00    +0.000 C 
BRANCH  14  15
ATOM     15  C   UNL     1       2.530   6.433  18.748  0.00  0.00    +0.000 C 
ATOM     16  C   UNL     1       2.069   7.714  19.484  0.00  0.00    +0.000 C 
ATOM     17  C   UNL     1       2.218   8.454  18.130  0.00  0.00    +0.000 C 
ATOM     18  F   UNL     1       2.669   9.724  18.202  0.00  0.00    +0.000 F 
ATOM     19  F   UNL     1       1.107   8.469  17.358  0.00  0.00    +0.000 F 
ATOM     20  C   UNL     1       3.266   7.377  17.761  0.00  0.00    +0.000 C 
ENDBRANCH  14  15
ENDBRANCH   2  14
TORSDOF 4
ENDMDL
MODEL 3
REMARK VINA RESULT:      -6.7      1.159      2.079
REMARK  Name = 
REMARK  4 active torsions:
REMARK  status: ('A' for Active; 'I' for Inactive)
REMARK    1  A    between atoms: S_2  and  C_4
REMARK    2  A    between atoms: S_2  and  N_11
REMARK    3  A    between atoms: C_4  and  C_5
REMARK    4  A    between atoms: N_11  and  C_12
REMARK                            x       y       z     vdW  Elec       q    Type
REMARK                         _______ _______ _______ _____ _____    ______ ____
ROOT
ATOM      1  O   UNL     1       6.089   5.576  19.291  0.00  0.00    +0.000 OA
ATOM      2  S   UNL     1       5.645   5.817  17.936  0.00  0.00    +0.000 S 
ATOM      3  O   UNL     1       5.602   7.146  17.379  0.00  0.00    +0.000 OA
ENDROOT
BRANCH   2   4
ATOM      4  N   UNL     1       4.155   5.058  17.713  0.00  0.00    +0.000 NA
ATOM      5  H   UNL     1       3.859   4.925  16.750  0.00  0.00    +0.000 HD
BRANCH   4   6
ATOM      6  C   UNL     1       3.335   4.216  18.739  0.00  0.00    +0.000 C 
ATOM      7  C   UNL     1       3.541   2.946  17.801  0.00  0.00    +0.000 C 
ATOM      8  C   UNL     1       3.070   1.670  18.452  0.00  0.00    +0.000 C 
ATOM      9  C   UNL     1       1.875   2.144  19.208  0.00  0.00    +0.000 C 
ATOM     10  C   UNL     1       1.823   3.645  18.917  0.00  0.00    +0.000 C 
ATOM     11  O   UNL     1       1.168   4.175  20.088  0.00  0.00    +0.000 OA
ATOM     12  C   UNL     1       1.886   5.325  20.449  0.00  0.00    +0.000 C 
ATOM     13  C   UNL     1       2.698   5.583  19.223  0.00  0.00    +0.000 C 
ENDBRANCH   4   6
ENDBRANCH   2   4
BRANCH   2  14
ATOM     14  C   UNL     1       6.668   4.830  16.839  0.00  0.00    +0.000 C 
BRANCH  14  15
ATOM     15  C   UNL     1       5.944   4.633  15.521  0.00  0.00    +0.000 C 
ATOM     16  C   UNL     1       6.727   5.004  14.239  0.00  0.00    +0.000 C 
ATOM     17  C   UNL     1       5.985   3.837  13.540  0.00  0.00    +0.000 C 
ATOM     18  F   UNL     1       6.705   3.146  12.631  0.00  0.00    +0.000 F 
ATOM     19  F   UNL     1       4.814   4.170  12.950  0.00  0.00    +0.000 F 
ATOM     20  C   UNL     1       5.862   3.195  14.943  0.00  0.00    +0.000 C 
ENDBRANCH  14  15
ENDBRANCH   2  14
TORSDOF 4
ENDMDL
MODEL 4
REMARK VINA RESULT:      -6.6      3.688      6.498
REMARK  Name = 
REMARK  4 active torsions:
REMARK  status: ('A' for Active; 'I' for Inactive)
REMARK    1  A    between atoms: S_2  and  C_4
REMARK    2  A    between atoms: S_2  and  N_11
REMARK    3  A    between atoms: C_4  and  C_5
REMARK    4  A    between atoms: N_11  and  C_12
REMARK                            x       y       z     vdW  Elec       q    Type
REMARK                         _______ _______ _______ _____ _____    ______ ____
ROOT
ATOM      1  O   UNL     1       2.589   6.964  17.374  0.00  0.00    +0.000 OA
ATOM      2  S   UNL     1       3.012   6.144  18.486  0.00  0.00    +0.000 S 
ATOM      3  O   UNL     1       3.111   6.673  19.823  0.00  0.00    +0.000 OA
ENDROOT
BRANCH   2   4
ATOM      4  N   UNL     1       4.455   5.374  18.070  0.00  0.00    +0.000 NA
ATOM      5  H   UNL     1       4.598   4.448  18.463  0.00  0.00    +0.000 HD
BRANCH   4   6
ATOM      6  C   UNL     1       5.430   5.713  16.901  0.00  0.00    +0.000 C 
ATOM      7  C   UNL     1       4.934   4.395  16.159  0.00  0.00    +0.000 C 
ATOM      8  C   UNL     1       5.457   4.302  14.747  0.00  0.00    +0.000 C 
ATOM      9  C   UNL     1       6.821   4.886  14.894  0.00  0.00    +0.000 C 
ATOM     10  C   UNL     1       6.903   5.268  16.374  0.00  0.00    +0.000 C 
ATOM     11  O   UNL     1       7.841   6.365  16.369  0.00  0.00    +0.000 OA
ATOM     12  C   UNL     1       7.300   7.344  17.216  0.00  0.00    +0.000 C 
ATOM     13  C   UNL     1       6.249   6.576  17.948  0.00  0.00    +0.000 C 
ENDBRANCH   4   6
ENDBRANCH   2   4
BRANCH   2  14
ATOM     14  C   UNL     1       1.913   4.726  18.573  0.00  0.00    +0.000 C 
BRANCH  14  15
ATOM     15  C   UNL     1       2.355   3.818  19.704  0.00  0.00    +0.000 C 
ATOM     16  C   UNL     1       1.916   4.228  21.131  0.00  0.00    +0.000 C 
ATOM     17  C   UNL     1       1.812   2.715  21.450  0.00  0.00    +0.000 C 
ATOM     18  F   UNL     1       0.804   2.359  22.275  0.00  0.00    +0.000 F 
ATOM     19  F   UNL     1       2.941   2.150  21.934  0.00  0.00    +0.000 F 
ATOM     20  C   UNL     1       1.561   2.506  19.938  0.00  0.00    +0.000 C 
ENDBRANCH  14  15
ENDBRANCH   2  14
TORSDOF 4
ENDMDL
MODEL 5
REMARK VINA RESULT:      -6.6      3.854      6.390
REMARK  Name = 
REMARK  4 active torsions:
REMARK  status: ('A' for Active; 'I' for Inactive)
REMARK    1  A    between atoms: S_2  and  C_4
REMARK    2  A    between atoms: S_2  and  N_11
REMARK    3  A    between atoms: C_4  and  C_5
REMARK    4  A    between atoms: N_11  and  C_12
REMARK                            x       y       z     vdW  Elec       q    Type
REMARK                         _______ _______ _______ _____ _____    ______ ____
ROOT
ATOM      1  O   UNL     1       3.866   2.606  17.801  0.00  0.00    +0.000 OA
ATOM      2  S   UNL     1       3.055   3.739  17.414  0.00  0.00    +0.000 S 
ATOM      3  O   UNL     1       1.931   3.596  16.523  0.00  0.00    +0.000 OA
ENDROOT
BRANCH   2   4
ATOM      4  N   UNL     1       4.071   4.964  16.855  0.00  0.00    +0.000 NA
ATOM      5  H   UNL     1       3.633   5.862  16.672  0.00  0.00    +0.000 HD
BRANCH   4   6
ATOM      6  C   UNL     1       5.628   5.032  16.915  0.00  0.00    +0.000 C 
ATOM      7  C   UNL     1       5.507   5.566  18.410  0.00  0.00    +0.000 C 
ATOM      8  C   UNL     1       6.844   5.634  19.104  0.00  0.00    +0.000 C 
ATOM      9  C   UNL     1       7.740   6.050  17.987  0.00  0.00    +0.000 C 
ATOM     10  C   UNL     1       6.807   6.144  16.778  0.00  0.00    +0.000 C 
ATOM     11  O   UNL     1       7.691   5.877  15.670  0.00  0.00    +0.000 OA
ATOM     12  C   UNL     1       7.001   4.995  14.825  0.00  0.00    +0.000 C 
ATOM     13  C   UNL     1       5.602   5.108  15.333  0.00  0.00    +0.000 C 
ENDBRANCH   4   6
ENDBRANCH   2   4
BRANCH   2  14
ATOM     14  C   UNL     1       2.432   4.507  18.913  0.00  0.00    +0.000 C 
BRANCH  14  15
ATOM     15  C   UNL     1       2.619   3.554  20.078  0.00  0.00    +0.000 C 
ATOM     16  C   UNL     1       2.112   4.041  21.457  0.00  0.00    +0.000 C 
ATOM     17  C   UNL     1       1.747   2.566  21.759  0.00  0.00    +0.000 C 
ATOM     18  F   UNL     1       0.623   2.376  22.481  0.00  0.00    +0.000 F 
ATOM     19  F   UNL     1       2.725   1.840  22.347  0.00  0.00    +0.000 F 
ATOM     20  C   UNL     1       1.614   2.381  20.228  0.00  0.00    +0.000 C 
ENDBRANCH  14  15
ENDBRANCH   2  14
TORSDOF 4
ENDMDL
MODEL 6
REMARK VINA RESULT:      -6.6      1.379      2.010
REMARK  Name = 
REMARK  4 active torsions:
REMARK  status: ('A' for Active; 'I' for Inactive)
REMARK    1  A    between atoms: S_2  and  C_4
REMARK    2  A    between atoms: S_2  and  N_11
REMARK    3  A    between atoms: C_4  and  C_5
REMARK    4  A    between atoms: N_11  and  C_12
REMARK                            x       y       z     vdW  Elec       q    Type
REMARK                         _______ _______ _______ _____ _____    ______ ____
ROOT
ATOM      1  O   UNL     1       7.212   5.157  19.573  0.00  0.00    +0.000 OA
ATOM      2  S   UNL     1       6.594   5.568  18.333  0.00  0.00    +0.000 S 
ATOM      3  O   UNL     1       6.583   6.947  17.914  0.00  0.00    +0.000 OA
ENDROOT
BRANCH   2   4
ATOM      4  N   UNL     1       5.028   4.944  18.278  0.00  0.00    +0.000 NA
ATOM      5  H   UNL     1       4.794   4.390  17.458  0.00  0.00    +0.000 HD
BRANCH   4   6
ATOM      6  C   UNL     1       4.007   4.787  19.447  0.00  0.00    +0.000 C 
ATOM      7  C   UNL     1       4.329   3.229  19.467  0.00  0.00    +0.000 C 
ATOM      8  C   UNL     1       3.702   2.529  20.647  0.00  0.00    +0.000 C 
ATOM      9  C   UNL     1       2.410   3.262  20.776  0.00  0.00    +0.000 C 
ATOM     10  C   UNL     1       2.467   4.313  19.666  0.00  0.00    +0.000 C 
ATOM     11  O   UNL     1       1.633   5.371  20.184  0.00  0.00    +0.000 OA
ATOM     12  C   UNL     1       2.318   6.568  19.928  0.00  0.00    +0.000 C 
ATOM     13  C   UNL     1       3.345   6.133  18.935  0.00  0.00    +0.000 C 
ENDBRANCH   4   6
ENDBRANCH   2   4
BRANCH   2  14
ATOM     14  C   UNL     1       7.353   4.630  17.002  0.00  0.00    +0.000 C 
BRANCH  14  15
ATOM     15  C   UNL     1       6.441   4.651  15.791  0.00  0.00    +0.000 C 
ATOM     16  C   UNL     1       7.121   4.857  14.417  0.00  0.00    +0.000 C 
ATOM     17  C   UNL     1       6.035   3.924  13.825  0.00  0.00    +0.000 C 
ATOM     18  F   UNL     1       6.444   3.105  12.833  0.00  0.00    +0.000 F 
ATOM     19  F   UNL     1       4.915   4.547  13.391  0.00  0.00    +0.000 F 
ATOM     20  C   UNL     1       5.938   3.293  15.234  0.00  0.00    +0.000 C 
ENDBRANCH  14  15
ENDBRANCH   2  14
TORSDOF 4
ENDMDL
MODEL 7
REMARK VINA RESULT:      -6.5      3.457      6.514
REMARK  Name = 
REMARK  4 active torsions:
REMARK  status: ('A' for Active; 'I' for Inactive)
REMARK    1  A    between atoms: S_2  and  C_4
REMARK    2  A    between atoms: S_2  and  N_11
REMARK    3  A    between atoms: C_4  and  C_5
REMARK    4  A    between atoms: N_11  and  C_12
REMARK                            x       y       z     vdW  Elec       q    Type
REMARK                         _______ _______ _______ _____ _____    ______ ____
ROOT
ATOM      1  O   UNL     1       3.473   2.040  17.501  0.00  0.00    +0.000 OA
ATOM      2  S   UNL     1       4.018   3.208  18.155  0.00  0.00    +0.000 S 
ATOM      3  O   UNL     1       3.281   4.443  18.236  0.00  0.00    +0.000 OA
ENDROOT
BRANCH   2   4
ATOM      4  N   UNL     1       5.559   3.504  17.533  0.00  0.00    +0.000 NA
ATOM      5  H   UNL     1       6.241   2.761  17.654  0.00  0.00    +0.000 HD
BRANCH   4   6
ATOM      6  C   UNL     1       5.992   4.585  16.495  0.00  0.00    +0.000 C 
ATOM      7  C   UNL     1       5.810   3.498  15.346  0.00  0.00    +0.000 C 
ATOM      8  C   UNL     1       5.925   4.097  13.967  0.00  0.00    +0.000 C 
ATOM      9  C   UNL     1       6.979   5.131  14.177  0.00  0.00    +0.000 C 
ATOM     10  C   UNL     1       7.322   5.014  15.664  0.00  0.00    +0.000 C 
ATOM     11  O   UNL     1       7.772   6.345  15.993  0.00  0.00    +0.000 OA
ATOM     12  C   UNL     1       7.174   6.666  17.221  0.00  0.00    +0.000 C 
ATOM     13  C   UNL     1       6.705   5.331  17.697  0.00  0.00    +0.000 C 
ENDBRANCH   4   6
ENDBRANCH   2   4
BRANCH   2  14
ATOM     14  C   UNL     1       4.443   2.747  19.838  0.00  0.00    +0.000 C 
BRANCH  14  15
ATOM     15  C   UNL     1       3.175   2.643  20.663  0.00  0.00    +0.000 C 
ATOM     16  C   UNL     1       2.515   3.977  21.088  0.00  0.00    +0.000 C 
ATOM     17  C   UNL     1       1.149   3.258  20.945  0.00  0.00    +0.000 C 
ATOM     18  F   UNL     1       0.137   4.013  20.469  0.00  0.00    +0.000 F 
ATOM     19  F   UNL     1       0.699   2.650  22.067  0.00  0.00    +0.000 F 
ATOM     20  C   UNL     1       1.847   2.330  19.923  0.00  0.00    +0.000 C 
ENDBRANCH  14  15
ENDBRANCH   2  14
TORSDOF 4
ENDMDL
MODEL 8
REMARK VINA RESULT:      -6.5      4.072      6.350
REMARK  Name = 
REMARK  4 active torsions:
REMARK  status: ('A' for Active; 'I' for Inactive)
REMARK    1  A    between atoms: S_2  and  C_4
REMARK    2  A    between atoms: S_2  and  N_11
REMARK    3  A    between atoms: C_4  and  C_5
REMARK    4  A    between atoms: N_11  and  C_12
REMARK                            x       y       z     vdW  Elec       q    Type
REMARK                         _______ _______ _______ _____ _____    ______ ____
ROOT
ATOM      1  O   UNL     1       2.703   5.325  20.266  0.00  0.00    +0.000 OA
ATOM      2  S   UNL     1       2.795   5.307  18.824  0.00  0.00    +0.000 S 
ATOM      3  O   UNL     1       1.695   4.874  18.001  0.00  0.00    +0.000 OA
ENDROOT
BRANCH   2   4
ATOM      4  N   UNL     1       4.197   4.477  18.383  0.00  0.00    +0.000 NA
ATOM      5  H   UNL     1       4.153   3.464  18.436  0.00  0.00    +0.000 HD
BRANCH   4   6
ATOM      6  C   UNL     1       5.420   5.007  17.573  0.00  0.00    +0.000 C 
ATOM      7  C   UNL     1       4.832   4.279  16.285  0.00  0.00    +0.000 C 
ATOM      8  C   UNL     1       5.583   4.642  15.029  0.00  0.00    +0.000 C 
ATOM      9  C   UNL     1       6.981   4.751  15.537  0.00  0.00    +0.000 C 
ATOM     10  C   UNL     1       6.855   4.461  17.035  0.00  0.00    +0.000 C 
ATOM     11  O   UNL     1       7.967   5.189  17.596  0.00  0.00    +0.000 OA
ATOM     12  C   UNL     1       7.472   5.838  18.737  0.00  0.00    +0.000 C 
ATOM     13  C   UNL     1       6.176   5.131  18.960  0.00  0.00    +0.000 C 
ENDBRANCH   4   6
ENDBRANCH   2   4
BRANCH   2  14
ATOM     14  C   UNL     1       3.226   6.963  18.280  0.00  0.00    +0.000 C 
BRANCH  14  15
ATOM     15  C   UNL     1       1.987   7.837  18.305  0.00  0.00    +0.000 C 
ATOM     16  C   UNL     1       1.581   8.421  19.679  0.00  0.00    +0.000 C 
ATOM     17  C   UNL     1       1.086   9.675  18.914  0.00  0.00    +0.000 C 
ATOM     18  F   UNL     1       1.276  10.856  19.540  0.00  0.00    +0.000 F 
ATOM     19  F   UNL     1      -0.207   9.636  18.521  0.00  0.00    +0.000 F 
ATOM     20  C   UNL     1       2.121   9.306  17.825  0.00  0.00    +0.000 C 
ENDBRANCH  14  15
ENDBRANCH   2  14
TORSDOF 4
ENDMDL
MODEL 9
REMARK VINA RESULT:      -6.5      1.406      1.821
REMARK  Name = 
REMARK  4 active torsions:
REMARK  status: ('A' for Active; 'I' for Inactive)
REMARK    1  A    between atoms: S_2  and  C_4
REMARK    2  A    between atoms: S_2  and  N_11
REMARK    3  A    between atoms: C_4  and  C_5
REMARK    4  A    between atoms: N_11  and  C_12
REMARK                            x       y       z     vdW  Elec       q    Type
REMARK                         _______ _______ _______ _____ _____    ______ ____
ROOT
ATOM      1  O   UNL     1       7.204   4.632  18.980  0.00  0.00    +0.000 OA
ATOM      2  S   UNL     1       5.837   5.032  18.733  0.00  0.00    +0.000 S 
ATOM      3  O   UNL     1       5.092   5.813  19.687  0.00  0.00    +0.000 OA
ENDROOT
BRANCH   2   4
ATOM      4  N   UNL     1       4.947   3.666  18.297  0.00  0.00    +0.000 NA
ATOM      5  H   UNL     1       5.443   2.960  17.762  0.00  0.00    +0.000 HD
BRANCH   4   6
ATOM      6  C   UNL     1       3.594   3.163  18.891  0.00  0.00    +0.000 C 
ATOM      7  C   UNL     1       2.837   4.144  17.892  0.00  0.00    +0.000 C 
ATOM      8  C   UNL     1       1.345   3.922  17.892  0.00  0.00    +0.000 C 
ATOM      9  C   UNL     1       1.091   3.599  19.325  0.00  0.00    +0.000 C 
ATOM     10  C   UNL     1       2.479   3.651  19.969  0.00  0.00    +0.000 C 
ATOM     11  O   UNL     1       2.350   2.738  21.079  0.00  0.00    +0.000 OA
ATOM     12  C   UNL     1       3.518   1.961  21.083  0.00  0.00    +0.000 C 
ATOM     13  C   UNL     1       4.415   2.742  20.179  0.00  0.00    +0.000 C 
ENDBRANCH   4   6
ENDBRANCH   2   4
BRANCH   2  14
ATOM     14  C   UNL     1       5.801   5.938  17.183  0.00  0.00    +0.000 C 
BRANCH  14  15
ATOM     15  C   UNL     1       5.847   4.957  16.028  0.00  0.00    +0.000 C 
ATOM     16  C   UNL     1       5.548   5.529  14.622  0.00  0.00    +0.000 C 
ATOM     17  C   UNL     1       6.573   4.506  14.070  0.00  0.00    +0.000 C 
ATOM     18  F   UNL     1       7.328   4.932  13.036  0.00  0.00    +0.000 F 
ATOM     19  F   UNL     1       6.055   3.306  13.719  0.00  0.00    +0.000 F 
ATOM     20  C   UNL     1       7.237   4.556  15.467  0.00  0.00    +0.000 C 
ENDBRANCH  14  15
ENDBRANCH   2  14
TORSDOF 4
ENDMDL
