MODEL 1
REMARK VINA RESULT:      -7.8      0.000      0.000
REMARK  Name = 
REMARK  2 active torsions:
REMARK  status: ('A' for Active; 'I' for Inactive)
REMARK    1  A    between atoms: C_7  and  C_8
REMARK    2  A    between atoms: N_12  and  C_13
REMARK                            x       y       z     vdW  Elec       q    Type
REMARK                         _______ _______ _______ _____ _____    ______ ____
ROOT
ATOM      1  N   UNL     1       8.201   5.424  13.353  0.00  0.00    +0.000 N 
ATOM      2  C   UNL     1       7.270   5.311  14.343  0.00  0.00    +0.000 C 
ATOM      3  O   UNL     1       6.106   5.622  14.129  0.00  0.00    +0.000 OA
ATOM      4  N   UNL     1       7.813   4.880  15.513  0.00  0.00    +0.000 N 
ATOM      5  C   UNL     1       7.073   4.762  16.691  0.00  0.00    +0.000 A 
ATOM      6  C   UNL     1       5.794   4.217  16.718  0.00  0.00    +0.000 A 
ATOM      7  C   UNL     1       5.112   4.135  17.937  0.00  0.00    +0.000 A 
ATOM      8  C   UNL     1       5.762   4.605  19.080  0.00  0.00    +0.000 A 
ATOM      9  C   UNL     1       7.030   5.147  18.954  0.00  0.00    +0.000 A 
ATOM     10  N   UNL     1       7.712   5.200  17.794  0.00  0.00    +0.000 NA
ATOM     11  H   UNL     1       7.807   5.701  12.462  0.00  0.00    +0.000 HD
ATOM     12  H   UNL     1       8.895   4.688  13.297  0.00  0.00    +0.000 HD
ATOM     13  H   UNL     1       8.758   5.187  15.684  0.00  0.00    +0.000 HD
ENDROOT
BRANCH   7  14
ATOM     14  C   UNL     1       3.768   3.533  17.993  0.00  0.00    +0.000 A 
ATOM     15  C   UNL     1       3.409   2.245  17.615  0.00  0.00    +0.000 A 
ATOM     16  C   UNL     1       2.069   2.099  17.984  0.00  0.00    +0.000 A 
ATOM     17  N   UNL     1       1.580   3.197  18.546  0.00  0.00    +0.000 NA
ATOM     18  N   UNL     1       2.597   4.099  18.517  0.00  0.00    +0.000 N 
BRANCH  18  19
ATOM     19  C   UNL     1       2.340   5.449  18.895  0.00  0.00    +0.000 A 
ATOM     20  C   UNL     1       2.375   6.451  17.907  0.00  0.00    +0.000 A 
ATOM     21  C   UNL     1       2.160   7.789  18.239  0.00  0.00    +0.000 A 
ATOM     22  C   UNL     1       1.872   8.142  19.552  0.00  0.00    +0.000 A 
ATOM     23  C   UNL     1       1.807   7.155  20.536  0.00  0.00    +0.000 A 
ATOM     24  C   UNL     1       2.043   5.810  20.221  0.00  0.00    +0.000 A 
ATOM     25 CL   UNL     1       2.096   4.727  21.571  0.00  0.00    +0.000 Cl
ENDBRANCH  18  19
ENDBRANCH   7  14
TORSDOF 2
ENDMDL
MODEL 2
REMARK VINA RESULT:      -7.8      3.698      6.546
REMARK  Name = 
REMARK  2 active torsions:
REMARK  status: ('A' for Active; 'I' for Inactive)
REMARK    1  A    between atoms: C_7  and  C_8
REMARK    2  A    between atoms: N_12  and  C_13
REMARK                            x       y       z     vdW  Elec       q    Type
REMARK                         _______ _______ _______ _____ _____    ______ ____
ROOT
ATOM      1  N   UNL     1      -0.090  10.723  22.330  0.00  0.00    +0.000 N 
ATOM      2  C   UNL     1       0.742   9.752  21.857  0.00  0.00    +0.000 C 
ATOM      3  O   UNL     1       1.540   9.208  22.609  0.00  0.00    +0.000 OA
ATOM      4  N   UNL     1       0.582   9.541  20.524  0.00  0.00    +0.000 N 
ATOM      5  C   UNL     1       1.376   8.650  19.798  0.00  0.00    +0.000 A 
ATOM      6  C   UNL     1       1.712   7.388  20.277  0.00  0.00    +0.000 A 
ATOM      7  C   UNL     1       2.514   6.552  19.494  0.00  0.00    +0.000 A 
ATOM      8  C   UNL     1       2.938   7.032  18.253  0.00  0.00    +0.000 A 
ATOM      9  C   UNL     1       2.568   8.308  17.865  0.00  0.00    +0.000 A 
ATOM     10  N   UNL     1       1.766   9.110  18.592  0.00  0.00    +0.000 NA
ATOM     11  H   UNL     1      -0.015  10.862  23.330  0.00  0.00    +0.000 HD
ATOM     12  H   UNL     1      -1.037  10.722  21.973  0.00  0.00    +0.000 HD
ATOM     13  H   UNL     1       0.339  10.360  19.987  0.00  0.00    +0.000 HD
ENDROOT
BRANCH   7  14
ATOM     14  C   UNL     1       2.857   5.200  19.969  0.00  0.00    +0.000 A 
ATOM     15  C   UNL     1       2.135   4.415  20.859  0.00  0.00    +0.000 A 
ATOM     16  C   UNL     1       2.780   3.176  20.887  0.00  0.00    +0.000 A 
ATOM     17  N   UNL     1       3.843   3.146  20.093  0.00  0.00    +0.000 NA
ATOM     18  N   UNL     1       3.929   4.394  19.560  0.00  0.00    +0.000 N 
BRANCH  18  19
ATOM     19  C   UNL     1       5.076   4.743  18.788  0.00  0.00    +0.000 A 
ATOM     20  C   UNL     1       6.150   5.394  19.423  0.00  0.00    +0.000 A 
ATOM     21  C   UNL     1       7.279   5.781  18.699  0.00  0.00    +0.000 A 
ATOM     22  C   UNL     1       7.366   5.494  17.342  0.00  0.00    +0.000 A 
ATOM     23  C   UNL     1       6.319   4.824  16.707  0.00  0.00    +0.000 A 
ATOM     24  C   UNL     1       5.171   4.449  17.416  0.00  0.00    +0.000 A 
ATOM     25 CL   UNL     1       3.890   3.782  16.462  0.00  0.00    +0.000 Cl
ENDBRANCH  18  19
ENDBRANCH   7  14
TORSDOF 2
ENDMDL
MODEL 3
REMARK VINA RESULT:      -7.7      2.000      3.328
REMARK  Name = 
REMARK  2 active torsions:
REMARK  status: ('A' for Active; 'I' for Inactive)
REMARK    1  A    between atoms: C_7  and  C_8
REMARK    2  A    between atoms: N_12  and  C_13
REMARK                            x       y       z     vdW  Elec       q    Type
REMARK                         _______ _______ _______ _____ _____    ______ ____
ROOT
ATOM      1  N   UNL     1       6.390   3.037  12.916  0.00  0.00    +0.000 N 
ATOM      2  C   UNL     1       6.062   3.935  13.888  0.00  0.00    +0.000 C 
ATOM      3  O   UNL     1       5.548   5.005  13.587  0.00  0.00    +0.000 OA
ATOM      4  N   UNL     1       6.411   3.503  15.129  0.00  0.00    +0.000 N 
ATOM      5  C   UNL     1       6.248   4.282  16.276  0.00  0.00    +0.000 A 
ATOM      6  C   UNL     1       5.098   5.026  16.516  0.00  0.00    +0.000 A 
ATOM      7  C   UNL     1       5.009   5.787  17.686  0.00  0.00    +0.000 A 
ATOM      8  C   UNL     1       6.091   5.755  18.568  0.00  0.00    +0.000 A 
ATOM      9  C   UNL     1       7.202   4.997  18.238  0.00  0.00    +0.000 A 
ATOM     10  N   UNL     1       7.288   4.233  17.133  0.00  0.00    +0.000 NA
ATOM     11  H   UNL     1       6.096   3.324  11.991  0.00  0.00    +0.000 HD
ATOM     12  H   UNL     1       6.226   2.060  13.128  0.00  0.00    +0.000 HD
ATOM     13  H   UNL     1       7.248   2.940  15.165  0.00  0.00    +0.000 HD
ENDROOT
BRANCH   7  14
ATOM     14  C   UNL     1       3.786   6.559  17.974  0.00  0.00    +0.000 A 
ATOM     15  C   UNL     1       3.506   7.862  17.585  0.00  0.00    +0.000 A 
ATOM     16  C   UNL     1       2.183   8.099  17.968  0.00  0.00    +0.000 A 
ATOM     17  N   UNL     1       1.639   7.049  18.570  0.00  0.00    +0.000 NA
ATOM     18  N   UNL     1       2.625   6.114  18.621  0.00  0.00    +0.000 N 
BRANCH  18  19
ATOM     19  C   UNL     1       2.410   4.918  19.367  0.00  0.00    +0.000 A 
ATOM     20  C   UNL     1       2.412   4.985  20.774  0.00  0.00    +0.000 A 
ATOM     21  C   UNL     1       2.237   3.833  21.543  0.00  0.00    +0.000 A 
ATOM     22  C   UNL     1       2.023   2.609  20.923  0.00  0.00    +0.000 A 
ATOM     23  C   UNL     1       1.992   2.534  19.529  0.00  0.00    +0.000 A 
ATOM     24  C   UNL     1       2.188   3.677  18.744  0.00  0.00    +0.000 A 
ATOM     25 CL   UNL     1       2.292   3.401  17.038  0.00  0.00    +0.000 Cl
ENDBRANCH  18  19
ENDBRANCH   7  14
TORSDOF 2
ENDMDL
MODEL 4
REMARK VINA RESULT:      -7.7      1.687      3.211
REMARK  Name = 
REMARK  2 active torsions:
REMARK  status: ('A' for Active; 'I' for Inactive)
REMARK    1  A    between atoms: C_7  and  C_8
REMARK    2  A    between atoms: N_12  and  C_13
REMARK                            x       y       z     vdW  Elec       q    Type
REMARK                         _______ _______ _______ _____ _____    ______ ____
ROOT
ATOM      1  N   UNL     1       6.331   2.869  12.621  0.00  0.00    +0.000 N 
ATOM      2  C   UNL     1       6.013   3.802  13.564  0.00  0.00    +0.000 C 
ATOM      3  O   UNL     1       5.381   4.802  13.249  0.00  0.00    +0.000 OA
ATOM      4  N   UNL     1       6.511   3.487  14.789  0.00  0.00    +0.000 N 
ATOM      5  C   UNL     1       6.384   4.328  15.897  0.00  0.00    +0.000 A 
ATOM      6  C   UNL     1       5.198   4.988  16.201  0.00  0.00    +0.000 A 
ATOM      7  C   UNL     1       5.148   5.817  17.326  0.00  0.00    +0.000 A 
ATOM      8  C   UNL     1       6.304   5.937  18.100  0.00  0.00    +0.000 A 
ATOM      9  C   UNL     1       7.444   5.253  17.711  0.00  0.00    +0.000 A 
ATOM     10  N   UNL     1       7.497   4.424  16.651  0.00  0.00    +0.000 NA
ATOM     11  H   UNL     1       5.930   3.066  11.713  0.00  0.00    +0.000 HD
ATOM     12  H   UNL     1       6.275   1.900  12.907  0.00  0.00    +0.000 HD
ATOM     13  H   UNL     1       7.395   2.999  14.779  0.00  0.00    +0.000 HD
ENDROOT
BRANCH   7  14
ATOM     14  C   UNL     1       3.893   6.503  17.683  0.00  0.00    +0.000 A 
ATOM     15  C   UNL     1       3.629   7.865  17.604  0.00  0.00    +0.000 A 
ATOM     16  C   UNL     1       2.273   8.009  17.911  0.00  0.00    +0.000 A 
ATOM     17  N   UNL     1       1.693   6.846  18.181  0.00  0.00    +0.000 NA
ATOM     18  N   UNL     1       2.684   5.921  18.090  0.00  0.00    +0.000 N 
BRANCH  18  19
ATOM     19  C   UNL     1       2.422   4.579  18.494  0.00  0.00    +0.000 A 
ATOM     20  C   UNL     1       2.348   3.574  17.511  0.00  0.00    +0.000 A 
ATOM     21  C   UNL     1       2.062   2.253  17.861  0.00  0.00    +0.000 A 
ATOM     22  C   UNL     1       1.882   1.911  19.195  0.00  0.00    +0.000 A 
ATOM     23  C   UNL     1       1.979   2.893  20.182  0.00  0.00    +0.000 A 
ATOM     24  C   UNL     1       2.244   4.227  19.844  0.00  0.00    +0.000 A 
ATOM     25 CL   UNL     1       2.167   5.357  21.154  0.00  0.00    +0.000 Cl
ENDBRANCH  18  19
ENDBRANCH   7  14
TORSDOF 2
ENDMDL
MODEL 5
REMARK VINA RESULT:      -7.5      3.601      6.393
REMARK  Name = 
REMARK  2 active torsions:
REMARK  status: ('A' for Active; 'I' for Inactive)
REMARK    1  A    between atoms: C_7  and  C_8
REMARK    2  A    between atoms: N_12  and  C_13
REMARK                            x       y       z     vdW  Elec       q    Type
REMARK                         _______ _______ _______ _____ _____    ______ ____
ROOT
ATOM      1  N   UNL     1       0.039  10.661  22.095  0.00  0.00    +0.000 N 
ATOM      2  C   UNL     1       0.881   9.705  21.609  0.00  0.00    +0.000 C 
ATOM      3  O   UNL     1       1.676   9.151  22.356  0.00  0.00    +0.000 OA
ATOM      4  N   UNL     1       0.734   9.522  20.270  0.00  0.00    +0.000 N 
ATOM      5  C   UNL     1       1.539   8.651  19.532  0.00  0.00    +0.000 A 
ATOM      6  C   UNL     1       1.879   7.382  19.988  0.00  0.00    +0.000 A 
ATOM      7  C   UNL     1       2.694   6.568  19.194  0.00  0.00    +0.000 A 
ATOM      8  C   UNL     1       3.126   7.076  17.967  0.00  0.00    +0.000 A 
ATOM      9  C   UNL     1       2.750   8.358  17.604  0.00  0.00    +0.000 A 
ATOM     10  N   UNL     1       1.937   9.140  18.340  0.00  0.00    +0.000 NA
ATOM     11  H   UNL     1       0.104  10.780  23.099  0.00  0.00    +0.000 HD
ATOM     12  H   UNL     1      -0.905  10.661  21.730  0.00  0.00    +0.000 HD
ATOM     13  H   UNL     1       0.490  10.350  19.749  0.00  0.00    +0.000 HD
ENDROOT
BRANCH   7  14
ATOM     14  C   UNL     1       3.042   5.208  19.644  0.00  0.00    +0.000 A 
ATOM     15  C   UNL     1       2.540   4.537  20.752  0.00  0.00    +0.000 A 
ATOM     16  C   UNL     1       3.057   3.241  20.680  0.00  0.00    +0.000 A 
ATOM     17  N   UNL     1       3.843   3.072  19.623  0.00  0.00    +0.000 NA
ATOM     18  N   UNL     1       3.879   4.282  19.005  0.00  0.00    +0.000 N 
BRANCH  18  19
ATOM     19  C   UNL     1       4.783   4.483  17.921  0.00  0.00    +0.000 A 
ATOM     20  C   UNL     1       4.394   4.084  16.628  0.00  0.00    +0.000 A 
ATOM     21  C   UNL     1       5.260   4.233  15.544  0.00  0.00    +0.000 A 
ATOM     22  C   UNL     1       6.509   4.814  15.728  0.00  0.00    +0.000 A 
ATOM     23  C   UNL     1       6.896   5.238  17.000  0.00  0.00    +0.000 A 
ATOM     24  C   UNL     1       6.046   5.074  18.101  0.00  0.00    +0.000 A 
ATOM     25 CL   UNL     1       6.727   5.491  19.638  0.00  0.00    +0.000 Cl
ENDBRANCH  18  19
ENDBRANCH   7  14
TORSDOF 2
ENDMDL
MODEL 6
REMARK VINA RESULT:      -7.4      4.045      6.811
REMARK  Name = 
REMARK  2 active torsions:
REMARK  status: ('A' for Active; 'I' for Inactive)
REMARK    1  A    between atoms: C_7  and  C_8
REMARK    2  A    between atoms: N_12  and  C_13
REMARK                            x       y       z     vdW  Elec       q    Type
REMARK                         _______ _______ _______ _____ _____    ______ ____
ROOT
ATOM      1  N   UNL     1      -1.919  12.001  17.766  0.00  0.00    +0.000 N 
ATOM      2  C   UNL     1      -1.180  10.879  17.995  0.00  0.00    +0.000 C 
ATOM      3  O   UNL     1      -1.204   9.953  17.194  0.00  0.00    +0.000 OA
ATOM      4  N   UNL     1      -0.510  10.936  19.177  0.00  0.00    +0.000 N 
ATOM      5  C   UNL     1       0.253   9.873  19.667  0.00  0.00    +0.000 A 
ATOM      6  C   UNL     1       1.105   9.131  18.858  0.00  0.00    +0.000 A 
ATOM      7  C   UNL     1       1.834   8.077  19.420  0.00  0.00    +0.000 A 
ATOM      8  C   UNL     1       1.669   7.826  20.784  0.00  0.00    +0.000 A 
ATOM      9  C   UNL     1       0.785   8.608  21.507  0.00  0.00    +0.000 A 
ATOM     10  N   UNL     1       0.104   9.647  20.988  0.00  0.00    +0.000 NA
ATOM     11  H   UNL     1      -2.390  11.994  16.869  0.00  0.00    +0.000 HD
ATOM     12  H   UNL     1      -1.489  12.885  18.011  0.00  0.00    +0.000 HD
ATOM     13  H   UNL     1      -0.982  11.439  19.913  0.00  0.00    +0.000 HD
ENDROOT
BRANCH   7  14
ATOM     14  C   UNL     1       2.766   7.296  18.587  0.00  0.00    +0.000 A 
ATOM     15  C   UNL     1       3.586   7.774  17.573  0.00  0.00    +0.000 A 
ATOM     16  C   UNL     1       4.380   6.692  17.182  0.00  0.00    +0.000 A 
ATOM     17  N   UNL     1       4.101   5.591  17.869  0.00  0.00    +0.000 NA
ATOM     18  N   UNL     1       3.083   5.936  18.701  0.00  0.00    +0.000 N 
BRANCH  18  19
ATOM     19  C   UNL     1       2.432   4.919  19.460  0.00  0.00    +0.000 A 
ATOM     20  C   UNL     1       2.785   4.749  20.812  0.00  0.00    +0.000 A 
ATOM     21  C   UNL     1       2.195   3.746  21.583  0.00  0.00    +0.000 A 
ATOM     22  C   UNL     1       1.221   2.924  21.028  0.00  0.00    +0.000 A 
ATOM     23  C   UNL     1       0.843   3.101  19.696  0.00  0.00    +0.000 A 
ATOM     24  C   UNL     1       1.443   4.089  18.904  0.00  0.00    +0.000 A 
ATOM     25 CL   UNL     1       0.995   4.077  17.231  0.00  0.00    +0.000 Cl
ENDBRANCH  18  19
ENDBRANCH   7  14
TORSDOF 2
ENDMDL
MODEL 7
REMARK VINA RESULT:      -7.4      1.664      2.548
REMARK  Name = 
REMARK  2 active torsions:
REMARK  status: ('A' for Active; 'I' for Inactive)
REMARK    1  A    between atoms: C_7  and  C_8
REMARK    2  A    between atoms: N_12  and  C_13
REMARK                            x       y       z     vdW  Elec       q    Type
REMARK                         _______ _______ _______ _____ _____    ______ ____
ROOT
ATOM      1  N   UNL     1       8.696   8.082  18.821  0.00  0.00    +0.000 N 
ATOM      2  C   UNL     1       7.950   6.985  18.506  0.00  0.00    +0.000 C 
ATOM      3  O   UNL     1       7.848   6.063  19.304  0.00  0.00    +0.000 OA
ATOM      4  N   UNL     1       7.426   7.061  17.254  0.00  0.00    +0.000 N 
ATOM      5  C   UNL     1       6.689   6.024  16.677  0.00  0.00    +0.000 A 
ATOM      6  C   UNL     1       5.722   5.315  17.381  0.00  0.00    +0.000 A 
ATOM      7  C   UNL     1       5.028   4.285  16.737  0.00  0.00    +0.000 A 
ATOM      8  C   UNL     1       5.342   4.022  15.402  0.00  0.00    +0.000 A 
ATOM      9  C   UNL     1       6.332   4.770  14.787  0.00  0.00    +0.000 A 
ATOM     10  N   UNL     1       6.984   5.787  15.383  0.00  0.00    +0.000 NA
ATOM     11  H   UNL     1       9.058   8.062  19.766  0.00  0.00    +0.000 HD
ATOM     12  H   UNL     1       8.329   8.979  18.527  0.00  0.00    +0.000 HD
ATOM     13  H   UNL     1       7.999   7.544  16.579  0.00  0.00    +0.000 HD
ENDROOT
BRANCH   7  14
ATOM     14  C   UNL     1       3.977   3.541  17.454  0.00  0.00    +0.000 A 
ATOM     15  C   UNL     1       3.759   2.169  17.435  0.00  0.00    +0.000 A 
ATOM     16  C   UNL     1       2.750   1.929  18.373  0.00  0.00    +0.000 A 
ATOM     17  N   UNL     1       2.330   3.046  18.954  0.00  0.00    +0.000 NA
ATOM     18  N   UNL     1       3.041   4.046  18.367  0.00  0.00    +0.000 N 
BRANCH  18  19
ATOM     19  C   UNL     1       2.699   5.401  18.651  0.00  0.00    +0.000 A 
ATOM     20  C   UNL     1       2.738   6.345  17.608  0.00  0.00    +0.000 A 
ATOM     21  C   UNL     1       2.441   7.687  17.849  0.00  0.00    +0.000 A 
ATOM     22  C   UNL     1       2.068   8.099  19.122  0.00  0.00    +0.000 A 
ATOM     23  C   UNL     1       2.000   7.168  20.159  0.00  0.00    +0.000 A 
ATOM     24  C   UNL     1       2.317   5.821  19.938  0.00  0.00    +0.000 A 
ATOM     25 CL   UNL     1       2.352   4.821  21.351  0.00  0.00    +0.000 Cl
ENDBRANCH  18  19
ENDBRANCH   7  14
TORSDOF 2
ENDMDL
MODEL 8
REMARK VINA RESULT:      -7.2      1.055      1.113
REMARK  Name = 
REMARK  2 active torsions:
REMARK  status: ('A' for Active; 'I' for Inactive)
REMARK    1  A    between atoms: C_7  and  C_8
REMARK    2  A    between atoms: N_12  and  C_13
REMARK                            x       y       z     vdW  Elec       q    Type
REMARK                         _______ _______ _______ _____ _____    ______ ____
ROOT
ATOM      1  N   UNL     1       7.088   3.860  12.012  0.00  0.00    +0.000 N 
ATOM      2  C   UNL     1       6.360   4.025  13.153  0.00  0.00    +0.000 C 
ATOM      3  O   UNL     1       5.139   4.089  13.098  0.00  0.00    +0.000 OA
ATOM      4  N   UNL     1       7.149   4.141  14.254  0.00  0.00    +0.000 N 
ATOM      5  C   UNL     1       6.636   4.395  15.529  0.00  0.00    +0.000 A 
ATOM      6  C   UNL     1       5.504   3.754  16.019  0.00  0.00    +0.000 A 
ATOM      7  C   UNL     1       5.047   4.063  17.304  0.00  0.00    +0.000 A 
ATOM      8  C   UNL     1       5.764   5.009  18.041  0.00  0.00    +0.000 A 
ATOM      9  C   UNL     1       6.871   5.608  17.464  0.00  0.00    +0.000 A 
ATOM     10  N   UNL     1       7.343   5.294  16.242  0.00  0.00    +0.000 NA
ATOM     11  H   UNL     1       6.516   3.728  11.187  0.00  0.00    +0.000 HD
ATOM     12  H   UNL     1       7.892   3.247  12.072  0.00  0.00    +0.000 HD
ATOM     13  H   UNL     1       8.034   4.600  14.101  0.00  0.00    +0.000 HD
ENDROOT
BRANCH   7  14
ATOM     14  C   UNL     1       3.866   3.373  17.855  0.00  0.00    +0.000 A 
ATOM     15  C   UNL     1       3.580   2.016  17.786  0.00  0.00    +0.000 A 
ATOM     16  C   UNL     1       2.437   1.826  18.568  0.00  0.00    +0.000 A 
ATOM     17  N   UNL     1       1.999   2.960  19.099  0.00  0.00    +0.000 NA
ATOM     18  N   UNL     1       2.838   3.923  18.634  0.00  0.00    +0.000 N 
BRANCH  18  19
ATOM     19  C   UNL     1       2.533   5.293  18.886  0.00  0.00    +0.000 A 
ATOM     20  C   UNL     1       2.568   6.206  17.815  0.00  0.00    +0.000 A 
ATOM     21  C   UNL     1       2.307   7.561  18.023  0.00  0.00    +0.000 A 
ATOM     22  C   UNL     1       1.972   8.017  19.293  0.00  0.00    +0.000 A 
ATOM     23  C   UNL     1       1.907   7.117  20.357  0.00  0.00    +0.000 A 
ATOM     24  C   UNL     1       2.189   5.758  20.168  0.00  0.00    +0.000 A 
ATOM     25 CL   UNL     1       2.234   4.797  21.608  0.00  0.00    +0.000 Cl
ENDBRANCH  18  19
ENDBRANCH   7  14
TORSDOF 2
ENDMDL
MODEL 9
REMARK VINA RESULT:      -7.2      1.634      1.781
REMARK  Name = 
REMARK  2 active torsions:
REMARK  status: ('A' for Active; 'I' for Inactive)
REMARK    1  A    between atoms: C_7  and  C_8
REMARK    2  A    between atoms: N_12  and  C_13
REMARK                            x       y       z     vdW  Elec       q    Type
REMARK                         _______ _______ _______ _____ _____    ______ ____
ROOT
ATOM      1  N   UNL     1       6.563   3.640  13.333  0.00  0.00    +0.000 N 
ATOM      2  C   UNL     1       6.032   4.073  14.512  0.00  0.00    +0.000 C 
ATOM      3  O   UNL     1       4.879   4.483  14.552  0.00  0.00    +0.000 OA
ATOM      4  N   UNL     1       6.931   4.022  15.531  0.00  0.00    +0.000 N 
ATOM      5  C   UNL     1       6.644   4.487  16.817  0.00  0.00    +0.000 A 
ATOM      6  C   UNL     1       5.435   4.228  17.452  0.00  0.00    +0.000 A 
ATOM      7  C   UNL     1       5.219   4.731  18.739  0.00  0.00    +0.000 A 
ATOM      8  C   UNL     1       6.244   5.471  19.330  0.00  0.00    +0.000 A 
ATOM      9  C   UNL     1       7.409   5.692  18.615  0.00  0.00    +0.000 A 
ATOM     10  N   UNL     1       7.645   5.185  17.390  0.00  0.00    +0.000 NA
ATOM     11  H   UNL     1       5.894   3.629  12.573  0.00  0.00    +0.000 HD
ATOM     12  H   UNL     1       7.164   2.826  13.379  0.00  0.00    +0.000 HD
ATOM     13  H   UNL     1       7.888   4.198  15.266  0.00  0.00    +0.000 HD
ENDROOT
BRANCH   7  14
ATOM     14  C   UNL     1       3.955   4.443  19.442  0.00  0.00    +0.000 A 
ATOM     15  C   UNL     1       3.603   3.263  20.084  0.00  0.00    +0.000 A 
ATOM     16  C   UNL     1       2.383   3.521  20.715  0.00  0.00    +0.000 A 
ATOM     17  N   UNL     1       1.959   4.760  20.500  0.00  0.00    +0.000 NA
ATOM     18  N   UNL     1       2.890   5.321  19.684  0.00  0.00    +0.000 N 
BRANCH  18  19
ATOM     19  C   UNL     1       2.638   6.608  19.123  0.00  0.00    +0.000 A 
ATOM     20  C   UNL     1       3.152   6.906  17.847  0.00  0.00    +0.000 A 
ATOM     21  C   UNL     1       2.955   8.164  17.274  0.00  0.00    +0.000 A 
ATOM     22  C   UNL     1       2.214   9.127  17.949  0.00  0.00    +0.000 A 
ATOM     23  C   UNL     1       1.676   8.834  19.203  0.00  0.00    +0.000 A 
ATOM     24  C   UNL     1       1.884   7.583  19.800  0.00  0.00    +0.000 A 
ATOM     25 CL   UNL     1       1.302   7.426  21.424  0.00  0.00    +0.000 Cl
ENDBRANCH  18  19
ENDBRANCH   7  14
TORSDOF 2
ENDMDL
