MODEL 1
REMARK VINA RESULT:      -7.0      0.000      0.000
REMARK  Name = 
REMARK  3 active torsions:
REMARK  status: ('A' for Active; 'I' for Inactive)
REMARK    1  A    between atoms: C_2  and  O_3
REMARK    2  A    between atoms: C_2  and  C_4
REMARK    3  A    between atoms: C_7  and  N_8
REMARK                            x       y       z     vdW  Elec       q    Type
REMARK                         _______ _______ _______ _____ _____    ______ ____
ROOT
ATOM      1  C   UNL     1       2.529   3.595  20.453  0.00  0.00    +0.000 A 
ATOM      2  C   UNL     1       2.529   4.983  20.319  0.00  0.00    +0.000 A 
ATOM      3  C   UNL     1       3.621   5.636  19.731  0.00  0.00    +0.000 A 
ATOM      4  C   UNL     1       4.726   4.924  19.246  0.00  0.00    +0.000 A 
ATOM      5  C   UNL     1       4.697   3.523  19.373  0.00  0.00    +0.000 A 
ATOM      6  C   UNL     1       3.614   2.862  19.968  0.00  0.00    +0.000 A 
ENDROOT
BRANCH   4   7
ATOM      7  N   UNL     1       5.831   5.575  18.628  0.00  0.00    +0.000 N 
ATOM      8  C   UNL     1       5.715   6.292  17.378  0.00  0.00    +0.000 C 
ATOM      9  C   UNL     1       7.144   6.534  16.942  0.00  0.00    +0.000 C 
ATOM     10  C   UNL     1       7.903   6.638  18.248  0.00  0.00    +0.000 C 
ATOM     11  C   UNL     1       7.107   5.761  19.187  0.00  0.00    +0.000 C 
ATOM     12  O   UNL     1       7.557   5.353  20.245  0.00  0.00    +0.000 OA
ENDBRANCH   4   7
BRANCH   1  14
ATOM     13  O   UNL     1       1.365   2.432  22.169  0.00  0.00    +0.000 OA
ATOM     14  C   UNL     1       1.347   2.941  21.064  0.00  0.00    +0.000 C 
BRANCH  14  15
ATOM     15  O   UNL     1       0.261   2.934  20.261  0.00  0.00    +0.000 OA
ATOM     16  H   UNL     1       0.205   2.174  19.654  0.00  0.00    +0.000 HD
ENDBRANCH  14  15
ENDBRANCH   1  14
TORSDOF 3
ENDMDL
MODEL 2
REMARK VINA RESULT:      -6.8      1.176      1.458
REMARK  Name = 
REMARK  3 active torsions:
REMARK  status: ('A' for Active; 'I' for Inactive)
REMARK    1  A    between atoms: C_2  and  O_3
REMARK    2  A    between atoms: C_2  and  C_4
REMARK    3  A    between atoms: C_7  and  N_8
REMARK                            x       y       z     vdW  Elec       q    Type
REMARK                         _______ _______ _______ _____ _____    ______ ____
ROOT
ATOM      1  C   UNL     1       2.170   3.604  18.977  0.00  0.00    +0.000 A 
ATOM      2  C   UNL     1       2.569   4.619  19.846  0.00  0.00    +0.000 A 
ATOM      3  C   UNL     1       3.761   5.319  19.615  0.00  0.00    +0.000 A 
ATOM      4  C   UNL     1       4.570   5.040  18.505  0.00  0.00    +0.000 A 
ATOM      5  C   UNL     1       4.139   4.027  17.630  0.00  0.00    +0.000 A 
ATOM      6  C   UNL     1       2.954   3.314  17.859  0.00  0.00    +0.000 A 
ENDROOT
BRANCH   4   7
ATOM      7  N   UNL     1       5.771   5.760  18.249  0.00  0.00    +0.000 N 
ATOM      8  C   UNL     1       5.877   6.758  17.208  0.00  0.00    +0.000 C 
ATOM      9  C   UNL     1       7.363   7.019  17.078  0.00  0.00    +0.000 C 
ATOM     10  C   UNL     1       7.891   6.770  18.475  0.00  0.00    +0.000 C 
ATOM     11  C   UNL     1       6.938   5.740  19.033  0.00  0.00    +0.000 C 
ATOM     12  O   UNL     1       7.197   5.070  20.020  0.00  0.00    +0.000 OA
ENDBRANCH   4   7
BRANCH   1  14
ATOM     13  O   UNL     1       0.348   2.176  18.434  0.00  0.00    +0.000 OA
ATOM     14  C   UNL     1       0.893   2.899  19.247  0.00  0.00    +0.000 C 
BRANCH  14  15
ATOM     15  O   UNL     1       0.378   3.166  20.466  0.00  0.00    +0.000 OA
ATOM     16  H   UNL     1      -0.516   3.552  20.458  0.00  0.00    +0.000 HD
ENDBRANCH  14  15
ENDBRANCH   1  14
TORSDOF 3
ENDMDL
MODEL 3
REMARK VINA RESULT:      -6.7      2.180      6.173
REMARK  Name = 
REMARK  3 active torsions:
REMARK  status: ('A' for Active; 'I' for Inactive)
REMARK    1  A    between atoms: C_2  and  O_3
REMARK    2  A    between atoms: C_2  and  C_4
REMARK    3  A    between atoms: C_7  and  N_8
REMARK                            x       y       z     vdW  Elec       q    Type
REMARK                         _______ _______ _______ _____ _____    ______ ____
ROOT
ATOM      1  C   UNL     1       6.036   5.982  17.480  0.00  0.00    +0.000 A 
ATOM      2  C   UNL     1       6.250   4.877  18.302  0.00  0.00    +0.000 A 
ATOM      3  C   UNL     1       5.173   4.263  18.957  0.00  0.00    +0.000 A 
ATOM      4  C   UNL     1       3.859   4.720  18.790  0.00  0.00    +0.000 A 
ATOM      5  C   UNL     1       3.661   5.823  17.940  0.00  0.00    +0.000 A 
ATOM      6  C   UNL     1       4.734   6.450  17.289  0.00  0.00    +0.000 A 
ENDROOT
BRANCH   4   7
ATOM      7  N   UNL     1       2.755   4.091  19.432  0.00  0.00    +0.000 N 
ATOM      8  C   UNL     1       2.404   4.347  20.811  0.00  0.00    +0.000 C 
ATOM      9  C   UNL     1       1.410   3.260  21.162  0.00  0.00    +0.000 C 
ATOM     10  C   UNL     1       0.720   2.972  19.845  0.00  0.00    +0.000 C 
ATOM     11  C   UNL     1       1.779   3.289  18.816  0.00  0.00    +0.000 C 
ATOM     12  O   UNL     1       1.708   2.905  17.660  0.00  0.00    +0.000 OA
ENDBRANCH   4   7
BRANCH   1  14
ATOM     13  O   UNL     1       7.698   7.648  17.137  0.00  0.00    +0.000 OA
ATOM     14  C   UNL     1       7.199   6.592  16.792  0.00  0.00    +0.000 C 
BRANCH  14  15
ATOM     15  O   UNL     1       7.628   5.882  15.727  0.00  0.00    +0.000 OA
ATOM     16  H   UNL     1       8.089   5.053  15.946  0.00  0.00    +0.000 HD
ENDBRANCH  14  15
ENDBRANCH   1  14
TORSDOF 3
ENDMDL
MODEL 4
REMARK VINA RESULT:      -6.7      3.133      6.337
REMARK  Name = 
REMARK  3 active torsions:
REMARK  status: ('A' for Active; 'I' for Inactive)
REMARK    1  A    between atoms: C_2  and  O_3
REMARK    2  A    between atoms: C_2  and  C_4
REMARK    3  A    between atoms: C_7  and  N_8
REMARK                            x       y       z     vdW  Elec       q    Type
REMARK                         _______ _______ _______ _____ _____    ______ ____
ROOT
ATOM      1  C   UNL     1       5.844   4.828  15.489  0.00  0.00    +0.000 A 
ATOM      2  C   UNL     1       5.489   3.593  16.031  0.00  0.00    +0.000 A 
ATOM      3  C   UNL     1       4.580   3.523  17.096  0.00  0.00    +0.000 A 
ATOM      4  C   UNL     1       3.989   4.676  17.631  0.00  0.00    +0.000 A 
ATOM      5  C   UNL     1       4.346   5.909  17.057  0.00  0.00    +0.000 A 
ATOM      6  C   UNL     1       5.261   5.990  15.998  0.00  0.00    +0.000 A 
ENDROOT
BRANCH   4   7
ATOM      7  N   UNL     1       3.049   4.614  18.698  0.00  0.00    +0.000 N 
ATOM      8  C   UNL     1       3.279   5.244  19.979  0.00  0.00    +0.000 C 
ATOM      9  C   UNL     1       2.213   4.668  20.886  0.00  0.00    +0.000 C 
ATOM     10  C   UNL     1       1.060   4.388  19.945  0.00  0.00    +0.000 C 
ATOM     11  C   UNL     1       1.741   4.103  18.628  0.00  0.00    +0.000 C 
ATOM     12  O   UNL     1       1.175   3.549  17.700  0.00  0.00    +0.000 OA
ENDBRANCH   4   7
BRANCH   1  14
ATOM     13  O   UNL     1       7.778   5.574  14.326  0.00  0.00    +0.000 OA
ATOM     14  C   UNL     1       6.795   4.857  14.352  0.00  0.00    +0.000 C 
BRANCH  14  15
ATOM     15  O   UNL     1       6.445   4.040  13.336  0.00  0.00    +0.000 OA
ATOM     16  H   UNL     1       6.610   4.399  12.446  0.00  0.00    +0.000 HD
ENDBRANCH  14  15
ENDBRANCH   1  14
TORSDOF 3
ENDMDL
MODEL 5
REMARK VINA RESULT:      -6.7      2.193      6.102
REMARK  Name = 
REMARK  3 active torsions:
REMARK  status: ('A' for Active; 'I' for Inactive)
REMARK    1  A    between atoms: C_2  and  O_3
REMARK    2  A    between atoms: C_2  and  C_4
REMARK    3  A    between atoms: C_7  and  N_8
REMARK                            x       y       z     vdW  Elec       q    Type
REMARK                         _______ _______ _______ _____ _____    ______ ____
ROOT
ATOM      1  C   UNL     1       6.227   6.109  18.014  0.00  0.00    +0.000 A 
ATOM      2  C   UNL     1       6.178   5.295  19.145  0.00  0.00    +0.000 A 
ATOM      3  C   UNL     1       5.003   4.602  19.467  0.00  0.00    +0.000 A 
ATOM      4  C   UNL     1       3.859   4.686  18.660  0.00  0.00    +0.000 A 
ATOM      5  C   UNL     1       3.936   5.496  17.513  0.00  0.00    +0.000 A 
ATOM      6  C   UNL     1       5.104   6.201  17.189  0.00  0.00    +0.000 A 
ENDROOT
BRANCH   4   7
ATOM      7  N   UNL     1       2.668   3.969  18.966  0.00  0.00    +0.000 N 
ATOM      8  C   UNL     1       1.665   4.474  19.877  0.00  0.00    +0.000 C 
ATOM      9  C   UNL     1       0.766   3.287  20.151  0.00  0.00    +0.000 C 
ATOM     10  C   UNL     1       0.839   2.482  18.870  0.00  0.00    +0.000 C 
ATOM     11  C   UNL     1       2.217   2.796  18.337  0.00  0.00    +0.000 C 
ATOM     12  O   UNL     1       2.762   2.116  17.482  0.00  0.00    +0.000 OA
ENDBRANCH   4   7
BRANCH   1  14
ATOM     13  O   UNL     1       7.808   7.143  16.570  0.00  0.00    +0.000 OA
ATOM     14  C   UNL     1       7.494   6.811  17.699  0.00  0.00    +0.000 C 
BRANCH  14  15
ATOM     15  O   UNL     1       8.280   7.014  18.778  0.00  0.00    +0.000 OA
ATOM     16  H   UNL     1       9.034   6.403  18.857  0.00  0.00    +0.000 HD
ENDBRANCH  14  15
ENDBRANCH   1  14
TORSDOF 3
ENDMDL
MODEL 6
REMARK VINA RESULT:      -6.7      2.177      6.073
REMARK  Name = 
REMARK  3 active torsions:
REMARK  status: ('A' for Active; 'I' for Inactive)
REMARK    1  A    between atoms: C_2  and  O_3
REMARK    2  A    between atoms: C_2  and  C_4
REMARK    3  A    between atoms: C_7  and  N_8
REMARK                            x       y       z     vdW  Elec       q    Type
REMARK                         _______ _______ _______ _____ _____    ______ ____
ROOT
ATOM      1  C   UNL     1       6.034   5.974  17.500  0.00  0.00    +0.000 A 
ATOM      2  C   UNL     1       4.776   6.576  17.464  0.00  0.00    +0.000 A 
ATOM      3  C   UNL     1       3.683   5.966  18.095  0.00  0.00    +0.000 A 
ATOM      4  C   UNL     1       3.821   4.759  18.793  0.00  0.00    +0.000 A 
ATOM      5  C   UNL     1       5.101   4.179  18.835  0.00  0.00    +0.000 A 
ATOM      6  C   UNL     1       6.199   4.776  18.198  0.00  0.00    +0.000 A 
ENDROOT
BRANCH   4   7
ATOM      7  N   UNL     1       2.722   4.143  19.456  0.00  0.00    +0.000 N 
ATOM      8  C   UNL     1       2.456   4.328  20.865  0.00  0.00    +0.000 C 
ATOM      9  C   UNL     1       1.428   3.269  21.204  0.00  0.00    +0.000 C 
ATOM     10  C   UNL     1       0.657   3.096  19.912  0.00  0.00    +0.000 C 
ATOM     11  C   UNL     1       1.676   3.427  18.847  0.00  0.00    +0.000 C 
ATOM     12  O   UNL     1       1.526   3.121  17.676  0.00  0.00    +0.000 OA
ENDBRANCH   4   7
BRANCH   1  14
ATOM     13  O   UNL     1       7.615   7.726  17.214  0.00  0.00    +0.000 OA
ATOM     14  C   UNL     1       7.168   6.659  16.835  0.00  0.00    +0.000 C 
BRANCH  14  15
ATOM     15  O   UNL     1       7.632   6.004  15.750  0.00  0.00    +0.000 OA
ATOM     16  H   UNL     1       7.131   5.204  15.510  0.00  0.00    +0.000 HD
ENDBRANCH  14  15
ENDBRANCH   1  14
TORSDOF 3
ENDMDL
MODEL 7
REMARK VINA RESULT:      -6.6      3.109      6.207
REMARK  Name = 
REMARK  3 active torsions:
REMARK  status: ('A' for Active; 'I' for Inactive)
REMARK    1  A    between atoms: C_2  and  O_3
REMARK    2  A    between atoms: C_2  and  C_4
REMARK    3  A    between atoms: C_7  and  N_8
REMARK                            x       y       z     vdW  Elec       q    Type
REMARK                         _______ _______ _______ _____ _____    ______ ____
ROOT
ATOM      1  C   UNL     1       5.764   4.746  15.518  0.00  0.00    +0.000 A 
ATOM      2  C   UNL     1       5.258   5.926  16.062  0.00  0.00    +0.000 A 
ATOM      3  C   UNL     1       4.331   5.880  17.112  0.00  0.00    +0.000 A 
ATOM      4  C   UNL     1       3.904   4.662  17.659  0.00  0.00    +0.000 A 
ATOM      5  C   UNL     1       4.441   3.484  17.110  0.00  0.00    +0.000 A 
ATOM      6  C   UNL     1       5.361   3.520  16.052  0.00  0.00    +0.000 A 
ENDROOT
BRANCH   4   7
ATOM      7  N   UNL     1       2.979   4.605  18.740  0.00  0.00    +0.000 N 
ATOM      8  C   UNL     1       3.194   5.301  19.989  0.00  0.00    +0.000 C 
ATOM      9  C   UNL     1       2.166   4.717  20.934  0.00  0.00    +0.000 C 
ATOM     10  C   UNL     1       1.017   4.342  20.022  0.00  0.00    +0.000 C 
ATOM     11  C   UNL     1       1.697   4.031  18.710  0.00  0.00    +0.000 C 
ATOM     12  O   UNL     1       1.146   3.410  17.815  0.00  0.00    +0.000 OA
ENDBRANCH   4   7
BRANCH   1  14
ATOM     13  O   UNL     1       7.699   5.606  14.438  0.00  0.00    +0.000 OA
ATOM     14  C   UNL     1       6.755   4.838  14.420  0.00  0.00    +0.000 C 
BRANCH  14  15
ATOM     15  O   UNL     1       6.491   4.012  13.385  0.00  0.00    +0.000 OA
ATOM     16  H   UNL     1       7.256   3.508  13.056  0.00  0.00    +0.000 HD
ENDBRANCH  14  15
ENDBRANCH   1  14
TORSDOF 3
ENDMDL
MODEL 8
REMARK VINA RESULT:      -6.6      2.056      5.967
REMARK  Name = 
REMARK  3 active torsions:
REMARK  status: ('A' for Active; 'I' for Inactive)
REMARK    1  A    between atoms: C_2  and  O_3
REMARK    2  A    between atoms: C_2  and  C_4
REMARK    3  A    between atoms: C_7  and  N_8
REMARK                            x       y       z     vdW  Elec       q    Type
REMARK                         _______ _______ _______ _____ _____    ______ ____
ROOT
ATOM      1  C   UNL     1       6.288   6.076  18.056  0.00  0.00    +0.000 A 
ATOM      2  C   UNL     1       5.143   6.278  17.287  0.00  0.00    +0.000 A 
ATOM      3  C   UNL     1       3.967   5.571  17.572  0.00  0.00    +0.000 A 
ATOM      4  C   UNL     1       3.897   4.666  18.640  0.00  0.00    +0.000 A 
ATOM      5  C   UNL     1       5.057   4.493  19.416  0.00  0.00    +0.000 A 
ATOM      6  C   UNL     1       6.241   5.188  19.133  0.00  0.00    +0.000 A 
ENDROOT
BRANCH   4   7
ATOM      7  N   UNL     1       2.701   3.959  18.952  0.00  0.00    +0.000 N 
ATOM      8  C   UNL     1       2.355   2.699  18.333  0.00  0.00    +0.000 C 
ATOM      9  C   UNL     1       0.902   2.480  18.698  0.00  0.00    +0.000 C 
ATOM     10  C   UNL     1       0.766   3.165  20.042  0.00  0.00    +0.000 C 
ATOM     11  C   UNL     1       1.793   4.270  19.979  0.00  0.00    +0.000 C 
ATOM     12  O   UNL     1       1.786   5.219  20.746  0.00  0.00    +0.000 OA
ENDBRANCH   4   7
BRANCH   1  14
ATOM     13  O   UNL     1       7.782   7.224  16.606  0.00  0.00    +0.000 OA
ATOM     14  C   UNL     1       7.507   6.856  17.733  0.00  0.00    +0.000 C 
BRANCH  14  15
ATOM     15  O   UNL     1       8.297   7.088  18.803  0.00  0.00    +0.000 OA
ATOM     16  H   UNL     1       8.747   7.952  18.801  0.00  0.00    +0.000 HD
ENDBRANCH  14  15
ENDBRANCH   1  14
TORSDOF 3
ENDMDL
MODEL 9
REMARK VINA RESULT:      -6.6      2.048      6.018
REMARK  Name = 
REMARK  3 active torsions:
REMARK  status: ('A' for Active; 'I' for Inactive)
REMARK    1  A    between atoms: C_2  and  O_3
REMARK    2  A    between atoms: C_2  and  C_4
REMARK    3  A    between atoms: C_7  and  N_8
REMARK                            x       y       z     vdW  Elec       q    Type
REMARK                         _______ _______ _______ _____ _____    ______ ____
ROOT
ATOM      1  C   UNL     1       6.242   6.151  18.054  0.00  0.00    +0.000 A 
ATOM      2  C   UNL     1       6.274   5.164  19.039  0.00  0.00    +0.000 A 
ATOM      3  C   UNL     1       5.111   4.454  19.365  0.00  0.00    +0.000 A 
ATOM      4  C   UNL     1       3.897   4.693  18.706  0.00  0.00    +0.000 A 
ATOM      5  C   UNL     1       3.891   5.678  17.702  0.00  0.00    +0.000 A 
ATOM      6  C   UNL     1       5.047   6.401  17.376  0.00  0.00    +0.000 A 
ENDROOT
BRANCH   4   7
ATOM      7  N   UNL     1       2.716   3.961  19.014  0.00  0.00    +0.000 N 
ATOM      8  C   UNL     1       2.281   2.818  18.243  0.00  0.00    +0.000 C 
ATOM      9  C   UNL     1       0.861   2.564  18.703  0.00  0.00    +0.000 C 
ATOM     10  C   UNL     1       0.865   3.031  20.144  0.00  0.00    +0.000 C 
ATOM     11  C   UNL     1       1.913   4.119  20.157  0.00  0.00    +0.000 C 
ATOM     12  O   UNL     1       2.001   4.936  21.060  0.00  0.00    +0.000 OA
ENDBRANCH   4   7
BRANCH   1  14
ATOM     13  O   UNL     1       7.795   7.204  16.595  0.00  0.00    +0.000 OA
ATOM     14  C   UNL     1       7.497   6.868  17.726  0.00  0.00    +0.000 C 
BRANCH  14  15
ATOM     15  O   UNL     1       8.292   7.080  18.797  0.00  0.00    +0.000 OA
ATOM     16  H   UNL     1       9.244   6.965  18.630  0.00  0.00    +0.000 HD
ENDBRANCH  14  15
ENDBRANCH   1  14
TORSDOF 3
ENDMDL
