MODEL 1
REMARK VINA RESULT:      -9.5      0.000      0.000
REMARK  Name = 
REMARK  7 active torsions:
REMARK  status: ('A' for Active; 'I' for Inactive)
REMARK    1  A    between atoms: C_1  and  C_2
REMARK    2  A    between atoms: C_8  and  C_9
REMARK    3  A    between atoms: C_12  and  C_13
REMARK    4  A    between atoms: C_17  and  N_18
REMARK    5  A    between atoms: N_18  and  S_19
REMARK    6  A    between atoms: S_19  and  C_22
REMARK    7  A    between atoms: C_25  and  C_26
REMARK                            x       y       z     vdW  Elec       q    Type
REMARK                         _______ _______ _______ _____ _____    ______ ____
ROOT
ATOM      1  C   UNL     1       1.124   9.175  19.727  0.00  0.00    +0.000 A 
ATOM      2  C   UNL     1       1.619   9.385  18.434  0.00  0.00    +0.000 A 
ATOM      3  C   UNL     1       2.466   8.448  17.837  0.00  0.00    +0.000 A 
ATOM      4  C   UNL     1       2.819   7.289  18.525  0.00  0.00    +0.000 A 
ATOM      5  C   UNL     1       2.293   7.050  19.795  0.00  0.00    +0.000 A 
ATOM      6  C   UNL     1       1.449   7.985  20.399  0.00  0.00    +0.000 A 
ENDROOT
BRANCH   1  18
ATOM      7  C   UNL     1      -4.000  11.219  15.195  0.00  0.00    +0.000 C 
ATOM      8  C   UNL     1      -3.081  10.767  16.299  0.00  0.00    +0.000 C 
ATOM      9  O   UNL     1      -2.477   9.703  16.205  0.00  0.00    +0.000 OA
ATOM     10  N   UNL     1      -3.039  11.656  17.348  0.00  0.00    +0.000 N 
ATOM     11  C   UNL     1      -2.234  11.498  18.441  0.00  0.00    +0.000 A 
ATOM     12  N   UNL     1      -2.467  12.267  19.551  0.00  0.00    +0.000 NA
ATOM     13  C   UNL     1      -1.577  11.818  20.414  0.00  0.00    +0.000 A 
ATOM     14  C   UNL     1      -1.279  12.113  21.771  0.00  0.00    +0.000 A 
ATOM     15  C   UNL     1      -2.048  13.089  22.618  0.00  0.00    +0.000 C 
ATOM     16  C   UNL     1      -0.240  11.434  22.306  0.00  0.00    +0.000 A 
ATOM     17  N   UNL     1       0.551  10.503  21.664  0.00  0.00    +0.000 NA
ATOM     18  C   UNL     1       0.265  10.191  20.421  0.00  0.00    +0.000 A 
ATOM     19  N   UNL     1      -0.810  10.853  19.811  0.00  0.00    +0.000 N 
ATOM     20  N   UNL     1      -1.208  10.660  18.546  0.00  0.00    +0.000 NA
ATOM     21  H   UNL     1      -3.696  12.419  17.416  0.00  0.00    +0.000 HD
ENDBRANCH   1  18
BRANCH   5  22
ATOM     22  N   UNL     1       2.668   5.884  20.500  0.00  0.00    +0.000 N 
ATOM     23  H   UNL     1       3.215   5.957  21.354  0.00  0.00    +0.000 HD
BRANCH  22  24
ATOM     24  S   UNL     1       2.610   4.371  19.780  0.00  0.00    +0.000 S 
ATOM     25  O   UNL     1       2.967   3.424  20.816  0.00  0.00    +0.000 OA
ATOM     26  O   UNL     1       1.367   4.244  19.047  0.00  0.00    +0.000 OA
BRANCH  24  27
ATOM     27  C   UNL     1       3.944   4.400  18.600  0.00  0.00    +0.000 A 
ATOM     28  C   UNL     1       5.239   4.726  19.014  0.00  0.00    +0.000 A 
ATOM     29  C   UNL     1       6.281   4.733  18.082  0.00  0.00    +0.000 A 
ATOM     30  C   UNL     1       6.036   4.407  16.740  0.00  0.00    +0.000 A 
ATOM     31  C   UNL     1       7.140   4.431  15.723  0.00  0.00    +0.000 C 
ATOM     32  C   UNL     1       4.739   4.050  16.347  0.00  0.00    +0.000 A 
ATOM     33  C   UNL     1       3.696   4.035  17.274  0.00  0.00    +0.000 A 
ENDBRANCH  24  27
ENDBRANCH  22  24
ENDBRANCH   5  22
TORSDOF 4
ENDMDL
MODEL 2
REMARK VINA RESULT:      -9.2      2.452      2.966
REMARK  Name = 
REMARK  7 active torsions:
REMARK  status: ('A' for Active; 'I' for Inactive)
REMARK    1  A    between atoms: C_1  and  C_2
REMARK    2  A    between atoms: C_8  and  C_9
REMARK    3  A    between atoms: C_12  and  C_13
REMARK    4  A    between atoms: C_17  and  N_18
REMARK    5  A    between atoms: N_18  and  S_19
REMARK    6  A    between atoms: S_19  and  C_22
REMARK    7  A    between atoms: C_25  and  C_26
REMARK                            x       y       z     vdW  Elec       q    Type
REMARK                         _______ _______ _______ _____ _____    ______ ____
ROOT
ATOM      1  C   UNL     1       1.081   9.281  20.035  0.00  0.00    +0.000 A 
ATOM      2  C   UNL     1       1.277   9.473  18.661  0.00  0.00    +0.000 A 
ATOM      3  C   UNL     1       1.961   8.522  17.901  0.00  0.00    +0.000 A 
ATOM      4  C   UNL     1       2.448   7.366  18.507  0.00  0.00    +0.000 A 
ATOM      5  C   UNL     1       2.217   7.144  19.865  0.00  0.00    +0.000 A 
ATOM      6  C   UNL     1       1.537   8.094  20.631  0.00  0.00    +0.000 A 
ENDROOT
BRANCH   1  18
ATOM      7  C   UNL     1       3.289  15.724  17.892  0.00  0.00    +0.000 C 
ATOM      8  C   UNL     1       2.621  14.450  18.339  0.00  0.00    +0.000 C 
ATOM      9  O   UNL     1       2.657  13.450  17.629  0.00  0.00    +0.000 OA
ATOM     10  N   UNL     1       2.002  14.580  19.561  0.00  0.00    +0.000 N 
ATOM     11  C   UNL     1       1.378  13.548  20.206  0.00  0.00    +0.000 A 
ATOM     12  N   UNL     1       0.553  13.830  21.263  0.00  0.00    +0.000 NA
ATOM     13  C   UNL     1       0.078  12.646  21.591  0.00  0.00    +0.000 A 
ATOM     14  C   UNL     1      -0.862  12.190  22.554  0.00  0.00    +0.000 A 
ATOM     15  C   UNL     1      -1.638  13.088  23.477  0.00  0.00    +0.000 C 
ATOM     16  C   UNL     1      -1.060  10.853  22.596  0.00  0.00    +0.000 A 
ATOM     17  N   UNL     1      -0.435   9.906  21.810  0.00  0.00    +0.000 NA
ATOM     18  C   UNL     1       0.408  10.313  20.891  0.00  0.00    +0.000 A 
ATOM     19  N   UNL     1       0.648  11.691  20.788  0.00  0.00    +0.000 N 
ATOM     20  N   UNL     1       1.496  12.256  19.917  0.00  0.00    +0.000 NA
ATOM     21  H   UNL     1       1.877  15.482  19.994  0.00  0.00    +0.000 HD
ENDBRANCH   1  18
BRANCH   5  22
ATOM     22  N   UNL     1       2.730   5.980  20.482  0.00  0.00    +0.000 N 
ATOM     23  H   UNL     1       3.389   6.059  21.252  0.00  0.00    +0.000 HD
BRANCH  22  24
ATOM     24  S   UNL     1       2.627   4.480  19.739  0.00  0.00    +0.000 S 
ATOM     25  O   UNL     1       2.968   3.509  20.758  0.00  0.00    +0.000 OA
ATOM     26  O   UNL     1       1.375   4.396  19.016  0.00  0.00    +0.000 OA
BRANCH  24  27
ATOM     27  C   UNL     1       3.951   4.493  18.549  0.00  0.00    +0.000 A 
ATOM     28  C   UNL     1       5.241   4.868  18.938  0.00  0.00    +0.000 A 
ATOM     29  C   UNL     1       6.276   4.862  17.998  0.00  0.00    +0.000 A 
ATOM     30  C   UNL     1       6.030   4.474  16.673  0.00  0.00    +0.000 A 
ATOM     31  C   UNL     1       7.126   4.482  15.647  0.00  0.00    +0.000 C 
ATOM     32  C   UNL     1       4.739   4.068  16.306  0.00  0.00    +0.000 A 
ATOM     33  C   UNL     1       3.703   4.067  17.241  0.00  0.00    +0.000 A 
ENDBRANCH  24  27
ENDBRANCH  22  24
ENDBRANCH   5  22
TORSDOF 4
ENDMDL
MODEL 3
REMARK VINA RESULT:      -9.1      3.163      9.250
REMARK  Name = 
REMARK  7 active torsions:
REMARK  status: ('A' for Active; 'I' for Inactive)
REMARK    1  A    between atoms: C_1  and  C_2
REMARK    2  A    between atoms: C_8  and  C_9
REMARK    3  A    between atoms: C_12  and  C_13
REMARK    4  A    between atoms: C_17  and  N_18
REMARK    5  A    between atoms: N_18  and  S_19
REMARK    6  A    between atoms: S_19  and  C_22
REMARK    7  A    between atoms: C_25  and  C_26
REMARK                            x       y       z     vdW  Elec       q    Type
REMARK                         _______ _______ _______ _____ _____    ______ ____
ROOT
ATOM      1  C   UNL     1       2.061   7.651  19.178  0.00  0.00    +0.000 A 
ATOM      2  C   UNL     1       2.677   8.247  18.070  0.00  0.00    +0.000 A 
ATOM      3  C   UNL     1       2.307   9.528  17.655  0.00  0.00    +0.000 A 
ATOM      4  C   UNL     1       1.324  10.229  18.351  0.00  0.00    +0.000 A 
ATOM      5  C   UNL     1       0.739   9.662  19.484  0.00  0.00    +0.000 A 
ATOM      6  C   UNL     1       1.101   8.379  19.900  0.00  0.00    +0.000 A 
ENDROOT
BRANCH   1  18
ATOM      7  C   UNL     1       6.409   4.786  14.293  0.00  0.00    +0.000 C 
ATOM      8  C   UNL     1       5.633   5.311  15.472  0.00  0.00    +0.000 C 
ATOM      9  O   UNL     1       5.500   6.520  15.636  0.00  0.00    +0.000 OA
ATOM     10  N   UNL     1       5.150   4.306  16.277  0.00  0.00    +0.000 N 
ATOM     11  C   UNL     1       4.367   4.527  17.375  0.00  0.00    +0.000 A 
ATOM     12  N   UNL     1       4.176   3.506  18.269  0.00  0.00    +0.000 NA
ATOM     13  C   UNL     1       3.450   4.070  19.213  0.00  0.00    +0.000 A 
ATOM     14  C   UNL     1       2.932   3.628  20.459  0.00  0.00    +0.000 A 
ATOM     15  C   UNL     1       3.179   2.267  21.048  0.00  0.00    +0.000 C 
ATOM     16  C   UNL     1       2.190   4.529  21.141  0.00  0.00    +0.000 A 
ATOM     17  N   UNL     1       1.887   5.815  20.739  0.00  0.00    +0.000 NA
ATOM     18  C   UNL     1       2.388   6.251  19.609  0.00  0.00    +0.000 A 
ATOM     19  N   UNL     1       3.178   5.368  18.859  0.00  0.00    +0.000 N 
ATOM     20  N   UNL     1       3.740   5.659  17.677  0.00  0.00    +0.000 NA
ATOM     21  H   UNL     1       5.451   3.350  16.161  0.00  0.00    +0.000 HD
ENDBRANCH   1  18
BRANCH   5  22
ATOM     22  N   UNL     1      -0.273  10.366  20.176  0.00  0.00    +0.000 N 
ATOM     23  H   UNL     1      -1.160  10.564  19.721  0.00  0.00    +0.000 HD
BRANCH  22  24
ATOM     24  S   UNL     1       0.068  11.249  21.560  0.00  0.00    +0.000 S 
ATOM     25  O   UNL     1       0.397  10.277  22.581  0.00  0.00    +0.000 OA
ATOM     26  O   UNL     1       0.985  12.319  21.223  0.00  0.00    +0.000 OA
BRANCH  24  27
ATOM     27  C   UNL     1      -1.493  11.981  22.004  0.00  0.00    +0.000 A 
ATOM     28  C   UNL     1      -2.194  12.757  21.075  0.00  0.00    +0.000 A 
ATOM     29  C   UNL     1      -3.425  13.317  21.431  0.00  0.00    +0.000 A 
ATOM     30  C   UNL     1      -3.963  13.097  22.706  0.00  0.00    +0.000 A 
ATOM     31  C   UNL     1      -5.274  13.708  23.110  0.00  0.00    +0.000 C 
ATOM     32  C   UNL     1      -3.266  12.289  23.615  0.00  0.00    +0.000 A 
ATOM     33  C   UNL     1      -2.039  11.724  23.265  0.00  0.00    +0.000 A 
ENDBRANCH  24  27
ENDBRANCH  22  24
ENDBRANCH   5  22
TORSDOF 4
ENDMDL
MODEL 4
REMARK VINA RESULT:      -9.1      1.489      1.848
REMARK  Name = 
REMARK  7 active torsions:
REMARK  status: ('A' for Active; 'I' for Inactive)
REMARK    1  A    between atoms: C_1  and  C_2
REMARK    2  A    between atoms: C_8  and  C_9
REMARK    3  A    between atoms: C_12  and  C_13
REMARK    4  A    between atoms: C_17  and  N_18
REMARK    5  A    between atoms: N_18  and  S_19
REMARK    6  A    between atoms: S_19  and  C_22
REMARK    7  A    between atoms: C_25  and  C_26
REMARK                            x       y       z     vdW  Elec       q    Type
REMARK                         _______ _______ _______ _____ _____    ______ ____
ROOT
ATOM      1  C   UNL     1       1.916   8.271  19.317  0.00  0.00    +0.000 A 
ATOM      2  C   UNL     1       2.400   8.830  18.127  0.00  0.00    +0.000 A 
ATOM      3  C   UNL     1       3.243   8.095  17.290  0.00  0.00    +0.000 A 
ATOM      4  C   UNL     1       3.601   6.792  17.630  0.00  0.00    +0.000 A 
ATOM      5  C   UNL     1       3.085   6.213  18.790  0.00  0.00    +0.000 A 
ATOM      6  C   UNL     1       2.246   6.944  19.634  0.00  0.00    +0.000 A 
ENDROOT
BRANCH   1  18
ATOM      7  C   UNL     1      -3.412  11.237  15.602  0.00  0.00    +0.000 C 
ATOM      8  C   UNL     1      -2.444  10.550  16.528  0.00  0.00    +0.000 C 
ATOM      9  O   UNL     1      -1.822   9.561  16.152  0.00  0.00    +0.000 OA
ATOM     10  N   UNL     1      -2.382  11.149  17.766  0.00  0.00    +0.000 N 
ATOM     11  C   UNL     1      -1.534  10.745  18.759  0.00  0.00    +0.000 A 
ATOM     12  N   UNL     1      -1.741  11.205  20.033  0.00  0.00    +0.000 NA
ATOM     13  C   UNL     1      -0.811  10.579  20.728  0.00  0.00    +0.000 A 
ATOM     14  C   UNL     1      -0.470  10.534  22.106  0.00  0.00    +0.000 A 
ATOM     15  C   UNL     1      -1.227  11.243  23.194  0.00  0.00    +0.000 C 
ATOM     16  C   UNL     1       0.601   9.772  22.421  0.00  0.00    +0.000 A 
ATOM     17  N   UNL     1       1.387   9.055  21.541  0.00  0.00    +0.000 NA
ATOM     18  C   UNL     1       1.063   9.057  20.270  0.00  0.00    +0.000 A 
ATOM     19  N   UNL     1      -0.047   9.819  19.879  0.00  0.00    +0.000 N 
ATOM     20  N   UNL     1      -0.487   9.937  18.618  0.00  0.00    +0.000 NA
ATOM     21  H   UNL     1      -3.050  11.851  18.043  0.00  0.00    +0.000 HD
ENDBRANCH   1  18
BRANCH   5  22
ATOM     22  N   UNL     1       3.467   4.898  19.145  0.00  0.00    +0.000 N 
ATOM     23  H   UNL     1       2.811   4.290  19.629  0.00  0.00    +0.000 HD
BRANCH  22  24
ATOM     24  S   UNL     1       5.077   4.435  19.177  0.00  0.00    +0.000 S 
ATOM     25  O   UNL     1       5.798   5.542  19.770  0.00  0.00    +0.000 OA
ATOM     26  O   UNL     1       5.174   3.099  19.729  0.00  0.00    +0.000 OA
BRANCH  24  27
ATOM     27  C   UNL     1       5.541   4.356  17.459  0.00  0.00    +0.000 A 
ATOM     28  C   UNL     1       6.783   4.845  17.045  0.00  0.00    +0.000 A 
ATOM     29  C   UNL     1       7.143   4.766  15.696  0.00  0.00    +0.000 A 
ATOM     30  C   UNL     1       6.270   4.194  14.761  0.00  0.00    +0.000 A 
ATOM     31  C   UNL     1       6.631   4.122  13.305  0.00  0.00    +0.000 C 
ATOM     32  C   UNL     1       5.040   3.678  15.196  0.00  0.00    +0.000 A 
ATOM     33  C   UNL     1       4.679   3.748  16.542  0.00  0.00    +0.000 A 
ENDBRANCH  24  27
ENDBRANCH  22  24
ENDBRANCH   5  22
TORSDOF 4
ENDMDL
MODEL 5
REMARK VINA RESULT:      -9.0      3.071      9.238
REMARK  Name = 
REMARK  7 active torsions:
REMARK  status: ('A' for Active; 'I' for Inactive)
REMARK    1  A    between atoms: C_1  and  C_2
REMARK    2  A    between atoms: C_8  and  C_9
REMARK    3  A    between atoms: C_12  and  C_13
REMARK    4  A    between atoms: C_17  and  N_18
REMARK    5  A    between atoms: N_18  and  S_19
REMARK    6  A    between atoms: S_19  and  C_22
REMARK    7  A    between atoms: C_25  and  C_26
REMARK                            x       y       z     vdW  Elec       q    Type
REMARK                         _______ _______ _______ _____ _____    ______ ____
ROOT
ATOM      1  C   UNL     1       2.141   7.719  19.157  0.00  0.00    +0.000 A 
ATOM      2  C   UNL     1       2.575   8.196  17.913  0.00  0.00    +0.000 A 
ATOM      3  C   UNL     1       2.271   9.496  17.505  0.00  0.00    +0.000 A 
ATOM      4  C   UNL     1       1.538  10.335  18.342  0.00  0.00    +0.000 A 
ATOM      5  C   UNL     1       1.142   9.884  19.602  0.00  0.00    +0.000 A 
ATOM      6  C   UNL     1       1.439   8.583  20.013  0.00  0.00    +0.000 A 
ENDROOT
BRANCH   1  18
ATOM      7  C   UNL     1       6.320   4.595  14.283  0.00  0.00    +0.000 C 
ATOM      8  C   UNL     1       5.576   5.169  15.460  0.00  0.00    +0.000 C 
ATOM      9  O   UNL     1       5.508   6.384  15.616  0.00  0.00    +0.000 OA
ATOM     10  N   UNL     1       5.042   4.195  16.273  0.00  0.00    +0.000 N 
ATOM     11  C   UNL     1       4.274   4.465  17.371  0.00  0.00    +0.000 A 
ATOM     12  N   UNL     1       4.031   3.461  18.271  0.00  0.00    +0.000 NA
ATOM     13  C   UNL     1       3.338   4.070  19.213  0.00  0.00    +0.000 A 
ATOM     14  C   UNL     1       2.800   3.664  20.464  0.00  0.00    +0.000 A 
ATOM     15  C   UNL     1       2.975   2.296  21.061  0.00  0.00    +0.000 C 
ATOM     16  C   UNL     1       2.108   4.608  21.140  0.00  0.00    +0.000 A 
ATOM     17  N   UNL     1       1.873   5.905  20.731  0.00  0.00    +0.000 NA
ATOM     18  C   UNL     1       2.395   6.307  19.596  0.00  0.00    +0.000 A 
ATOM     19  N   UNL     1       3.134   5.378  18.851  0.00  0.00    +0.000 N 
ATOM     20  N   UNL     1       3.708   5.631  17.666  0.00  0.00    +0.000 NA
ATOM     21  H   UNL     1       5.291   3.224  16.163  0.00  0.00    +0.000 HD
ENDBRANCH   1  18
BRANCH   5  22
ATOM     22  N   UNL     1       0.380  10.730  20.440  0.00  0.00    +0.000 N 
ATOM     23  H   UNL     1       0.351  10.563  21.443  0.00  0.00    +0.000 HD
BRANCH  22  24
ATOM     24  S   UNL     1      -0.804  11.741  19.818  0.00  0.00    +0.000 S 
ATOM     25  O   UNL     1      -0.138  12.989  19.507  0.00  0.00    +0.000 OA
ATOM     26  O   UNL     1      -1.555  11.023  18.809  0.00  0.00    +0.000 OA
BRANCH  24  27
ATOM     27  C   UNL     1      -1.887  12.043  21.199  0.00  0.00    +0.000 A 
ATOM     28  C   UNL     1      -3.113  12.684  21.001  0.00  0.00    +0.000 A 
ATOM     29  C   UNL     1      -3.961  12.906  22.091  0.00  0.00    +0.000 A 
ATOM     30  C   UNL     1      -3.593  12.482  23.375  0.00  0.00    +0.000 A 
ATOM     31  C   UNL     1      -4.483  12.731  24.559  0.00  0.00    +0.000 C 
ATOM     32  C   UNL     1      -2.375  11.810  23.553  0.00  0.00    +0.000 A 
ATOM     33  C   UNL     1      -1.527  11.581  22.469  0.00  0.00    +0.000 A 
ENDBRANCH  24  27
ENDBRANCH  22  24
ENDBRANCH   5  22
TORSDOF 4
ENDMDL
MODEL 6
REMARK VINA RESULT:      -8.9      2.627      3.095
REMARK  Name = 
REMARK  7 active torsions:
REMARK  status: ('A' for Active; 'I' for Inactive)
REMARK    1  A    between atoms: C_1  and  C_2
REMARK    2  A    between atoms: C_8  and  C_9
REMARK    3  A    between atoms: C_12  and  C_13
REMARK    4  A    between atoms: C_17  and  N_18
REMARK    5  A    between atoms: N_18  and  S_19
REMARK    6  A    between atoms: S_19  and  C_22
REMARK    7  A    between atoms: C_25  and  C_26
REMARK                            x       y       z     vdW  Elec       q    Type
REMARK                         _______ _______ _______ _____ _____    ______ ____
ROOT
ATOM      1  C   UNL     1       1.585   8.480  19.725  0.00  0.00    +0.000 A 
ATOM      2  C   UNL     1       1.785   8.842  18.387  0.00  0.00    +0.000 A 
ATOM      3  C   UNL     1       2.615   8.080  17.562  0.00  0.00    +0.000 A 
ATOM      4  C   UNL     1       3.245   6.944  18.065  0.00  0.00    +0.000 A 
ATOM      5  C   UNL     1       3.015   6.551  19.384  0.00  0.00    +0.000 A 
ATOM      6  C   UNL     1       2.190   7.311  20.215  0.00  0.00    +0.000 A 
ENDROOT
BRANCH   1  18
ATOM      7  C   UNL     1       2.840  15.356  18.267  0.00  0.00    +0.000 C 
ATOM      8  C   UNL     1       2.362  13.961  18.572  0.00  0.00    +0.000 C 
ATOM      9  O   UNL     1       2.558  13.051  17.772  0.00  0.00    +0.000 OA
ATOM     10  N   UNL     1       1.713  13.878  19.782  0.00  0.00    +0.000 N 
ATOM     11  C   UNL     1       1.240  12.708  20.308  0.00  0.00    +0.000 A 
ATOM     12  N   UNL     1       0.366  12.761  21.362  0.00  0.00    +0.000 NA
ATOM     13  C   UNL     1       0.068  11.493  21.563  0.00  0.00    +0.000 A 
ATOM     14  C   UNL     1      -0.808  10.812  22.450  0.00  0.00    +0.000 A 
ATOM     15  C   UNL     1      -1.723  11.492  23.430  0.00  0.00    +0.000 C 
ATOM     16  C   UNL     1      -0.805   9.463  22.359  0.00  0.00    +0.000 A 
ATOM     17  N   UNL     1      -0.034   8.699  21.506  0.00  0.00    +0.000 NA
ATOM     18  C   UNL     1       0.753   9.314  20.655  0.00  0.00    +0.000 A 
ATOM     19  N   UNL     1       0.786  10.715  20.690  0.00  0.00    +0.000 N 
ATOM     20  N   UNL     1       1.553  11.481  19.901  0.00  0.00    +0.000 NA
ATOM     21  H   UNL     1       1.448  14.705  20.294  0.00  0.00    +0.000 HD
ENDBRANCH   1  18
BRANCH   5  22
ATOM     22  N   UNL     1       3.672   5.410  19.899  0.00  0.00    +0.000 N 
ATOM     23  H   UNL     1       4.376   5.511  20.626  0.00  0.00    +0.000 HD
BRANCH  22  24
ATOM     24  S   UNL     1       3.646   3.944  19.085  0.00  0.00    +0.000 S 
ATOM     25  O   UNL     1       4.257   2.982  19.979  0.00  0.00    +0.000 OA
ATOM     26  O   UNL     1       2.319   3.726  18.546  0.00  0.00    +0.000 OA
BRANCH  24  27
ATOM     27  C   UNL     1       4.762   4.186  17.719  0.00  0.00    +0.000 A 
ATOM     28  C   UNL     1       4.308   4.030  16.406  0.00  0.00    +0.000 A 
ATOM     29  C   UNL     1       5.189   4.234  15.340  0.00  0.00    +0.000 A 
ATOM     30  C   UNL     1       6.520   4.603  15.580  0.00  0.00    +0.000 A 
ATOM     31  C   UNL     1       7.485   4.806  14.448  0.00  0.00    +0.000 C 
ATOM     32  C   UNL     1       6.953   4.789  16.901  0.00  0.00    +0.000 A 
ATOM     33  C   UNL     1       6.076   4.592  17.968  0.00  0.00    +0.000 A 
ENDBRANCH  24  27
ENDBRANCH  22  24
ENDBRANCH   5  22
TORSDOF 4
ENDMDL
MODEL 7
REMARK VINA RESULT:      -8.8      3.215      9.316
REMARK  Name = 
REMARK  7 active torsions:
REMARK  status: ('A' for Active; 'I' for Inactive)
REMARK    1  A    between atoms: C_1  and  C_2
REMARK    2  A    between atoms: C_8  and  C_9
REMARK    3  A    between atoms: C_12  and  C_13
REMARK    4  A    between atoms: C_17  and  N_18
REMARK    5  A    between atoms: N_18  and  S_19
REMARK    6  A    between atoms: S_19  and  C_22
REMARK    7  A    between atoms: C_25  and  C_26
REMARK                            x       y       z     vdW  Elec       q    Type
REMARK                         _______ _______ _______ _____ _____    ______ ____
ROOT
ATOM      1  C   UNL     1       2.042   7.673  19.246  0.00  0.00    +0.000 A 
ATOM      2  C   UNL     1       2.443   8.165  17.997  0.00  0.00    +0.000 A 
ATOM      3  C   UNL     1       2.099   9.459  17.600  0.00  0.00    +0.000 A 
ATOM      4  C   UNL     1       1.358  10.275  18.452  0.00  0.00    +0.000 A 
ATOM      5  C   UNL     1       0.995   9.809  19.716  0.00  0.00    +0.000 A 
ATOM      6  C   UNL     1       1.331   8.515  20.117  0.00  0.00    +0.000 A 
ENDROOT
BRANCH   1  18
ATOM      7  C   UNL     1       6.362   4.734  14.380  0.00  0.00    +0.000 C 
ATOM      8  C   UNL     1       5.590   5.272  15.556  0.00  0.00    +0.000 C 
ATOM      9  O   UNL     1       5.480   6.483  15.722  0.00  0.00    +0.000 OA
ATOM     10  N   UNL     1       5.082   4.274  16.355  0.00  0.00    +0.000 N 
ATOM     11  C   UNL     1       4.296   4.508  17.449  0.00  0.00    +0.000 A 
ATOM     12  N   UNL     1       4.079   3.488  18.338  0.00  0.00    +0.000 NA
ATOM     13  C   UNL     1       3.359   4.065  19.279  0.00  0.00    +0.000 A 
ATOM     14  C   UNL     1       2.824   3.629  20.521  0.00  0.00    +0.000 A 
ATOM     15  C   UNL     1       3.039   2.262  21.108  0.00  0.00    +0.000 C 
ATOM     16  C   UNL     1       2.096   4.544  21.201  0.00  0.00    +0.000 A 
ATOM     17  N   UNL     1       1.821   5.836  20.801  0.00  0.00    +0.000 NA
ATOM     18  C   UNL     1       2.338   6.265  19.674  0.00  0.00    +0.000 A 
ATOM     19  N   UNL     1       3.115   5.368  18.927  0.00  0.00    +0.000 N 
ATOM     20  N   UNL     1       3.690   5.652  17.750  0.00  0.00    +0.000 NA
ATOM     21  H   UNL     1       5.364   3.313  16.238  0.00  0.00    +0.000 HD
ENDBRANCH   1  18
BRANCH   5  22
ATOM     22  N   UNL     1       0.225  10.632  20.571  0.00  0.00    +0.000 N 
ATOM     23  H   UNL     1      -0.667  10.301  20.931  0.00  0.00    +0.000 HD
BRANCH  22  24
ATOM     24  S   UNL     1       0.512  12.279  20.689  0.00  0.00    +0.000 S 
ATOM     25  O   UNL     1       1.836  12.412  21.261  0.00  0.00    +0.000 OA
ATOM     26  O   UNL     1       0.176  12.909  19.428  0.00  0.00    +0.000 OA
BRANCH  24  27
ATOM     27  C   UNL     1      -0.656  12.837  21.912  0.00  0.00    +0.000 A 
ATOM     28  C   UNL     1      -1.709  12.007  22.306  0.00  0.00    +0.000 A 
ATOM     29  C   UNL     1      -2.613  12.450  23.277  0.00  0.00    +0.000 A 
ATOM     30  C   UNL     1      -2.464  13.716  23.861  0.00  0.00    +0.000 A 
ATOM     31  C   UNL     1      -3.438  14.216  24.888  0.00  0.00    +0.000 C 
ATOM     32  C   UNL     1      -1.384  14.524  23.479  0.00  0.00    +0.000 A 
ATOM     33  C   UNL     1      -0.475  14.085  22.516  0.00  0.00    +0.000 A 
ENDBRANCH  24  27
ENDBRANCH  22  24
ENDBRANCH   5  22
TORSDOF 4
ENDMDL
MODEL 8
REMARK VINA RESULT:      -8.8      3.173      9.083
REMARK  Name = 
REMARK  7 active torsions:
REMARK  status: ('A' for Active; 'I' for Inactive)
REMARK    1  A    between atoms: C_1  and  C_2
REMARK    2  A    between atoms: C_8  and  C_9
REMARK    3  A    between atoms: C_12  and  C_13
REMARK    4  A    between atoms: C_17  and  N_18
REMARK    5  A    between atoms: N_18  and  S_19
REMARK    6  A    between atoms: S_19  and  C_22
REMARK    7  A    between atoms: C_25  and  C_26
REMARK                            x       y       z     vdW  Elec       q    Type
REMARK                         _______ _______ _______ _____ _____    ______ ____
ROOT
ATOM      1  C   UNL     1       2.116   7.450  19.317  0.00  0.00    +0.000 A 
ATOM      2  C   UNL     1       2.192   7.892  17.990  0.00  0.00    +0.000 A 
ATOM      3  C   UNL     1       1.817   9.195  17.653  0.00  0.00    +0.000 A 
ATOM      4  C   UNL     1       1.374  10.070  18.642  0.00  0.00    +0.000 A 
ATOM      5  C   UNL     1       1.341   9.653  19.973  0.00  0.00    +0.000 A 
ATOM      6  C   UNL     1       1.708   8.350  20.315  0.00  0.00    +0.000 A 
ENDROOT
BRANCH   1  18
ATOM      7  C   UNL     1       6.462   4.754  14.334  0.00  0.00    +0.000 C 
ATOM      8  C   UNL     1       5.687   5.240  15.531  0.00  0.00    +0.000 C 
ATOM      9  O   UNL     1       5.552   6.442  15.735  0.00  0.00    +0.000 OA
ATOM     10  N   UNL     1       5.208   4.207  16.304  0.00  0.00    +0.000 N 
ATOM     11  C   UNL     1       4.426   4.391  17.410  0.00  0.00    +0.000 A 
ATOM     12  N   UNL     1       4.239   3.341  18.270  0.00  0.00    +0.000 NA
ATOM     13  C   UNL     1       3.513   3.873  19.233  0.00  0.00    +0.000 A 
ATOM     14  C   UNL     1       2.998   3.389  20.466  0.00  0.00    +0.000 A 
ATOM     15  C   UNL     1       3.248   2.010  21.009  0.00  0.00    +0.000 C 
ATOM     16  C   UNL     1       2.255   4.267  21.177  0.00  0.00    +0.000 A 
ATOM     17  N   UNL     1       1.948   5.564  20.818  0.00  0.00    +0.000 NA
ATOM     18  C   UNL     1       2.447   6.038  19.701  0.00  0.00    +0.000 A 
ATOM     19  N   UNL     1       3.237   5.181  18.922  0.00  0.00    +0.000 N 
ATOM     20  N   UNL     1       3.797   5.512  17.750  0.00  0.00    +0.000 NA
ATOM     21  H   UNL     1       5.510   3.257  16.156  0.00  0.00    +0.000 HD
ENDBRANCH   1  18
BRANCH   5  22
ATOM     22  N   UNL     1       0.870  10.536  20.972  0.00  0.00    +0.000 N 
ATOM     23  H   UNL     1       1.364  11.406  21.158  0.00  0.00    +0.000 HD
BRANCH  22  24
ATOM     24  S   UNL     1      -0.217  10.030  22.143  0.00  0.00    +0.000 S 
ATOM     25  O   UNL     1      -0.864   8.852  21.603  0.00  0.00    +0.000 OA
ATOM     26  O   UNL     1       0.455   9.991  23.426  0.00  0.00    +0.000 OA
BRANCH  24  27
ATOM     27  C   UNL     1      -1.433  11.329  22.198  0.00  0.00    +0.000 A 
ATOM     28  C   UNL     1      -2.120  11.597  23.385  0.00  0.00    +0.000 A 
ATOM     29  C   UNL     1      -3.064  12.628  23.420  0.00  0.00    +0.000 A 
ATOM     30  C   UNL     1      -3.319  13.398  22.277  0.00  0.00    +0.000 A 
ATOM     31  C   UNL     1      -4.345  14.494  22.291  0.00  0.00    +0.000 C 
ATOM     32  C   UNL     1      -2.598  13.139  21.102  0.00  0.00    +0.000 A 
ATOM     33  C   UNL     1      -1.650  12.115  21.063  0.00  0.00    +0.000 A 
ENDBRANCH  24  27
ENDBRANCH  22  24
ENDBRANCH   5  22
TORSDOF 4
ENDMDL
MODEL 9
REMARK VINA RESULT:      -8.8      1.729      2.101
REMARK  Name = 
REMARK  7 active torsions:
REMARK  status: ('A' for Active; 'I' for Inactive)
REMARK    1  A    between atoms: C_1  and  C_2
REMARK    2  A    between atoms: C_8  and  C_9
REMARK    3  A    between atoms: C_12  and  C_13
REMARK    4  A    between atoms: C_17  and  N_18
REMARK    5  A    between atoms: N_18  and  S_19
REMARK    6  A    between atoms: S_19  and  C_22
REMARK    7  A    between atoms: C_25  and  C_26
REMARK                            x       y       z     vdW  Elec       q    Type
REMARK                         _______ _______ _______ _____ _____    ______ ____
ROOT
ATOM      1  C   UNL     1       1.050   9.591  20.436  0.00  0.00    +0.000 A 
ATOM      2  C   UNL     1       0.559   8.834  21.508  0.00  0.00    +0.000 A 
ATOM      3  C   UNL     1       0.777   7.456  21.561  0.00  0.00    +0.000 A 
ATOM      4  C   UNL     1       1.497   6.824  20.550  0.00  0.00    +0.000 A 
ATOM      5  C   UNL     1       2.030   7.578  19.504  0.00  0.00    +0.000 A 
ATOM      6  C   UNL     1       1.811   8.955  19.442  0.00  0.00    +0.000 A 
ENDROOT
BRANCH   1  18
ATOM      7  C   UNL     1      -3.448  10.568  14.978  0.00  0.00    +0.000 C 
ATOM      8  C   UNL     1      -2.632  10.496  16.242  0.00  0.00    +0.000 C 
ATOM      9  O   UNL     1      -2.520   9.435  16.847  0.00  0.00    +0.000 OA
ATOM     10  N   UNL     1      -2.089  11.712  16.589  0.00  0.00    +0.000 N 
ATOM     11  C   UNL     1      -1.261  11.891  17.662  0.00  0.00    +0.000 A 
ATOM     12  N   UNL     1      -1.005  13.166  18.094  0.00  0.00    +0.000 NA
ATOM     13  C   UNL     1      -0.250  12.971  19.157  0.00  0.00    +0.000 A 
ATOM     14  C   UNL     1       0.335  13.832  20.125  0.00  0.00    +0.000 A 
ATOM     15  C   UNL     1       0.149  15.323  20.162  0.00  0.00    +0.000 C 
ATOM     16  C   UNL     1       1.086  13.226  21.072  0.00  0.00    +0.000 A 
ATOM     17  N   UNL     1       1.340  11.873  21.178  0.00  0.00    +0.000 NA
ATOM     18  C   UNL     1       0.776  11.062  20.315  0.00  0.00    +0.000 A 
ATOM     19  N   UNL     1      -0.026  11.627  19.313  0.00  0.00    +0.000 N 
ATOM     20  N   UNL     1      -0.648  10.933  18.350  0.00  0.00    +0.000 NA
ATOM     21  H   UNL     1      -2.371  12.564  16.129  0.00  0.00    +0.000 HD
ENDBRANCH   1  18
BRANCH   5  22
ATOM     22  N   UNL     1       2.742   6.932  18.467  0.00  0.00    +0.000 N 
ATOM     23  H   UNL     1       2.667   7.266  17.510  0.00  0.00    +0.000 HD
BRANCH  22  24
ATOM     24  S   UNL     1       3.378   5.394  18.671  0.00  0.00    +0.000 S 
ATOM     25  O   UNL     1       4.291   5.487  19.792  0.00  0.00    +0.000 OA
ATOM     26  O   UNL     1       2.296   4.431  18.667  0.00  0.00    +0.000 OA
BRANCH  24  27
ATOM     27  C   UNL     1       4.355   5.130  17.206  0.00  0.00    +0.000 A 
ATOM     28  C   UNL     1       4.751   6.217  16.422  0.00  0.00    +0.000 A 
ATOM     29  C   UNL     1       5.529   6.000  15.280  0.00  0.00    +0.000 A 
ATOM     30  C   UNL     1       5.921   4.702  14.925  0.00  0.00    +0.000 A 
ATOM     31  C   UNL     1       6.738   4.449  13.691  0.00  0.00    +0.000 C 
ATOM     32  C   UNL     1       5.545   3.624  15.740  0.00  0.00    +0.000 A 
ATOM     33  C   UNL     1       4.774   3.836  16.883  0.00  0.00    +0.000 A 
ENDBRANCH  24  27
ENDBRANCH  22  24
ENDBRANCH   5  22
TORSDOF 4
ENDMDL
