MODEL 1
REMARK VINA RESULT:      -7.1      0.000      0.000
REMARK  Name = 
REMARK  3 active torsions:
REMARK  status: ('A' for Active; 'I' for Inactive)
REMARK    1  A    between atoms: C_2  and  C_3
REMARK    2  A    between atoms: C_3  and  N_4
REMARK    3  A    between atoms: N_4  and  C_5
REMARK                            x       y       z     vdW  Elec       q    Type
REMARK                         _______ _______ _______ _____ _____    ______ ____
ROOT
ATOM      1  C   UNL     1       4.338   5.787  19.384  0.00  0.00    +0.000 C 
ENDROOT
BRANCH   1   3
ATOM      2  O   UNL     1       5.800   3.846  19.384  0.00  0.00    +0.000 OA
ATOM      3  C   UNL     1       5.468   4.894  18.833  0.00  0.00    +0.000 C 
ATOM      4  N   UNL     1       6.081   5.322  17.650  0.00  0.00    +0.000 N 
ATOM      5  C   UNL     1       5.691   6.490  16.859  0.00  0.00    +0.000 C 
ATOM      6  C   UNL     1       5.212   6.058  15.475  0.00  0.00    +0.000 C 
ATOM      7  C   UNL     1       6.256   5.189  14.773  0.00  0.00    +0.000 C 
ATOM      8  C   UNL     1       6.685   4.015  15.656  0.00  0.00    +0.000 C 
ATOM      9  C   UNL     1       7.124   4.497  17.039  0.00  0.00    +0.000 C 
ENDBRANCH   1   3
BRANCH   1  10
ATOM     10  N   UNL     1       3.294   5.054  20.137  0.00  0.00    +0.000 NA
ATOM     11  H   UNL     1       3.250   5.476  21.068  0.00  0.00    +0.000 HD
BRANCH  10  12
ATOM     12  C   UNL     1       1.941   5.122  19.556  0.00  0.00    +0.000 C 
ATOM     13  C   UNL     1       1.854   4.682  18.086  0.00  0.00    +0.000 C 
ATOM     14  C   UNL     1       2.129   3.195  17.889  0.00  0.00    +0.000 C 
ATOM     15  C   UNL     1       1.195   2.335  18.735  0.00  0.00    +0.000 C 
ATOM     16  C   UNL     1       1.200   2.741  20.205  0.00  0.00    +0.000 C 
ATOM     17  C   UNL     1       0.990   4.245  20.400  0.00  0.00    +0.000 C 
ENDBRANCH  10  12
ENDBRANCH   1  10
TORSDOF 3
ENDMDL
MODEL 2
REMARK VINA RESULT:      -7.0      1.773      5.582
REMARK  Name = 
REMARK  3 active torsions:
REMARK  status: ('A' for Active; 'I' for Inactive)
REMARK    1  A    between atoms: C_2  and  C_3
REMARK    2  A    between atoms: C_3  and  N_4
REMARK    3  A    between atoms: N_4  and  C_5
REMARK                            x       y       z     vdW  Elec       q    Type
REMARK                         _______ _______ _______ _____ _____    ______ ____
ROOT
ATOM      1  C   UNL     1       4.376   3.436  17.015  0.00  0.00    +0.000 C 
ENDROOT
BRANCH   1   3
ATOM      2  O   UNL     1       3.785   1.317  18.048  0.00  0.00    +0.000 OA
ATOM      3  C   UNL     1       3.477   2.488  17.836  0.00  0.00    +0.000 C 
ATOM      4  N   UNL     1       2.301   3.039  18.358  0.00  0.00    +0.000 N 
ATOM      5  C   UNL     1       1.896   4.442  18.257  0.00  0.00    +0.000 C 
ATOM      6  C   UNL     1       1.823   5.074  19.645  0.00  0.00    +0.000 C 
ATOM      7  C   UNL     1       0.921   4.263  20.577  0.00  0.00    +0.000 C 
ATOM      8  C   UNL     1       1.337   2.790  20.606  0.00  0.00    +0.000 C 
ATOM      9  C   UNL     1       1.427   2.214  19.193  0.00  0.00    +0.000 C 
ENDBRANCH   1   3
BRANCH   1  10
ATOM     10  N   UNL     1       5.597   3.883  17.723  0.00  0.00    +0.000 NA
ATOM     11  H   UNL     1       6.285   4.118  17.004  0.00  0.00    +0.000 HD
BRANCH  10  12
ATOM     12  C   UNL     1       5.425   5.072  18.576  0.00  0.00    +0.000 C 
ATOM     13  C   UNL     1       6.672   5.465  19.385  0.00  0.00    +0.000 C 
ATOM     14  C   UNL     1       7.821   5.957  18.511  0.00  0.00    +0.000 C 
ATOM     15  C   UNL     1       7.394   7.128  17.630  0.00  0.00    +0.000 C 
ATOM     16  C   UNL     1       6.136   6.823  16.824  0.00  0.00    +0.000 C 
ATOM     17  C   UNL     1       5.004   6.266  17.691  0.00  0.00    +0.000 C 
ENDBRANCH  10  12
ENDBRANCH   1  10
TORSDOF 3
ENDMDL
MODEL 3
REMARK VINA RESULT:      -6.9      1.660      5.766
REMARK  Name = 
REMARK  3 active torsions:
REMARK  status: ('A' for Active; 'I' for Inactive)
REMARK    1  A    between atoms: C_2  and  C_3
REMARK    2  A    between atoms: C_3  and  N_4
REMARK    3  A    between atoms: N_4  and  C_5
REMARK                            x       y       z     vdW  Elec       q    Type
REMARK                         _______ _______ _______ _____ _____    ______ ____
ROOT
ATOM      1  C   UNL     1       4.326   3.377  17.001  0.00  0.00    +0.000 C 
ENDROOT
BRANCH   1   3
ATOM      2  O   UNL     1       3.632   1.302  18.058  0.00  0.00    +0.000 OA
ATOM      3  C   UNL     1       3.392   2.490  17.849  0.00  0.00    +0.000 C 
ATOM      4  N   UNL     1       2.267   3.114  18.399  0.00  0.00    +0.000 N 
ATOM      5  C   UNL     1       1.947   4.539  18.302  0.00  0.00    +0.000 C 
ATOM      6  C   UNL     1       1.950   5.179  19.689  0.00  0.00    +0.000 C 
ATOM      7  C   UNL     1       1.025   4.428  20.648  0.00  0.00    +0.000 C 
ATOM      8  C   UNL     1       1.349   2.933  20.673  0.00  0.00    +0.000 C 
ATOM      9  C   UNL     1       1.366   2.348  19.260  0.00  0.00    +0.000 C 
ENDBRANCH   1   3
BRANCH   1  10
ATOM     10  N   UNL     1       5.484   3.927  17.742  0.00  0.00    +0.000 NA
ATOM     11  H   UNL     1       5.826   3.180  18.351  0.00  0.00    +0.000 HD
BRANCH  10  12
ATOM     12  C   UNL     1       6.612   4.366  16.902  0.00  0.00    +0.000 C 
ATOM     13  C   UNL     1       6.331   5.618  16.056  0.00  0.00    +0.000 C 
ATOM     14  C   UNL     1       6.147   6.879  16.896  0.00  0.00    +0.000 C 
ATOM     15  C   UNL     1       7.353   7.132  17.796  0.00  0.00    +0.000 C 
ATOM     16  C   UNL     1       7.716   5.915  18.640  0.00  0.00    +0.000 C 
ATOM     17  C   UNL     1       7.834   4.636  17.807  0.00  0.00    +0.000 C 
ENDBRANCH  10  12
ENDBRANCH   1  10
TORSDOF 3
ENDMDL
MODEL 4
REMARK VINA RESULT:      -6.5      1.497      2.572
REMARK  Name = 
REMARK  3 active torsions:
REMARK  status: ('A' for Active; 'I' for Inactive)
REMARK    1  A    between atoms: C_2  and  C_3
REMARK    2  A    between atoms: C_3  and  N_4
REMARK    3  A    between atoms: N_4  and  C_5
REMARK                            x       y       z     vdW  Elec       q    Type
REMARK                         _______ _______ _______ _____ _____    ______ ____
ROOT
ATOM      1  C   UNL     1       3.992   3.333  17.602  0.00  0.00    +0.000 C 
ENDROOT
BRANCH   1   3
ATOM      2  O   UNL     1       5.396   3.080  19.569  0.00  0.00    +0.000 OA
ATOM      3  C   UNL     1       5.006   3.812  18.660  0.00  0.00    +0.000 C 
ATOM      4  N   UNL     1       5.489   5.117  18.518  0.00  0.00    +0.000 N 
ATOM      5  C   UNL     1       5.175   6.029  17.417  0.00  0.00    +0.000 C 
ATOM      6  C   UNL     1       6.439   6.363  16.627  0.00  0.00    +0.000 C 
ATOM      7  C   UNL     1       7.540   6.899  17.544  0.00  0.00    +0.000 C 
ATOM      8  C   UNL     1       7.794   5.949  18.717  0.00  0.00    +0.000 C 
ATOM      9  C   UNL     1       6.495   5.620  19.454  0.00  0.00    +0.000 C 
ENDBRANCH   1   3
BRANCH   1  10
ATOM     10  N   UNL     1       2.966   2.399  18.119  0.00  0.00    +0.000 NA
ATOM     11  H   UNL     1       3.189   2.231  19.103  0.00  0.00    +0.000 HD
BRANCH  10  12
ATOM     12  C   UNL     1       1.580   2.897  18.058  0.00  0.00    +0.000 C 
ATOM     13  C   UNL     1       0.681   2.431  19.215  0.00  0.00    +0.000 C 
ATOM     14  C   UNL     1       1.091   3.014  20.563  0.00  0.00    +0.000 C 
ATOM     15  C   UNL     1       1.125   4.539  20.526  0.00  0.00    +0.000 C 
ATOM     16  C   UNL     1       1.970   5.076  19.375  0.00  0.00    +0.000 C 
ATOM     17  C   UNL     1       1.605   4.441  18.032  0.00  0.00    +0.000 C 
ENDBRANCH  10  12
ENDBRANCH   1  10
TORSDOF 3
ENDMDL
MODEL 5
REMARK VINA RESULT:      -6.5      1.738      5.711
REMARK  Name = 
REMARK  3 active torsions:
REMARK  status: ('A' for Active; 'I' for Inactive)
REMARK    1  A    between atoms: C_2  and  C_3
REMARK    2  A    between atoms: C_3  and  N_4
REMARK    3  A    between atoms: N_4  and  C_5
REMARK                            x       y       z     vdW  Elec       q    Type
REMARK                         _______ _______ _______ _____ _____    ______ ____
ROOT
ATOM      1  C   UNL     1       2.795   6.006  17.984  0.00  0.00    +0.000 C 
ENDROOT
BRANCH   1   3
ATOM      2  O   UNL     1       2.042   3.921  16.991  0.00  0.00    +0.000 OA
ATOM      3  C   UNL     1       2.081   4.639  17.988  0.00  0.00    +0.000 C 
ATOM      4  N   UNL     1       1.503   4.239  19.198  0.00  0.00    +0.000 N 
ATOM      5  C   UNL     1       1.586   4.966  20.466  0.00  0.00    +0.000 C 
ATOM      6  C   UNL     1       2.335   4.134  21.506  0.00  0.00    +0.000 C 
ATOM      7  C   UNL     1       1.712   2.745  21.658  0.00  0.00    +0.000 C 
ATOM      8  C   UNL     1       1.584   2.044  20.304  0.00  0.00    +0.000 C 
ATOM      9  C   UNL     1       0.858   2.929  19.290  0.00  0.00    +0.000 C 
ENDBRANCH   1   3
BRANCH   1  10
ATOM     10  N   UNL     1       4.256   5.932  18.214  0.00  0.00    +0.000 NA
ATOM     11  H   UNL     1       4.487   4.942  18.327  0.00  0.00    +0.000 HD
BRANCH  10  12
ATOM     12  C   UNL     1       5.088   6.459  17.119  0.00  0.00    +0.000 C 
ATOM     13  C   UNL     1       6.534   6.798  17.519  0.00  0.00    +0.000 C 
ATOM     14  C   UNL     1       7.358   5.566  17.881  0.00  0.00    +0.000 C 
ATOM     15  C   UNL     1       7.368   4.546  16.746  0.00  0.00    +0.000 C 
ATOM     16  C   UNL     1       5.964   4.190  16.269  0.00  0.00    +0.000 C 
ATOM     17  C   UNL     1       5.115   5.427  15.970  0.00  0.00    +0.000 C 
ENDBRANCH  10  12
ENDBRANCH   1  10
TORSDOF 3
ENDMDL
MODEL 6
REMARK VINA RESULT:      -6.4      1.025      1.434
REMARK  Name = 
REMARK  3 active torsions:
REMARK  status: ('A' for Active; 'I' for Inactive)
REMARK    1  A    between atoms: C_2  and  C_3
REMARK    2  A    between atoms: C_3  and  N_4
REMARK    3  A    between atoms: N_4  and  C_5
REMARK                            x       y       z     vdW  Elec       q    Type
REMARK                         _______ _______ _______ _____ _____    ______ ____
ROOT
ATOM      1  C   UNL     1       3.792   5.706  18.967  0.00  0.00    +0.000 C 
ENDROOT
BRANCH   1   3
ATOM      2  O   UNL     1       5.987   5.024  19.754  0.00  0.00    +0.000 OA
ATOM      3  C   UNL     1       5.312   5.483  18.834  0.00  0.00    +0.000 C 
ATOM      4  N   UNL     1       5.884   5.801  17.598  0.00  0.00    +0.000 N 
ATOM      5  C   UNL     1       5.156   6.249  16.409  0.00  0.00    +0.000 C 
ATOM      6  C   UNL     1       5.308   5.231  15.280  0.00  0.00    +0.000 C 
ATOM      7  C   UNL     1       6.780   4.933  14.995  0.00  0.00    +0.000 C 
ATOM      8  C   UNL     1       7.521   4.531  16.273  0.00  0.00    +0.000 C 
ATOM      9  C   UNL     1       7.312   5.564  17.381  0.00  0.00    +0.000 C 
ENDBRANCH   1   3
BRANCH   1  10
ATOM     10  N   UNL     1       2.968   4.536  18.587  0.00  0.00    +0.000 NA
ATOM     11  H   UNL     1       3.445   3.708  18.952  0.00  0.00    +0.000 HD
BRANCH  10  12
ATOM     12  C   UNL     1       1.598   4.533  19.130  0.00  0.00    +0.000 C 
ATOM     13  C   UNL     1       0.879   3.177  19.043  0.00  0.00    +0.000 C 
ATOM     14  C   UNL     1       1.500   2.112  19.942  0.00  0.00    +0.000 C 
ATOM     15  C   UNL     1       1.554   2.569  21.396  0.00  0.00    +0.000 C 
ATOM     16  C   UNL     1       2.223   3.930  21.556  0.00  0.00    +0.000 C 
ATOM     17  C   UNL     1       1.645   4.983  20.607  0.00  0.00    +0.000 C 
ENDBRANCH  10  12
ENDBRANCH   1  10
TORSDOF 3
ENDMDL
MODEL 7
REMARK VINA RESULT:      -6.4      1.802      5.930
REMARK  Name = 
REMARK  3 active torsions:
REMARK  status: ('A' for Active; 'I' for Inactive)
REMARK    1  A    between atoms: C_2  and  C_3
REMARK    2  A    between atoms: C_3  and  N_4
REMARK    3  A    between atoms: N_4  and  C_5
REMARK                            x       y       z     vdW  Elec       q    Type
REMARK                         _______ _______ _______ _____ _____    ______ ____
ROOT
ATOM      1  C   UNL     1       3.696   5.218  17.594  0.00  0.00    +0.000 C 
ENDROOT
BRANCH   1   3
ATOM      2  O   UNL     1       2.455   3.290  16.790  0.00  0.00    +0.000 OA
ATOM      3  C   UNL     1       2.613   4.124  17.680  0.00  0.00    +0.000 C 
ATOM      4  N   UNL     1       1.833   4.106  18.842  0.00  0.00    +0.000 N 
ATOM      5  C   UNL     1       2.011   4.980  20.003  0.00  0.00    +0.000 C 
ATOM      6  C   UNL     1       2.380   4.155  21.235  0.00  0.00    +0.000 C 
ATOM      7  C   UNL     1       1.362   3.041  21.482  0.00  0.00    +0.000 C 
ATOM      8  C   UNL     1       1.157   2.190  20.227  0.00  0.00    +0.000 C 
ATOM      9  C   UNL     1       0.823   3.062  19.017  0.00  0.00    +0.000 C 
ENDBRANCH   1   3
BRANCH   1  10
ATOM     10  N   UNL     1       5.013   4.815  18.140  0.00  0.00    +0.000 NA
ATOM     11  H   UNL     1       4.928   3.837  18.426  0.00  0.00    +0.000 HD
BRANCH  10  12
ATOM     12  C   UNL     1       6.136   4.901  17.188  0.00  0.00    +0.000 C 
ATOM     13  C   UNL     1       6.211   6.223  16.406  0.00  0.00    +0.000 C 
ATOM     14  C   UNL     1       6.546   7.422  17.288  0.00  0.00    +0.000 C 
ATOM     15  C   UNL     1       7.848   7.207  18.053  0.00  0.00    +0.000 C 
ATOM     16  C   UNL     1       7.861   5.892  18.826  0.00  0.00    +0.000 C 
ATOM     17  C   UNL     1       7.460   4.698  17.957  0.00  0.00    +0.000 C 
ENDBRANCH  10  12
ENDBRANCH   1  10
TORSDOF 3
ENDMDL
MODEL 8
REMARK VINA RESULT:      -6.4      1.741      5.588
REMARK  Name = 
REMARK  3 active torsions:
REMARK  status: ('A' for Active; 'I' for Inactive)
REMARK    1  A    between atoms: C_2  and  C_3
REMARK    2  A    between atoms: C_3  and  N_4
REMARK    3  A    between atoms: N_4  and  C_5
REMARK                            x       y       z     vdW  Elec       q    Type
REMARK                         _______ _______ _______ _____ _____    ______ ____
ROOT
ATOM      1  C   UNL     1       3.617   3.254  16.829  0.00  0.00    +0.000 C 
ENDROOT
BRANCH   1   3
ATOM      2  O   UNL     1       3.456   1.197  18.112  0.00  0.00    +0.000 OA
ATOM      3  C   UNL     1       3.118   2.373  17.993  0.00  0.00    +0.000 C 
ATOM      4  N   UNL     1       2.282   2.991  18.930  0.00  0.00    +0.000 N 
ATOM      5  C   UNL     1       1.909   4.406  18.941  0.00  0.00    +0.000 C 
ATOM      6  C   UNL     1       2.439   5.085  20.203  0.00  0.00    +0.000 C 
ATOM      7  C   UNL     1       1.988   4.343  21.462  0.00  0.00    +0.000 C 
ATOM      8  C   UNL     1       2.338   2.855  21.384  0.00  0.00    +0.000 C 
ATOM      9  C   UNL     1       1.815   2.232  20.090  0.00  0.00    +0.000 C 
ENDBRANCH   1   3
BRANCH   1  10
ATOM     10  N   UNL     1       5.085   3.448  16.797  0.00  0.00    +0.000 NA
ATOM     11  H   UNL     1       5.434   2.921  15.993  0.00  0.00    +0.000 HD
BRANCH  10  12
ATOM     12  C   UNL     1       5.527   4.844  16.637  0.00  0.00    +0.000 C 
ATOM     13  C   UNL     1       5.135   5.776  17.795  0.00  0.00    +0.000 C 
ATOM     14  C   UNL     1       5.850   5.441  19.100  0.00  0.00    +0.000 C 
ATOM     15  C   UNL     1       7.366   5.453  18.927  0.00  0.00    +0.000 C 
ATOM     16  C   UNL     1       7.827   4.578  17.766  0.00  0.00    +0.000 C 
ATOM     17  C   UNL     1       7.062   4.867  16.473  0.00  0.00    +0.000 C 
ENDBRANCH  10  12
ENDBRANCH   1  10
TORSDOF 3
ENDMDL
MODEL 9
REMARK VINA RESULT:      -6.4      1.023      1.689
REMARK  Name = 
REMARK  3 active torsions:
REMARK  status: ('A' for Active; 'I' for Inactive)
REMARK    1  A    between atoms: C_2  and  C_3
REMARK    2  A    between atoms: C_3  and  N_4
REMARK    3  A    between atoms: N_4  and  C_5
REMARK                            x       y       z     vdW  Elec       q    Type
REMARK                         _______ _______ _______ _____ _____    ______ ____
ROOT
ATOM      1  C   UNL     1       4.051   6.001  19.202  0.00  0.00    +0.000 C 
ENDROOT
BRANCH   1   3
ATOM      2  O   UNL     1       6.279   5.230  19.788  0.00  0.00    +0.000 OA
ATOM      3  C   UNL     1       5.527   5.659  18.915  0.00  0.00    +0.000 C 
ATOM      4  N   UNL     1       5.964   5.832  17.597  0.00  0.00    +0.000 N 
ATOM      5  C   UNL     1       5.126   6.231  16.464  0.00  0.00    +0.000 C 
ATOM      6  C   UNL     1       5.076   5.114  15.423  0.00  0.00    +0.000 C 
ATOM      7  C   UNL     1       6.482   4.688  14.998  0.00  0.00    +0.000 C 
ATOM      8  C   UNL     1       7.346   4.341  16.213  0.00  0.00    +0.000 C 
ATOM      9  C   UNL     1       7.337   5.475  17.239  0.00  0.00    +0.000 C 
ENDBRANCH   1   3
BRANCH   1  10
ATOM     10  N   UNL     1       3.383   5.077  20.146  0.00  0.00    +0.000 NA
ATOM     11  H   UNL     1       2.396   5.343  20.171  0.00  0.00    +0.000 HD
BRANCH  10  12
ATOM     12  C   UNL     1       3.447   3.652  19.776  0.00  0.00    +0.000 C 
ATOM     13  C   UNL     1       2.692   2.709  20.727  0.00  0.00    +0.000 C 
ATOM     14  C   UNL     1       1.180   2.904  20.687  0.00  0.00    +0.000 C 
ATOM     15  C   UNL     1       0.632   2.746  19.271  0.00  0.00    +0.000 C 
ATOM     16  C   UNL     1       1.362   3.626  18.262  0.00  0.00    +0.000 C 
ATOM     17  C   UNL     1       2.883   3.480  18.348  0.00  0.00    +0.000 C 
ENDBRANCH  10  12
ENDBRANCH   1  10
TORSDOF 3
ENDMDL
