MODEL 1
REMARK VINA RESULT:      -7.0      0.000      0.000
REMARK  Name = 
REMARK  6 active torsions:
REMARK  status: ('A' for Active; 'I' for Inactive)
REMARK    1  A    between atoms: C_1  and  O_2
REMARK    2  A    between atoms: O_2  and  C_3
REMARK    3  A    between atoms: N_7  and  C_8
REMARK    4  A    between atoms: C_8  and  C_9
REMARK    5  A    between atoms: C_8  and  C_10
REMARK    6  A    between atoms: N_12  and  C_13
REMARK                            x       y       z     vdW  Elec       q    Type
REMARK                         _______ _______ _______ _____ _____    ______ ____
ROOT
ATOM      1  C   UNL     1       6.826   6.043  17.846  0.00  0.00    +0.000 C 
ATOM      2  C   UNL     1       7.848   6.112  18.999  0.00  0.00    +0.000 C 
ENDROOT
BRANCH   1   7
ATOM      3  C   UNL     1       3.122   6.414  18.676  0.00  0.00    +0.000 A 
ATOM      4  C   UNL     1       2.986   5.338  19.479  0.00  0.00    +0.000 A 
ATOM      5  C   UNL     1       4.001   4.327  19.558  0.00  0.00    +0.000 A 
ATOM      6  C   UNL     1       5.223   4.593  19.078  0.00  0.00    +0.000 A 
ATOM      7  N   UNL     1       5.468   5.746  18.341  0.00  0.00    +0.000 N 
ATOM      8  C   UNL     1       4.386   6.483  17.841  0.00  0.00    +0.000 A 
ATOM      9  O   UNL     1       4.458   7.133  16.801  0.00  0.00    +0.000 OA
BRANCH   3  11
ATOM     10  C   UNL     1       1.900   7.900  20.053  0.00  0.00    +0.000 C 
ATOM     11  O   UNL     1       2.177   7.417  18.749  0.00  0.00    +0.000 OA
ENDBRANCH   3  11
ENDBRANCH   1   7
BRANCH   1  12
ATOM     12  C   UNL     1       7.226   5.069  16.705  0.00  0.00    +0.000 C 
ATOM     13  O   UNL     1       8.013   4.149  16.872  0.00  0.00    +0.000 OA
ATOM     14  N   UNL     1       6.644   5.329  15.469  0.00  0.00    +0.000 N 
ATOM     15  H   UNL     1       6.185   6.228  15.322  0.00  0.00    +0.000 HD
BRANCH  14  16
ATOM     16  C   UNL     1       6.895   4.468  14.331  0.00  0.00    +0.000 C 
ATOM     17  C   UNL     1       5.624   3.926  13.681  0.00  0.00    +0.000 C 
ATOM     18  C   UNL     1       6.120   3.408  12.334  0.00  0.00    +0.000 C 
ATOM     19  C   UNL     1       7.294   4.311  11.952  0.00  0.00    +0.000 C 
ATOM     20  C   UNL     1       7.575   5.188  13.171  0.00  0.00    +0.000 C 
ENDBRANCH  14  16
ENDBRANCH   1  12
TORSDOF 4
ENDMDL
MODEL 2
REMARK VINA RESULT:      -6.9      1.693      2.309
REMARK  Name = 
REMARK  6 active torsions:
REMARK  status: ('A' for Active; 'I' for Inactive)
REMARK    1  A    between atoms: C_1  and  O_2
REMARK    2  A    between atoms: O_2  and  C_3
REMARK    3  A    between atoms: N_7  and  C_8
REMARK    4  A    between atoms: C_8  and  C_9
REMARK    5  A    between atoms: C_8  and  C_10
REMARK    6  A    between atoms: N_12  and  C_13
REMARK                            x       y       z     vdW  Elec       q    Type
REMARK                         _______ _______ _______ _____ _____    ______ ____
ROOT
ATOM      1  C   UNL     1       6.439   5.834  17.821  0.00  0.00    +0.000 C 
ATOM      2  C   UNL     1       7.243   5.715  19.131  0.00  0.00    +0.000 C 
ENDROOT
BRANCH   1   7
ATOM      3  C   UNL     1       3.145   4.004  18.411  0.00  0.00    +0.000 A 
ATOM      4  C   UNL     1       2.300   5.034  18.197  0.00  0.00    +0.000 A 
ATOM      5  C   UNL     1       2.770   6.387  18.123  0.00  0.00    +0.000 A 
ATOM      6  C   UNL     1       4.080   6.613  17.954  0.00  0.00    +0.000 A 
ATOM      7  N   UNL     1       5.003   5.577  18.041  0.00  0.00    +0.000 N 
ATOM      8  C   UNL     1       4.609   4.353  18.599  0.00  0.00    +0.000 A 
ATOM      9  O   UNL     1       5.392   3.622  19.198  0.00  0.00    +0.000 OA
BRANCH   3  11
ATOM     10  C   UNL     1       1.298   2.558  18.721  0.00  0.00    +0.000 C 
ATOM     11  O   UNL     1       2.652   2.717  18.332  0.00  0.00    +0.000 OA
ENDBRANCH   3  11
ENDBRANCH   1   7
BRANCH   1  12
ATOM     12  C   UNL     1       6.988   4.958  16.661  0.00  0.00    +0.000 C 
ATOM     13  O   UNL     1       7.954   4.222  16.794  0.00  0.00    +0.000 OA
ATOM     14  N   UNL     1       6.316   5.086  15.450  0.00  0.00    +0.000 N 
ATOM     15  H   UNL     1       5.675   5.870  15.325  0.00  0.00    +0.000 HD
BRANCH  14  16
ATOM     16  C   UNL     1       6.695   4.291  14.300  0.00  0.00    +0.000 C 
ATOM     17  C   UNL     1       5.505   3.754  13.508  0.00  0.00    +0.000 C 
ATOM     18  C   UNL     1       6.139   3.317  12.190  0.00  0.00    +0.000 C 
ATOM     19  C   UNL     1       7.318   4.265  11.965  0.00  0.00    +0.000 C 
ATOM     20  C   UNL     1       7.459   5.085  13.246  0.00  0.00    +0.000 C 
ENDBRANCH  14  16
ENDBRANCH   1  12
TORSDOF 4
ENDMDL
MODEL 3
REMARK VINA RESULT:      -6.7      2.368      5.678
REMARK  Name = 
REMARK  6 active torsions:
REMARK  status: ('A' for Active; 'I' for Inactive)
REMARK    1  A    between atoms: C_1  and  O_2
REMARK    2  A    between atoms: O_2  and  C_3
REMARK    3  A    between atoms: N_7  and  C_8
REMARK    4  A    between atoms: C_8  and  C_9
REMARK    5  A    between atoms: C_8  and  C_10
REMARK    6  A    between atoms: N_12  and  C_13
REMARK                            x       y       z     vdW  Elec       q    Type
REMARK                         _______ _______ _______ _____ _____    ______ ____
ROOT
ATOM      1  C   UNL     1       5.229   4.579  16.357  0.00  0.00    +0.000 C 
ATOM      2  C   UNL     1       5.959   3.827  15.226  0.00  0.00    +0.000 C 
ENDROOT
BRANCH   1   7
ATOM      3  C   UNL     1       7.265   7.516  17.687  0.00  0.00    +0.000 A 
ATOM      4  C   UNL     1       8.094   6.834  18.504  0.00  0.00    +0.000 A 
ATOM      5  C   UNL     1       7.848   5.464  18.850  0.00  0.00    +0.000 A 
ATOM      6  C   UNL     1       6.972   4.757  18.123  0.00  0.00    +0.000 A 
ATOM      7  N   UNL     1       6.166   5.374  17.173  0.00  0.00    +0.000 N 
ATOM      8  C   UNL     1       6.047   6.770  17.178  0.00  0.00    +0.000 A 
ATOM      9  O   UNL     1       5.029   7.344  16.801  0.00  0.00    +0.000 OA
BRANCH   3  11
ATOM     10  C   UNL     1       8.461   9.496  18.185  0.00  0.00    +0.000 C 
ATOM     11  O   UNL     1       7.631   8.784  17.283  0.00  0.00    +0.000 OA
ENDBRANCH   3  11
ENDBRANCH   1   7
BRANCH   1  12
ATOM     12  C   UNL     1       4.346   3.668  17.253  0.00  0.00    +0.000 C 
ATOM     13  O   UNL     1       4.301   2.455  17.115  0.00  0.00    +0.000 OA
ATOM     14  N   UNL     1       3.590   4.332  18.213  0.00  0.00    +0.000 N 
ATOM     15  H   UNL     1       3.484   5.344  18.141  0.00  0.00    +0.000 HD
BRANCH  14  16
ATOM     16  C   UNL     1       2.761   3.598  19.147  0.00  0.00    +0.000 C 
ATOM     17  C   UNL     1       2.601   4.288  20.500  0.00  0.00    +0.000 C 
ATOM     18  C   UNL     1       1.418   3.555  21.123  0.00  0.00    +0.000 C 
ATOM     19  C   UNL     1       0.529   3.136  19.951  0.00  0.00    +0.000 C 
ATOM     20  C   UNL     1       1.316   3.453  18.681  0.00  0.00    +0.000 C 
ENDBRANCH  14  16
ENDBRANCH   1  12
TORSDOF 4
ENDMDL
MODEL 4
REMARK VINA RESULT:      -6.3      2.495      5.578
REMARK  Name = 
REMARK  6 active torsions:
REMARK  status: ('A' for Active; 'I' for Inactive)
REMARK    1  A    between atoms: C_1  and  O_2
REMARK    2  A    between atoms: O_2  and  C_3
REMARK    3  A    between atoms: N_7  and  C_8
REMARK    4  A    between atoms: C_8  and  C_9
REMARK    5  A    between atoms: C_8  and  C_10
REMARK    6  A    between atoms: N_12  and  C_13
REMARK                            x       y       z     vdW  Elec       q    Type
REMARK                         _______ _______ _______ _____ _____    ______ ____
ROOT
ATOM      1  C   UNL     1       5.142   4.665  16.464  0.00  0.00    +0.000 C 
ATOM      2  C   UNL     1       5.858   3.656  15.544  0.00  0.00    +0.000 C 
ENDROOT
BRANCH   1   7
ATOM      3  C   UNL     1       7.501   7.408  17.671  0.00  0.00    +0.000 A 
ATOM      4  C   UNL     1       8.086   6.740  18.686  0.00  0.00    +0.000 A 
ATOM      5  C   UNL     1       7.556   5.499  19.173  0.00  0.00    +0.000 A 
ATOM      6  C   UNL     1       6.661   4.837  18.427  0.00  0.00    +0.000 A 
ATOM      7  N   UNL     1       6.102   5.417  17.295  0.00  0.00    +0.000 N 
ATOM      8  C   UNL     1       6.239   6.798  17.094  0.00  0.00    +0.000 A 
ATOM      9  O   UNL     1       5.395   7.461  16.497  0.00  0.00    +0.000 OA
BRANCH   3  11
ATOM     10  C   UNL     1       8.384   9.564  18.085  0.00  0.00    +0.000 C 
ATOM     11  O   UNL     1       8.137   8.520  17.158  0.00  0.00    +0.000 OA
ENDBRANCH   3  11
ENDBRANCH   1   7
BRANCH   1  12
ATOM     12  C   UNL     1       4.023   4.037  17.339  0.00  0.00    +0.000 C 
ATOM     13  O   UNL     1       3.955   2.837  17.558  0.00  0.00    +0.000 OA
ATOM     14  N   UNL     1       3.086   4.936  17.840  0.00  0.00    +0.000 N 
ATOM     15  H   UNL     1       3.050   5.876  17.447  0.00  0.00    +0.000 HD
BRANCH  14  16
ATOM     16  C   UNL     1       2.017   4.489  18.710  0.00  0.00    +0.000 C 
ATOM     17  C   UNL     1       1.375   3.176  18.267  0.00  0.00    +0.000 C 
ATOM     18  C   UNL     1       0.599   2.738  19.505  0.00  0.00    +0.000 C 
ATOM     19  C   UNL     1       1.395   3.266  20.699  0.00  0.00    +0.000 C 
ATOM     20  C   UNL     1       2.489   4.162  20.122  0.00  0.00    +0.000 C 
ENDBRANCH  14  16
ENDBRANCH   1  12
TORSDOF 4
ENDMDL
MODEL 5
REMARK VINA RESULT:      -6.3      2.123      6.448
REMARK  Name = 
REMARK  6 active torsions:
REMARK  status: ('A' for Active; 'I' for Inactive)
REMARK    1  A    between atoms: C_1  and  O_2
REMARK    2  A    between atoms: O_2  and  C_3
REMARK    3  A    between atoms: N_7  and  C_8
REMARK    4  A    between atoms: C_8  and  C_9
REMARK    5  A    between atoms: C_8  and  C_10
REMARK    6  A    between atoms: N_12  and  C_13
REMARK                            x       y       z     vdW  Elec       q    Type
REMARK                         _______ _______ _______ _____ _____    ______ ____
ROOT
ATOM      1  C   UNL     1       5.247   5.889  17.645  0.00  0.00    +0.000 C 
ATOM      2  C   UNL     1       4.146   6.920  17.326  0.00  0.00    +0.000 C 
ENDROOT
BRANCH   1   7
ATOM      3  C   UNL     1       7.218   5.073  14.484  0.00  0.00    +0.000 A 
ATOM      4  C   UNL     1       6.440   4.077  14.011  0.00  0.00    +0.000 A 
ATOM      5  C   UNL     1       5.424   3.469  14.821  0.00  0.00    +0.000 A 
ATOM      6  C   UNL     1       5.029   4.088  15.942  0.00  0.00    +0.000 A 
ATOM      7  N   UNL     1       5.712   5.197  16.428  0.00  0.00    +0.000 N 
ATOM      8  C   UNL     1       6.985   5.493  15.922  0.00  0.00    +0.000 A 
ATOM      9  O   UNL     1       7.847   6.049  16.598  0.00  0.00    +0.000 OA
BRANCH   3  11
ATOM     10  C   UNL     1       7.896   5.403  12.241  0.00  0.00    +0.000 C 
ATOM     11  O   UNL     1       8.080   5.709  13.613  0.00  0.00    +0.000 OA
ENDBRANCH   3  11
ENDBRANCH   1   7
BRANCH   1  12
ATOM     12  C   UNL     1       4.854   4.868  18.748  0.00  0.00    +0.000 C 
ATOM     13  O   UNL     1       5.677   4.354  19.491  0.00  0.00    +0.000 OA
ATOM     14  N   UNL     1       3.500   4.559  18.817  0.00  0.00    +0.000 N 
ATOM     15  H   UNL     1       2.895   4.828  18.041  0.00  0.00    +0.000 HD
BRANCH  14  16
ATOM     16  C   UNL     1       2.992   3.657  19.832  0.00  0.00    +0.000 C 
ATOM     17  C   UNL     1       2.487   4.368  21.085  0.00  0.00    +0.000 C 
ATOM     18  C   UNL     1       1.675   3.286  21.790  0.00  0.00    +0.000 C 
ATOM     19  C   UNL     1       1.105   2.407  20.676  0.00  0.00    +0.000 C 
ATOM     20  C   UNL     1       1.763   2.876  19.380  0.00  0.00    +0.000 C 
ENDBRANCH  14  16
ENDBRANCH   1  12
TORSDOF 4
ENDMDL
MODEL 6
REMARK VINA RESULT:      -6.3      1.634      2.008
REMARK  Name = 
REMARK  6 active torsions:
REMARK  status: ('A' for Active; 'I' for Inactive)
REMARK    1  A    between atoms: C_1  and  O_2
REMARK    2  A    between atoms: O_2  and  C_3
REMARK    3  A    between atoms: N_7  and  C_8
REMARK    4  A    between atoms: C_8  and  C_9
REMARK    5  A    between atoms: C_8  and  C_10
REMARK    6  A    between atoms: N_12  and  C_13
REMARK                            x       y       z     vdW  Elec       q    Type
REMARK                         _______ _______ _______ _____ _____    ______ ____
ROOT
ATOM      1  C   UNL     1       5.879   5.299  17.948  0.00  0.00    +0.000 C 
ATOM      2  C   UNL     1       6.717   5.475  19.230  0.00  0.00    +0.000 C 
ENDROOT
BRANCH   1   7
ATOM      3  C   UNL     1       2.581   4.136  19.469  0.00  0.00    +0.000 A 
ATOM      4  C   UNL     1       2.501   2.926  18.878  0.00  0.00    +0.000 A 
ATOM      5  C   UNL     1       3.356   2.566  17.784  0.00  0.00    +0.000 A 
ATOM      6  C   UNL     1       4.447   3.306  17.540  0.00  0.00    +0.000 A 
ATOM      7  N   UNL     1       4.658   4.511  18.201  0.00  0.00    +0.000 N 
ATOM      8  C   UNL     1       3.597   5.105  18.897  0.00  0.00    +0.000 A 
ATOM      9  O   UNL     1       3.498   6.322  19.029  0.00  0.00    +0.000 OA
BRANCH   3  11
ATOM     10  C   UNL     1       2.056   3.475  21.679  0.00  0.00    +0.000 C 
ATOM     11  O   UNL     1       1.829   4.369  20.603  0.00  0.00    +0.000 OA
ENDBRANCH   3  11
ENDBRANCH   1   7
BRANCH   1  12
ATOM     12  C   UNL     1       6.676   4.719  16.748  0.00  0.00    +0.000 C 
ATOM     13  O   UNL     1       7.815   4.291  16.860  0.00  0.00    +0.000 OA
ATOM     14  N   UNL     1       6.010   4.740  15.526  0.00  0.00    +0.000 N 
ATOM     15  H   UNL     1       5.168   5.308  15.436  0.00  0.00    +0.000 HD
BRANCH  14  16
ATOM     16  C   UNL     1       6.621   4.185  14.336  0.00  0.00    +0.000 C 
ATOM     17  C   UNL     1       5.613   3.633  13.330  0.00  0.00    +0.000 C 
ATOM     18  C   UNL     1       6.442   3.487  12.057  0.00  0.00    +0.000 C 
ATOM     19  C   UNL     1       7.492   4.598  12.119  0.00  0.00    +0.000 C 
ATOM     20  C   UNL     1       7.375   5.221  13.509  0.00  0.00    +0.000 C 
ENDBRANCH  14  16
ENDBRANCH   1  12
TORSDOF 4
ENDMDL
MODEL 7
REMARK VINA RESULT:      -6.3      2.153      6.336
REMARK  Name = 
REMARK  6 active torsions:
REMARK  status: ('A' for Active; 'I' for Inactive)
REMARK    1  A    between atoms: C_1  and  O_2
REMARK    2  A    between atoms: O_2  and  C_3
REMARK    3  A    between atoms: N_7  and  C_8
REMARK    4  A    between atoms: C_8  and  C_9
REMARK    5  A    between atoms: C_8  and  C_10
REMARK    6  A    between atoms: N_12  and  C_13
REMARK                            x       y       z     vdW  Elec       q    Type
REMARK                         _______ _______ _______ _____ _____    ______ ____
ROOT
ATOM      1  C   UNL     1       6.120   4.473  18.642  0.00  0.00    +0.000 C 
ATOM      2  C   UNL     1       6.844   5.710  19.211  0.00  0.00    +0.000 C 
ENDROOT
BRANCH   1   7
ATOM      3  C   UNL     1       7.068   4.989  14.985  0.00  0.00    +0.000 A 
ATOM      4  C   UNL     1       5.839   4.878  14.439  0.00  0.00    +0.000 A 
ATOM      5  C   UNL     1       4.726   4.374  15.192  0.00  0.00    +0.000 A 
ATOM      6  C   UNL     1       4.823   4.301  16.526  0.00  0.00    +0.000 A 
ATOM      7  N   UNL     1       6.034   4.523  17.171  0.00  0.00    +0.000 N 
ATOM      8  C   UNL     1       7.218   4.526  16.421  0.00  0.00    +0.000 A 
ATOM      9  O   UNL     1       8.296   4.175  16.894  0.00  0.00    +0.000 OA
BRANCH   3  11
ATOM     10  C   UNL     1       8.055   5.339  12.863  0.00  0.00    +0.000 C 
ATOM     11  O   UNL     1       8.061   5.610  14.255  0.00  0.00    +0.000 OA
ENDBRANCH   3  11
ENDBRANCH   1   7
BRANCH   1  12
ATOM     12  C   UNL     1       4.723   4.215  19.271  0.00  0.00    +0.000 C 
ATOM     13  O   UNL     1       4.023   5.115  19.711  0.00  0.00    +0.000 OA
ATOM     14  N   UNL     1       4.330   2.881  19.320  0.00  0.00    +0.000 N 
ATOM     15  H   UNL     1       5.030   2.158  19.158  0.00  0.00    +0.000 HD
BRANCH  14  16
ATOM     16  C   UNL     1       3.030   2.506  19.838  0.00  0.00    +0.000 C 
ATOM     17  C   UNL     1       2.828   2.871  21.307  0.00  0.00    +0.000 C 
ATOM     18  C   UNL     1       1.318   2.747  21.487  0.00  0.00    +0.000 C 
ATOM     19  C   UNL     1       0.709   3.113  20.132  0.00  0.00    +0.000 C 
ATOM     20  C   UNL     1       1.879   3.238  19.157  0.00  0.00    +0.000 C 
ENDBRANCH  14  16
ENDBRANCH   1  12
TORSDOF 4
ENDMDL
MODEL 8
REMARK VINA RESULT:      -6.2      2.007      2.823
REMARK  Name = 
REMARK  6 active torsions:
REMARK  status: ('A' for Active; 'I' for Inactive)
REMARK    1  A    between atoms: C_1  and  O_2
REMARK    2  A    between atoms: O_2  and  C_3
REMARK    3  A    between atoms: N_7  and  C_8
REMARK    4  A    between atoms: C_8  and  C_9
REMARK    5  A    between atoms: C_8  and  C_10
REMARK    6  A    between atoms: N_12  and  C_13
REMARK                            x       y       z     vdW  Elec       q    Type
REMARK                         _______ _______ _______ _____ _____    ______ ____
ROOT
ATOM      1  C   UNL     1       4.965   5.280  17.986  0.00  0.00    +0.000 C 
ATOM      2  C   UNL     1       6.213   4.671  18.656  0.00  0.00    +0.000 C 
ENDROOT
BRANCH   1   7
ATOM      3  C   UNL     1       1.769   3.827  19.474  0.00  0.00    +0.000 A 
ATOM      4  C   UNL     1       1.688   2.708  18.725  0.00  0.00    +0.000 A 
ATOM      5  C   UNL     1       2.498   2.526  17.555  0.00  0.00    +0.000 A 
ATOM      6  C   UNL     1       3.559   3.323  17.369  0.00  0.00    +0.000 A 
ATOM      7  N   UNL     1       3.775   4.431  18.181  0.00  0.00    +0.000 N 
ATOM      8  C   UNL     1       2.735   4.894  18.998  0.00  0.00    +0.000 A 
ATOM      9  O   UNL     1       2.617   6.078  19.302  0.00  0.00    +0.000 OA
BRANCH   3  11
ATOM     10  C   UNL     1       1.460   2.940  21.646  0.00  0.00    +0.000 C 
ATOM     11  O   UNL     1       1.067   3.881  20.661  0.00  0.00    +0.000 OA
ENDBRANCH   3  11
ENDBRANCH   1   7
BRANCH   1  12
ATOM     12  C   UNL     1       5.161   5.626  16.485  0.00  0.00    +0.000 C 
ATOM     13  O   UNL     1       4.797   6.688  16.002  0.00  0.00    +0.000 OA
ATOM     14  N   UNL     1       5.760   4.632  15.719  0.00  0.00    +0.000 N 
ATOM     15  H   UNL     1       5.833   3.691  16.106  0.00  0.00    +0.000 HD
BRANCH  14  16
ATOM     16  C   UNL     1       6.045   4.843  14.314  0.00  0.00    +0.000 C 
ATOM     17  C   UNL     1       7.514   5.142  14.025  0.00  0.00    +0.000 C 
ATOM     18  C   UNL     1       7.618   4.932  12.517  0.00  0.00    +0.000 C 
ATOM     19  C   UNL     1       6.592   3.848  12.180  0.00  0.00    +0.000 C 
ATOM     20  C   UNL     1       5.786   3.610  13.456  0.00  0.00    +0.000 C 
ENDBRANCH  14  16
ENDBRANCH   1  12
TORSDOF 4
ENDMDL
MODEL 9
REMARK VINA RESULT:      -6.1      2.210      6.630
REMARK  Name = 
REMARK  6 active torsions:
REMARK  status: ('A' for Active; 'I' for Inactive)
REMARK    1  A    between atoms: C_1  and  O_2
REMARK    2  A    between atoms: O_2  and  C_3
REMARK    3  A    between atoms: N_7  and  C_8
REMARK    4  A    between atoms: C_8  and  C_9
REMARK    5  A    between atoms: C_8  and  C_10
REMARK    6  A    between atoms: N_12  and  C_13
REMARK                            x       y       z     vdW  Elec       q    Type
REMARK                         _______ _______ _______ _____ _____    ______ ____
ROOT
ATOM      1  C   UNL     1       2.971   5.819  17.886  0.00  0.00    +0.000 C 
ATOM      2  C   UNL     1       2.325   4.467  18.250  0.00  0.00    +0.000 C 
ENDROOT
BRANCH   1   7
ATOM      3  C   UNL     1       6.649   5.857  16.881  0.00  0.00    +0.000 A 
ATOM      4  C   UNL     1       7.178   5.395  18.034  0.00  0.00    +0.000 A 
ATOM      5  C   UNL     1       6.402   5.316  19.238  0.00  0.00    +0.000 A 
ATOM      6  C   UNL     1       5.068   5.404  19.158  0.00  0.00    +0.000 A 
ATOM      7  N   UNL     1       4.442   5.758  17.968  0.00  0.00    +0.000 N 
ATOM      8  C   UNL     1       5.205   6.315  16.932  0.00  0.00    +0.000 A 
ATOM      9  O   UNL     1       4.736   7.117  16.129  0.00  0.00    +0.000 OA
BRANCH   3  11
ATOM     10  C   UNL     1       6.995   4.788  14.799  0.00  0.00    +0.000 C 
ATOM     11  O   UNL     1       7.404   5.777  15.729  0.00  0.00    +0.000 OA
ENDBRANCH   3  11
ENDBRANCH   1   7
BRANCH   1  12
ATOM     12  C   UNL     1       2.418   7.021  18.700  0.00  0.00    +0.000 C 
ATOM     13  O   UNL     1       2.191   6.955  19.898  0.00  0.00    +0.000 OA
ATOM     14  N   UNL     1       2.177   8.177  17.964  0.00  0.00    +0.000 N 
ATOM     15  H   UNL     1       2.161   8.116  16.946  0.00  0.00    +0.000 HD
BRANCH  14  16
ATOM     16  C   UNL     1       1.707   9.386  18.609  0.00  0.00    +0.000 C 
ATOM     17  C   UNL     1       2.324  10.663  18.041  0.00  0.00    +0.000 C 
ATOM     18  C   UNL     1       1.409  11.757  18.583  0.00  0.00    +0.000 C 
ATOM     19  C   UNL     1       0.024  11.119  18.695  0.00  0.00    +0.000 C 
ATOM     20  C   UNL     1       0.214   9.629  18.413  0.00  0.00    +0.000 C 
ENDBRANCH  14  16
ENDBRANCH   1  12
TORSDOF 4
ENDMDL
