MODEL 1
REMARK VINA RESULT:      -8.7      0.000      0.000
REMARK  Name = 
REMARK  6 active torsions:
REMARK  status: ('A' for Active; 'I' for Inactive)
REMARK    1  A    between atoms: C_1  and  C_2
REMARK    2  A    between atoms: N_4  and  C_5
REMARK    3  A    between atoms: C_7  and  C_8
REMARK    4  A    between atoms: C_11  and  N_12
REMARK    5  A    between atoms: C_17  and  C_18
REMARK    6  A    between atoms: C_22  and  C_23
REMARK                            x       y       z     vdW  Elec       q    Type
REMARK                         _______ _______ _______ _____ _____    ______ ____
ROOT
ATOM      1  C   UNL     1      -1.124  11.569  21.269  0.00  0.00    +0.000 A 
ATOM      2  C   UNL     1      -1.786  11.574  20.096  0.00  0.00    +0.000 A 
ATOM      3  C   UNL     1      -1.534  10.587  19.056  0.00  0.00    +0.000 A 
ATOM      4  C   UNL     1      -0.629   9.622  19.307  0.00  0.00    +0.000 A 
ATOM      5  N   UNL     1       0.104   9.635  20.497  0.00  0.00    +0.000 N 
ATOM      6  C   UNL     1       1.104   8.778  20.955  0.00  0.00    +0.000 A 
ATOM      7  C   UNL     1       1.429   9.292  22.207  0.00  0.00    +0.000 A 
ATOM      8  N   UNL     1       0.704  10.408  22.524  0.00  0.00    +0.000 NA
ATOM      9  C   UNL     1      -0.093  10.599  21.487  0.00  0.00    +0.000 A 
ENDROOT
BRANCH   3  10
ATOM     10  C   UNL     1      -2.252  10.563  17.779  0.00  0.00    +0.000 A 
ATOM     11  C   UNL     1      -3.387  11.355  17.600  0.00  0.00    +0.000 A 
ATOM     12  C   UNL     1      -4.077  11.330  16.384  0.00  0.00    +0.000 A 
ATOM     13  C   UNL     1      -3.621  10.549  15.320  0.00  0.00    +0.000 A 
ATOM     14  C   UNL     1      -2.521   9.710  15.526  0.00  0.00    +0.000 A 
ATOM     15  C   UNL     1      -1.824   9.730  16.739  0.00  0.00    +0.000 A 
BRANCH  13  16
ATOM     16  N   UNL     1      -4.383  10.437  14.151  0.00  0.00    +0.000 N 
ATOM     17  H   UNL     1      -4.519   9.478  13.842  0.00  0.00    +0.000 HD
ATOM     18  H   UNL     1      -5.255  10.953  14.182  0.00  0.00    +0.000 HD
ENDBRANCH  13  16
ENDBRANCH   3  10
BRANCH   6  19
ATOM     19  C   UNL     1       1.659   7.605  20.267  0.00  0.00    +0.000 A 
ATOM     20  C   UNL     1       2.255   7.748  19.008  0.00  0.00    +0.000 A 
ATOM     21  C   UNL     1       2.738   6.636  18.306  0.00  0.00    +0.000 A 
ATOM     22  C   UNL     1       2.648   5.364  18.863  0.00  0.00    +0.000 A 
ATOM     23  C   UNL     1       2.063   5.188  20.122  0.00  0.00    +0.000 A 
ATOM     24  C   UNL     1       1.560   6.312  20.801  0.00  0.00    +0.000 A 
BRANCH  23  25
ATOM     25  C   UNL     1       1.945   3.823  20.752  0.00  0.00    +0.000 C 
ATOM     26  F   UNL     1       2.755   2.887  20.185  0.00  0.00    +0.000 F 
ATOM     27  F   UNL     1       2.256   3.833  22.078  0.00  0.00    +0.000 F 
ATOM     28  F   UNL     1       0.681   3.324  20.669  0.00  0.00    +0.000 F 
ENDBRANCH  23  25
ENDBRANCH   6  19
BRANCH   1  32
ATOM     29  C   UNL     1      -1.226  14.333  23.793  0.00  0.00    +0.000 C 
ATOM     30  C   UNL     1      -0.731  13.613  22.570  0.00  0.00    +0.000 C 
ATOM     31  O   UNL     1       0.176  14.085  21.892  0.00  0.00    +0.000 OA
ATOM     32  N   UNL     1      -1.397  12.428  22.316  0.00  0.00    +0.000 N 
ATOM     33  H   UNL     1      -2.299  12.279  22.763  0.00  0.00    +0.000 HD
ENDBRANCH   1  32
TORSDOF 5
ENDMDL
MODEL 2
REMARK VINA RESULT:      -8.6      0.054      1.119
REMARK  Name = 
REMARK  6 active torsions:
REMARK  status: ('A' for Active; 'I' for Inactive)
REMARK    1  A    between atoms: C_1  and  C_2
REMARK    2  A    between atoms: N_4  and  C_5
REMARK    3  A    between atoms: C_7  and  C_8
REMARK    4  A    between atoms: C_11  and  N_12
REMARK    5  A    between atoms: C_17  and  C_18
REMARK    6  A    between atoms: C_22  and  C_23
REMARK                            x       y       z     vdW  Elec       q    Type
REMARK                         _______ _______ _______ _____ _____    ______ ____
ROOT
ATOM      1  C   UNL     1      -1.138  11.578  21.306  0.00  0.00    +0.000 A 
ATOM      2  C   UNL     1      -1.808  11.577  20.137  0.00  0.00    +0.000 A 
ATOM      3  C   UNL     1      -1.556  10.589  19.097  0.00  0.00    +0.000 A 
ATOM      4  C   UNL     1      -0.644   9.630  19.345  0.00  0.00    +0.000 A 
ATOM      5  N   UNL     1       0.096   9.650  20.530  0.00  0.00    +0.000 N 
ATOM      6  C   UNL     1       1.105   8.800  20.984  0.00  0.00    +0.000 A 
ATOM      7  C   UNL     1       1.433   9.318  22.232  0.00  0.00    +0.000 A 
ATOM      8  N   UNL     1       0.704  10.430  22.551  0.00  0.00    +0.000 NA
ATOM      9  C   UNL     1      -0.100  10.615  21.520  0.00  0.00    +0.000 A 
ENDROOT
BRANCH   3  10
ATOM     10  C   UNL     1      -2.282  10.559  17.825  0.00  0.00    +0.000 A 
ATOM     11  C   UNL     1      -1.826   9.757  16.778  0.00  0.00    +0.000 A 
ATOM     12  C   UNL     1      -2.514   9.731  15.560  0.00  0.00    +0.000 A 
ATOM     13  C   UNL     1      -3.686  10.470  15.387  0.00  0.00    +0.000 A 
ATOM     14  C   UNL     1      -4.102  11.319  16.417  0.00  0.00    +0.000 A 
ATOM     15  C   UNL     1      -3.421  11.350  17.638  0.00  0.00    +0.000 A 
BRANCH  13  16
ATOM     16  N   UNL     1      -4.299  10.532  14.130  0.00  0.00    +0.000 N 
ATOM     17  H   UNL     1      -3.656  10.750  13.373  0.00  0.00    +0.000 HD
ATOM     18  H   UNL     1      -4.877   9.726  13.918  0.00  0.00    +0.000 HD
ENDBRANCH  13  16
ENDBRANCH   3  10
BRANCH   6  19
ATOM     19  C   UNL     1       1.662   7.629  20.294  0.00  0.00    +0.000 A 
ATOM     20  C   UNL     1       2.253   7.773  19.032  0.00  0.00    +0.000 A 
ATOM     21  C   UNL     1       2.738   6.663  18.330  0.00  0.00    +0.000 A 
ATOM     22  C   UNL     1       2.656   5.392  18.888  0.00  0.00    +0.000 A 
ATOM     23  C   UNL     1       2.077   5.214  20.150  0.00  0.00    +0.000 A 
ATOM     24  C   UNL     1       1.571   6.336  20.829  0.00  0.00    +0.000 A 
BRANCH  23  25
ATOM     25  C   UNL     1       1.968   3.849  20.781  0.00  0.00    +0.000 C 
ATOM     26  F   UNL     1       0.715   3.319  20.728  0.00  0.00    +0.000 F 
ATOM     27  F   UNL     1       2.786   2.935  20.190  0.00  0.00    +0.000 F 
ATOM     28  F   UNL     1       2.314   3.860  22.098  0.00  0.00    +0.000 F 
ENDBRANCH  23  25
ENDBRANCH   6  19
BRANCH   1  32
ATOM     29  C   UNL     1      -1.244  14.349  23.823  0.00  0.00    +0.000 C 
ATOM     30  C   UNL     1      -0.754  13.630  22.598  0.00  0.00    +0.000 C 
ATOM     31  O   UNL     1       0.143  14.108  21.910  0.00  0.00    +0.000 OA
ATOM     32  N   UNL     1      -1.410  12.437  22.353  0.00  0.00    +0.000 N 
ATOM     33  H   UNL     1      -2.307  12.281  22.809  0.00  0.00    +0.000 HD
ENDBRANCH   1  32
TORSDOF 5
ENDMDL
MODEL 3
REMARK VINA RESULT:      -8.4      1.031      1.531
REMARK  Name = 
REMARK  6 active torsions:
REMARK  status: ('A' for Active; 'I' for Inactive)
REMARK    1  A    between atoms: C_1  and  C_2
REMARK    2  A    between atoms: N_4  and  C_5
REMARK    3  A    between atoms: C_7  and  C_8
REMARK    4  A    between atoms: C_11  and  N_12
REMARK    5  A    between atoms: C_17  and  C_18
REMARK    6  A    between atoms: C_22  and  C_23
REMARK                            x       y       z     vdW  Elec       q    Type
REMARK                         _______ _______ _______ _____ _____    ______ ____
ROOT
ATOM      1  C   UNL     1      -1.331  11.834  21.013  0.00  0.00    +0.000 A 
ATOM      2  C   UNL     1      -2.003  11.758  19.847  0.00  0.00    +0.000 A 
ATOM      3  C   UNL     1      -1.720  10.734  18.851  0.00  0.00    +0.000 A 
ATOM      4  C   UNL     1      -0.775   9.819  19.137  0.00  0.00    +0.000 A 
ATOM      5  N   UNL     1      -0.034   9.917  20.317  0.00  0.00    +0.000 N 
ATOM      6  C   UNL     1       1.005   9.123  20.804  0.00  0.00    +0.000 A 
ATOM      7  C   UNL     1       1.319   9.706  22.027  0.00  0.00    +0.000 A 
ATOM      8  N   UNL     1       0.552  10.806  22.300  0.00  0.00    +0.000 NA
ATOM      9  C   UNL     1      -0.260  10.917  21.264  0.00  0.00    +0.000 A 
ENDROOT
BRANCH   3  10
ATOM     10  C   UNL     1      -2.448  10.623  17.584  0.00  0.00    +0.000 A 
ATOM     11  C   UNL     1      -1.955   9.809  16.563  0.00  0.00    +0.000 A 
ATOM     12  C   UNL     1      -2.645   9.706  15.351  0.00  0.00    +0.000 A 
ATOM     13  C   UNL     1      -3.854  10.378  15.158  0.00  0.00    +0.000 A 
ATOM     14  C   UNL     1      -4.309  11.241  16.160  0.00  0.00    +0.000 A 
ATOM     15  C   UNL     1      -3.626  11.349  17.375  0.00  0.00    +0.000 A 
BRANCH  13  16
ATOM     16  N   UNL     1      -4.473  10.365  13.903  0.00  0.00    +0.000 N 
ATOM     17  H   UNL     1      -4.418  11.254  13.411  0.00  0.00    +0.000 HD
ATOM     18  H   UNL     1      -4.190   9.588  13.316  0.00  0.00    +0.000 HD
ENDBRANCH  13  16
ENDBRANCH   3  10
BRANCH   6  19
ATOM     19  C   UNL     1       1.600   7.942  20.164  0.00  0.00    +0.000 A 
ATOM     20  C   UNL     1       2.249   8.065  18.929  0.00  0.00    +0.000 A 
ATOM     21  C   UNL     1       2.773   6.945  18.272  0.00  0.00    +0.000 A 
ATOM     22  C   UNL     1       2.671   5.684  18.851  0.00  0.00    +0.000 A 
ATOM     23  C   UNL     1       2.035   5.527  20.087  0.00  0.00    +0.000 A 
ATOM     24  C   UNL     1       1.492   6.659  20.720  0.00  0.00    +0.000 A 
BRANCH  23  25
ATOM     25  C   UNL     1       1.905   4.174  20.740  0.00  0.00    +0.000 C 
ATOM     26  F   UNL     1       0.620   3.733  20.834  0.00  0.00    +0.000 F 
ATOM     27  F   UNL     1       2.585   3.204  20.068  0.00  0.00    +0.000 F 
ATOM     28  F   UNL     1       2.398   4.163  22.009  0.00  0.00    +0.000 F 
ENDBRANCH  23  25
ENDBRANCH   6  19
BRANCH   1  32
ATOM     29  C   UNL     1      -2.882  13.874  23.743  0.00  0.00    +0.000 C 
ATOM     30  C   UNL     1      -2.827  12.782  22.711  0.00  0.00    +0.000 C 
ATOM     31  O   UNL     1      -3.783  12.030  22.546  0.00  0.00    +0.000 OA
ATOM     32  N   UNL     1      -1.630  12.729  22.022  0.00  0.00    +0.000 N 
ATOM     33  H   UNL     1      -0.823  13.199  22.425  0.00  0.00    +0.000 HD
ENDBRANCH   1  32
TORSDOF 5
ENDMDL
MODEL 4
REMARK VINA RESULT:      -8.2      1.851      2.313
REMARK  Name = 
REMARK  6 active torsions:
REMARK  status: ('A' for Active; 'I' for Inactive)
REMARK    1  A    between atoms: C_1  and  C_2
REMARK    2  A    between atoms: N_4  and  C_5
REMARK    3  A    between atoms: C_7  and  C_8
REMARK    4  A    between atoms: C_11  and  N_12
REMARK    5  A    between atoms: C_17  and  C_18
REMARK    6  A    between atoms: C_22  and  C_23
REMARK                            x       y       z     vdW  Elec       q    Type
REMARK                         _______ _______ _______ _____ _____    ______ ____
ROOT
ATOM      1  C   UNL     1      -1.000  11.742  21.180  0.00  0.00    +0.000 A 
ATOM      2  C   UNL     1      -1.672  11.702  20.012  0.00  0.00    +0.000 A 
ATOM      3  C   UNL     1      -1.491  10.627  19.047  0.00  0.00    +0.000 A 
ATOM      4  C   UNL     1      -0.647   9.628  19.365  0.00  0.00    +0.000 A 
ATOM      5  N   UNL     1       0.096   9.683  20.548  0.00  0.00    +0.000 N 
ATOM      6  C   UNL     1       1.045   8.800  21.063  0.00  0.00    +0.000 A 
ATOM      7  C   UNL     1       1.412   9.383  22.272  0.00  0.00    +0.000 A 
ATOM      8  N   UNL     1       0.762  10.563  22.509  0.00  0.00    +0.000 NA
ATOM      9  C   UNL     1      -0.030  10.728  21.464  0.00  0.00    +0.000 A 
ENDROOT
BRANCH   3  10
ATOM     10  C   UNL     1      -2.221  10.555  17.778  0.00  0.00    +0.000 A 
ATOM     11  C   UNL     1      -3.402  11.279  17.608  0.00  0.00    +0.000 A 
ATOM     12  C   UNL     1      -4.103  11.208  16.400  0.00  0.00    +0.000 A 
ATOM     13  C   UNL     1      -3.614  10.448  15.335  0.00  0.00    +0.000 A 
ATOM     14  C   UNL     1      -2.466   9.676  15.533  0.00  0.00    +0.000 A 
ATOM     15  C   UNL     1      -1.758   9.743  16.738  0.00  0.00    +0.000 A 
BRANCH  13  16
ATOM     16  N   UNL     1      -4.382  10.286  14.176  0.00  0.00    +0.000 N 
ATOM     17  H   UNL     1      -3.840  10.341  13.317  0.00  0.00    +0.000 HD
ATOM     18  H   UNL     1      -4.983   9.470  14.195  0.00  0.00    +0.000 HD
ENDBRANCH  13  16
ENDBRANCH   3  10
BRANCH   6  19
ATOM     19  C   UNL     1       1.518   7.546  20.462  0.00  0.00    +0.000 A 
ATOM     20  C   UNL     1       1.100   6.316  20.985  0.00  0.00    +0.000 A 
ATOM     21  C   UNL     1       1.583   5.108  20.466  0.00  0.00    +0.000 A 
ATOM     22  C   UNL     1       2.479   5.113  19.402  0.00  0.00    +0.000 A 
ATOM     23  C   UNL     1       2.912   6.324  18.852  0.00  0.00    +0.000 A 
ATOM     24  C   UNL     1       2.437   7.528  19.403  0.00  0.00    +0.000 A 
BRANCH  23  25
ATOM     25  C   UNL     1       3.886   6.364  17.702  0.00  0.00    +0.000 C 
ATOM     26  F   UNL     1       5.190   6.428  18.091  0.00  0.00    +0.000 F 
ATOM     27  F   UNL     1       3.788   5.269  16.898  0.00  0.00    +0.000 F 
ATOM     28  F   UNL     1       3.684   7.440  16.892  0.00  0.00    +0.000 F 
ENDBRANCH  23  25
ENDBRANCH   6  19
BRANCH   1  32
ATOM     29  C   UNL     1      -2.232  13.843  24.024  0.00  0.00    +0.000 C 
ATOM     30  C   UNL     1      -2.236  12.667  23.088  0.00  0.00    +0.000 C 
ATOM     31  O   UNL     1      -3.090  11.791  23.189  0.00  0.00    +0.000 OA
ATOM     32  N   UNL     1      -1.210  12.691  22.161  0.00  0.00    +0.000 N 
ATOM     33  H   UNL     1      -0.412  13.295  22.345  0.00  0.00    +0.000 HD
ENDBRANCH   1  32
TORSDOF 5
ENDMDL
MODEL 5
REMARK VINA RESULT:      -8.1      1.680      2.178
REMARK  Name = 
REMARK  6 active torsions:
REMARK  status: ('A' for Active; 'I' for Inactive)
REMARK    1  A    between atoms: C_1  and  C_2
REMARK    2  A    between atoms: N_4  and  C_5
REMARK    3  A    between atoms: C_7  and  C_8
REMARK    4  A    between atoms: C_11  and  N_12
REMARK    5  A    between atoms: C_17  and  C_18
REMARK    6  A    between atoms: C_22  and  C_23
REMARK                            x       y       z     vdW  Elec       q    Type
REMARK                         _______ _______ _______ _____ _____    ______ ____
ROOT
ATOM      1  C   UNL     1      -1.090  11.569  21.263  0.00  0.00    +0.000 A 
ATOM      2  C   UNL     1      -1.734  11.561  20.080  0.00  0.00    +0.000 A 
ATOM      3  C   UNL     1      -1.502  10.535  19.073  0.00  0.00    +0.000 A 
ATOM      4  C   UNL     1      -0.636   9.547  19.367  0.00  0.00    +0.000 A 
ATOM      5  N   UNL     1       0.079   9.570  20.568  0.00  0.00    +0.000 N 
ATOM      6  C   UNL     1       1.042   8.693  21.067  0.00  0.00    +0.000 A 
ATOM      7  C   UNL     1       1.366   9.232  22.307  0.00  0.00    +0.000 A 
ATOM      8  N   UNL     1       0.676  10.382  22.580  0.00  0.00    +0.000 NA
ATOM      9  C   UNL     1      -0.097  10.570  21.526  0.00  0.00    +0.000 A 
ENDROOT
BRANCH   3  10
ATOM     10  C   UNL     1      -2.202  10.499  17.787  0.00  0.00    +0.000 A 
ATOM     11  C   UNL     1      -3.355  11.260  17.596  0.00  0.00    +0.000 A 
ATOM     12  C   UNL     1      -4.028  11.223  16.370  0.00  0.00    +0.000 A 
ATOM     13  C   UNL     1      -3.536  10.459  15.309  0.00  0.00    +0.000 A 
ATOM     14  C   UNL     1      -2.417   9.650  15.527  0.00  0.00    +0.000 A 
ATOM     15  C   UNL     1      -1.737   9.683  16.749  0.00  0.00    +0.000 A 
BRANCH  13  16
ATOM     16  N   UNL     1      -4.279  10.333  14.129  0.00  0.00    +0.000 N 
ATOM     17  H   UNL     1      -3.798   9.816  13.397  0.00  0.00    +0.000 HD
ATOM     18  H   UNL     1      -5.224   9.994  14.276  0.00  0.00    +0.000 HD
ENDBRANCH  13  16
ENDBRANCH   3  10
BRANCH   6  19
ATOM     19  C   UNL     1       1.564   7.481  20.422  0.00  0.00    +0.000 A 
ATOM     20  C   UNL     1       1.214   6.217  20.917  0.00  0.00    +0.000 A 
ATOM     21  C   UNL     1       1.745   5.049  20.357  0.00  0.00    +0.000 A 
ATOM     22  C   UNL     1       2.622   5.126  19.279  0.00  0.00    +0.000 A 
ATOM     23  C   UNL     1       2.986   6.372  18.757  0.00  0.00    +0.000 A 
ATOM     24  C   UNL     1       2.464   7.536  19.349  0.00  0.00    +0.000 A 
BRANCH  23  25
ATOM     25  C   UNL     1       3.937   6.491  17.592  0.00  0.00    +0.000 C 
ATOM     26  F   UNL     1       3.654   7.529  16.757  0.00  0.00    +0.000 F 
ATOM     27  F   UNL     1       5.227   6.671  17.990  0.00  0.00    +0.000 F 
ATOM     28  F   UNL     1       3.941   5.374  16.813  0.00  0.00    +0.000 F 
ENDBRANCH  23  25
ENDBRANCH   6  19
BRANCH   1  32
ATOM     29  C   UNL     1      -1.130  14.408  23.704  0.00  0.00    +0.000 C 
ATOM     30  C   UNL     1      -0.643  13.635  22.511  0.00  0.00    +0.000 C 
ATOM     31  O   UNL     1       0.292  14.053  21.834  0.00  0.00    +0.000 OA
ATOM     32  N   UNL     1      -1.348  12.467  22.280  0.00  0.00    +0.000 N 
ATOM     33  H   UNL     1      -2.262  12.365  22.716  0.00  0.00    +0.000 HD
ENDBRANCH   1  32
TORSDOF 5
ENDMDL
MODEL 6
REMARK VINA RESULT:      -8.1      1.857      2.464
REMARK  Name = 
REMARK  6 active torsions:
REMARK  status: ('A' for Active; 'I' for Inactive)
REMARK    1  A    between atoms: C_1  and  C_2
REMARK    2  A    between atoms: N_4  and  C_5
REMARK    3  A    between atoms: C_7  and  C_8
REMARK    4  A    between atoms: C_11  and  N_12
REMARK    5  A    between atoms: C_17  and  C_18
REMARK    6  A    between atoms: C_22  and  C_23
REMARK                            x       y       z     vdW  Elec       q    Type
REMARK                         _______ _______ _______ _____ _____    ______ ____
ROOT
ATOM      1  C   UNL     1      -1.024  11.759  21.195  0.00  0.00    +0.000 A 
ATOM      2  C   UNL     1      -1.697  11.715  20.028  0.00  0.00    +0.000 A 
ATOM      3  C   UNL     1      -1.513  10.641  19.063  0.00  0.00    +0.000 A 
ATOM      4  C   UNL     1      -0.662   9.647  19.379  0.00  0.00    +0.000 A 
ATOM      5  N   UNL     1       0.083   9.706  20.560  0.00  0.00    +0.000 N 
ATOM      6  C   UNL     1       1.039   8.829  21.073  0.00  0.00    +0.000 A 
ATOM      7  C   UNL     1       1.405   9.413  22.281  0.00  0.00    +0.000 A 
ATOM      8  N   UNL     1       0.749  10.590  22.519  0.00  0.00    +0.000 NA
ATOM      9  C   UNL     1      -0.047  10.750  21.477  0.00  0.00    +0.000 A 
ENDROOT
BRANCH   3  10
ATOM     10  C   UNL     1      -2.245  10.565  17.796  0.00  0.00    +0.000 A 
ATOM     11  C   UNL     1      -1.779   9.747  16.766  0.00  0.00    +0.000 A 
ATOM     12  C   UNL     1      -2.473   9.677  15.554  0.00  0.00    +0.000 A 
ATOM     13  C   UNL     1      -3.661  10.389  15.370  0.00  0.00    +0.000 A 
ATOM     14  C   UNL     1      -4.088  11.254  16.381  0.00  0.00    +0.000 A 
ATOM     15  C   UNL     1      -3.400  11.329  17.597  0.00  0.00    +0.000 A 
BRANCH  13  16
ATOM     16  N   UNL     1      -4.282  10.408  14.115  0.00  0.00    +0.000 N 
ATOM     17  H   UNL     1      -4.546   9.485  13.777  0.00  0.00    +0.000 HD
ATOM     18  H   UNL     1      -5.046  11.070  14.048  0.00  0.00    +0.000 HD
ENDBRANCH  13  16
ENDBRANCH   3  10
BRANCH   6  19
ATOM     19  C   UNL     1       1.518   7.578  20.470  0.00  0.00    +0.000 A 
ATOM     20  C   UNL     1       1.128   6.345  21.009  0.00  0.00    +0.000 A 
ATOM     21  C   UNL     1       1.617   5.141  20.489  0.00  0.00    +0.000 A 
ATOM     22  C   UNL     1       2.493   5.151  19.407  0.00  0.00    +0.000 A 
ATOM     23  C   UNL     1       2.897   6.365  18.841  0.00  0.00    +0.000 A 
ATOM     24  C   UNL     1       2.416   7.566  19.393  0.00  0.00    +0.000 A 
BRANCH  23  25
ATOM     25  C   UNL     1       3.847   6.412  17.671  0.00  0.00    +0.000 C 
ATOM     26  F   UNL     1       3.654   7.481  16.851  0.00  0.00    +0.000 F 
ATOM     27  F   UNL     1       5.151   6.469  18.062  0.00  0.00    +0.000 F 
ATOM     28  F   UNL     1       3.745   5.309  16.879  0.00  0.00    +0.000 F 
ENDBRANCH  23  25
ENDBRANCH   6  19
BRANCH   1  32
ATOM     29  C   UNL     1      -2.283  13.874  24.016  0.00  0.00    +0.000 C 
ATOM     30  C   UNL     1      -2.291  12.706  23.071  0.00  0.00    +0.000 C 
ATOM     31  O   UNL     1      -3.173  11.854  23.138  0.00  0.00    +0.000 OA
ATOM     32  N   UNL     1      -1.236  12.706  22.177  0.00  0.00    +0.000 N 
ATOM     33  H   UNL     1      -0.427  13.286  22.390  0.00  0.00    +0.000 HD
ENDBRANCH   1  32
TORSDOF 5
ENDMDL
MODEL 7
REMARK VINA RESULT:      -8.0      1.695      2.380
REMARK  Name = 
REMARK  6 active torsions:
REMARK  status: ('A' for Active; 'I' for Inactive)
REMARK    1  A    between atoms: C_1  and  C_2
REMARK    2  A    between atoms: N_4  and  C_5
REMARK    3  A    between atoms: C_7  and  C_8
REMARK    4  A    between atoms: C_11  and  N_12
REMARK    5  A    between atoms: C_17  and  C_18
REMARK    6  A    between atoms: C_22  and  C_23
REMARK                            x       y       z     vdW  Elec       q    Type
REMARK                         _______ _______ _______ _____ _____    ______ ____
ROOT
ATOM      1  C   UNL     1      -1.059  11.525  21.357  0.00  0.00    +0.000 A 
ATOM      2  C   UNL     1      -1.716  11.529  20.180  0.00  0.00    +0.000 A 
ATOM      3  C   UNL     1      -1.495  10.511  19.163  0.00  0.00    +0.000 A 
ATOM      4  C   UNL     1      -0.627   9.519  19.439  0.00  0.00    +0.000 A 
ATOM      5  N   UNL     1       0.100   9.531  20.633  0.00  0.00    +0.000 N 
ATOM      6  C   UNL     1       1.067   8.649  21.114  0.00  0.00    +0.000 A 
ATOM      7  C   UNL     1       1.404   9.176  22.356  0.00  0.00    +0.000 A 
ATOM      8  N   UNL     1       0.719  10.325  22.646  0.00  0.00    +0.000 NA
ATOM      9  C   UNL     1      -0.065  10.523  21.601  0.00  0.00    +0.000 A 
ENDROOT
BRANCH   3  10
ATOM     10  C   UNL     1      -2.208  10.486  17.883  0.00  0.00    +0.000 A 
ATOM     11  C   UNL     1      -1.747   9.681  16.840  0.00  0.00    +0.000 A 
ATOM     12  C   UNL     1      -2.422   9.660  15.616  0.00  0.00    +0.000 A 
ATOM     13  C   UNL     1      -3.587  10.409  15.431  0.00  0.00    +0.000 A 
ATOM     14  C   UNL     1      -4.007  11.261  16.456  0.00  0.00    +0.000 A 
ATOM     15  C   UNL     1      -3.338  11.286  17.684  0.00  0.00    +0.000 A 
BRANCH  13  16
ATOM     16  N   UNL     1      -4.186  10.476  14.167  0.00  0.00    +0.000 N 
ATOM     17  H   UNL     1      -5.202  10.518  14.199  0.00  0.00    +0.000 HD
ATOM     18  H   UNL     1      -3.795  11.193  13.567  0.00  0.00    +0.000 HD
ENDBRANCH  13  16
ENDBRANCH   3  10
BRANCH   6  19
ATOM     19  C   UNL     1       1.581   7.441  20.453  0.00  0.00    +0.000 A 
ATOM     20  C   UNL     1       1.234   6.174  20.940  0.00  0.00    +0.000 A 
ATOM     21  C   UNL     1       1.758   5.010  20.364  0.00  0.00    +0.000 A 
ATOM     22  C   UNL     1       2.624   5.096  19.279  0.00  0.00    +0.000 A 
ATOM     23  C   UNL     1       2.986   6.346  18.765  0.00  0.00    +0.000 A 
ATOM     24  C   UNL     1       2.471   7.505  19.372  0.00  0.00    +0.000 A 
BRANCH  23  25
ATOM     25  C   UNL     1       3.926   6.473  17.593  0.00  0.00    +0.000 C 
ATOM     26  F   UNL     1       3.876   5.418  16.734  0.00  0.00    +0.000 F 
ATOM     27  F   UNL     1       3.673   7.580  16.841  0.00  0.00    +0.000 F 
ATOM     28  F   UNL     1       5.226   6.578  17.983  0.00  0.00    +0.000 F 
ENDBRANCH  23  25
ENDBRANCH   6  19
BRANCH   1  32
ATOM     29  C   UNL     1      -1.193  14.424  23.723  0.00  0.00    +0.000 C 
ATOM     30  C   UNL     1      -0.768  13.685  22.485  0.00  0.00    +0.000 C 
ATOM     31  O   UNL     1      -0.019  14.213  21.669  0.00  0.00    +0.000 OA
ATOM     32  N   UNL     1      -1.306  12.415  22.384  0.00  0.00    +0.000 N 
ATOM     33  H   UNL     1      -2.119  12.191  22.954  0.00  0.00    +0.000 HD
ENDBRANCH   1  32
TORSDOF 5
ENDMDL
MODEL 8
REMARK VINA RESULT:      -7.8      7.781     10.214
REMARK  Name = 
REMARK  6 active torsions:
REMARK  status: ('A' for Active; 'I' for Inactive)
REMARK    1  A    between atoms: C_1  and  C_2
REMARK    2  A    between atoms: N_4  and  C_5
REMARK    3  A    between atoms: C_7  and  C_8
REMARK    4  A    between atoms: C_11  and  N_12
REMARK    5  A    between atoms: C_17  and  C_18
REMARK    6  A    between atoms: C_22  and  C_23
REMARK                            x       y       z     vdW  Elec       q    Type
REMARK                         _______ _______ _______ _____ _____    ______ ____
ROOT
ATOM      1  C   UNL     1       6.765   5.831  16.994  0.00  0.00    +0.000 A 
ATOM      2  C   UNL     1       5.673   5.317  17.594  0.00  0.00    +0.000 A 
ATOM      3  C   UNL     1       4.776   4.391  16.917  0.00  0.00    +0.000 A 
ATOM      4  C   UNL     1       5.083   4.019  15.660  0.00  0.00    +0.000 A 
ATOM      5  N   UNL     1       6.182   4.584  15.006  0.00  0.00    +0.000 N 
ATOM      6  C   UNL     1       6.667   4.387  13.714  0.00  0.00    +0.000 A 
ATOM      7  C   UNL     1       7.789   5.207  13.656  0.00  0.00    +0.000 A 
ATOM      8  N   UNL     1       8.000   5.896  14.819  0.00  0.00    +0.000 NA
ATOM      9  C   UNL     1       7.028   5.507  15.624  0.00  0.00    +0.000 A 
ENDROOT
BRANCH   3  10
ATOM     10  C   UNL     1       3.592   3.808  17.554  0.00  0.00    +0.000 A 
ATOM     11  C   UNL     1       2.461   4.594  17.780  0.00  0.00    +0.000 A 
ATOM     12  C   UNL     1       1.332   4.042  18.393  0.00  0.00    +0.000 A 
ATOM     13  C   UNL     1       1.302   2.692  18.750  0.00  0.00    +0.000 A 
ATOM     14  C   UNL     1       2.459   1.927  18.579  0.00  0.00    +0.000 A 
ATOM     15  C   UNL     1       3.592   2.471  17.965  0.00  0.00    +0.000 A 
BRANCH  13  16
ATOM     16  N   UNL     1       0.217   2.178  19.470  0.00  0.00    +0.000 N 
ATOM     17  H   UNL     1       0.436   1.962  20.440  0.00  0.00    +0.000 HD
ATOM     18  H   UNL     1      -0.628   2.733  19.386  0.00  0.00    +0.000 HD
ENDBRANCH  13  16
ENDBRANCH   3  10
BRANCH   6  19
ATOM     19  C   UNL     1       6.115   3.503  12.678  0.00  0.00    +0.000 A 
ATOM     20  C   UNL     1       6.840   2.381  12.255  0.00  0.00    +0.000 A 
ATOM     21  C   UNL     1       6.362   1.556  11.229  0.00  0.00    +0.000 A 
ATOM     22  C   UNL     1       5.141   1.832  10.622  0.00  0.00    +0.000 A 
ATOM     23  C   UNL     1       4.390   2.941  11.025  0.00  0.00    +0.000 A 
ATOM     24  C   UNL     1       4.897   3.773  12.039  0.00  0.00    +0.000 A 
BRANCH  23  25
ATOM     25  C   UNL     1       3.065   3.270  10.384  0.00  0.00    +0.000 C 
ATOM     26  F   UNL     1       2.876   4.602  10.171  0.00  0.00    +0.000 F 
ATOM     27  F   UNL     1       2.910   2.671   9.171  0.00  0.00    +0.000 F 
ATOM     28  F   UNL     1       2.009   2.859  11.140  0.00  0.00    +0.000 F 
ENDBRANCH  23  25
ENDBRANCH   6  19
BRANCH   1  32
ATOM     29  C   UNL     1       8.798   8.634  18.418  0.00  0.00    +0.000 C 
ATOM     30  C   UNL     1       7.644   8.018  17.677  0.00  0.00    +0.000 C 
ATOM     31  O   UNL     1       6.766   8.723  17.190  0.00  0.00    +0.000 OA
ATOM     32  N   UNL     1       7.690   6.636  17.628  0.00  0.00    +0.000 N 
ATOM     33  H   UNL     1       8.290   6.152  18.292  0.00  0.00    +0.000 HD
ENDBRANCH   1  32
TORSDOF 5
ENDMDL
MODEL 9
REMARK VINA RESULT:      -7.8      5.118      7.876
REMARK  Name = 
REMARK  6 active torsions:
REMARK  status: ('A' for Active; 'I' for Inactive)
REMARK    1  A    between atoms: C_1  and  C_2
REMARK    2  A    between atoms: N_4  and  C_5
REMARK    3  A    between atoms: C_7  and  C_8
REMARK    4  A    between atoms: C_11  and  N_12
REMARK    5  A    between atoms: C_17  and  C_18
REMARK    6  A    between atoms: C_22  and  C_23
REMARK                            x       y       z     vdW  Elec       q    Type
REMARK                         _______ _______ _______ _____ _____    ______ ____
ROOT
ATOM      1  C   UNL     1       1.863   4.198  19.912  0.00  0.00    +0.000 A 
ATOM      2  C   UNL     1       1.624   5.523  19.842  0.00  0.00    +0.000 A 
ATOM      3  C   UNL     1       2.322   6.391  18.905  0.00  0.00    +0.000 A 
ATOM      4  C   UNL     1       3.209   5.828  18.062  0.00  0.00    +0.000 A 
ATOM      5  N   UNL     1       3.506   4.466  18.160  0.00  0.00    +0.000 N 
ATOM      6  C   UNL     1       4.402   3.680  17.435  0.00  0.00    +0.000 A 
ATOM      7  C   UNL     1       4.234   2.409  17.975  0.00  0.00    +0.000 A 
ATOM      8  N   UNL     1       3.312   2.381  18.985  0.00  0.00    +0.000 NA
ATOM      9  C   UNL     1       2.879   3.626  19.082  0.00  0.00    +0.000 A 
ENDROOT
BRANCH   3  10
ATOM     10  C   UNL     1       2.068   7.830  18.800  0.00  0.00    +0.000 A 
ATOM     11  C   UNL     1       1.375   8.494  19.814  0.00  0.00    +0.000 A 
ATOM     12  C   UNL     1       1.126   9.866  19.713  0.00  0.00    +0.000 A 
ATOM     13  C   UNL     1       1.601  10.600  18.624  0.00  0.00    +0.000 A 
ATOM     14  C   UNL     1       2.239   9.919  17.583  0.00  0.00    +0.000 A 
ATOM     15  C   UNL     1       2.493   8.547  17.676  0.00  0.00    +0.000 A 
BRANCH  13  16
ATOM     16  N   UNL     1       1.244  11.945  18.473  0.00  0.00    +0.000 N 
ATOM     17  H   UNL     1       2.004  12.593  18.669  0.00  0.00    +0.000 HD
ATOM     18  H   UNL     1       0.788  12.150  17.591  0.00  0.00    +0.000 HD
ENDBRANCH  13  16
ENDBRANCH   3  10
BRANCH   6  19
ATOM     19  C   UNL     1       5.292   4.111  16.349  0.00  0.00    +0.000 A 
ATOM     20  C   UNL     1       6.292   5.061  16.597  0.00  0.00    +0.000 A 
ATOM     21  C   UNL     1       7.114   5.532  15.566  0.00  0.00    +0.000 A 
ATOM     22  C   UNL     1       6.961   5.044  14.272  0.00  0.00    +0.000 A 
ATOM     23  C   UNL     1       5.977   4.090  13.992  0.00  0.00    +0.000 A 
ATOM     24  C   UNL     1       5.142   3.649  15.034  0.00  0.00    +0.000 A 
BRANCH  23  25
ATOM     25  C   UNL     1       5.781   3.545  12.599  0.00  0.00    +0.000 C 
ATOM     26  F   UNL     1       5.991   2.203  12.502  0.00  0.00    +0.000 F 
ATOM     27  F   UNL     1       4.523   3.763  12.127  0.00  0.00    +0.000 F 
ATOM     28  F   UNL     1       6.622   4.122  11.697  0.00  0.00    +0.000 F 
ENDBRANCH  23  25
ENDBRANCH   6  19
BRANCH   1  32
ATOM     29  C   UNL     1       0.673   1.790  22.521  0.00  0.00    +0.000 C 
ATOM     30  C   UNL     1       1.657   2.708  21.851  0.00  0.00    +0.000 C 
ATOM     31  O   UNL     1       2.782   2.864  22.316  0.00  0.00    +0.000 OA
ATOM     32  N   UNL     1       1.159   3.326  20.719  0.00  0.00    +0.000 N 
ATOM     33  H   UNL     1       0.150   3.349  20.589  0.00  0.00    +0.000 HD
ENDBRANCH   1  32
TORSDOF 5
ENDMDL
