MODEL 1
REMARK VINA RESULT:      -8.1      0.000      0.000
REMARK  Name = 
REMARK  10 active torsions:
REMARK  status: ('A' for Active; 'I' for Inactive)
REMARK    1  A    between atoms: C_1  and  C_2
REMARK    2  A    between atoms: C_4  and  N_5
REMARK    3  A    between atoms: N_5  and  C_6
REMARK    4  A    between atoms: C_6  and  C_7
REMARK    5  A    between atoms: C_7  and  N_8
REMARK    6  A    between atoms: C_7  and  C_9
REMARK    7  A    between atoms: N_18  and  C_19
REMARK    8  A    between atoms: C_19  and  C_20
REMARK    9  A    between atoms: C_19  and  C_23
REMARK   10  A    between atoms: C_20  and  C_21
REMARK                            x       y       z     vdW  Elec       q    Type
REMARK                         _______ _______ _______ _____ _____    ______ ____
ROOT
ATOM      1  C   UNL     1      -0.384   9.451  22.998  0.00  0.00    +0.000 C 
ATOM      2  C   UNL     1       0.351   9.227  21.696  0.00  0.00    +0.000 A 
ATOM      3  C   UNL     1       0.143  10.256  20.645  0.00  0.00    +0.000 A 
ATOM      4  C   UNL     1       0.749  10.070  19.466  0.00  0.00    +0.000 A 
ATOM      5  N   UNL     1       1.543   8.897  19.304  0.00  0.00    +0.000 N 
ATOM      6  N   UNL     1       2.242   8.461  18.229  0.00  0.00    +0.000 NA
ATOM      7  C   UNL     1       2.787   7.322  18.677  0.00  0.00    +0.000 A 
ATOM      8  N   UNL     1       3.566   6.545  17.916  0.00  0.00    +0.000 N 
ATOM      9  N   UNL     1       2.487   7.004  19.967  0.00  0.00    +0.000 NA
ATOM     10  C   UNL     1       1.700   7.979  20.365  0.00  0.00    +0.000 A 
ATOM     11  N   UNL     1       1.086   8.151  21.566  0.00  0.00    +0.000 NA
ATOM     12  H   UNL     1       3.581   6.761  16.928  0.00  0.00    +0.000 HD
ENDROOT
BRANCH   4  13
ATOM     13  N   UNL     1       0.572  10.977  18.424  0.00  0.00    +0.000 N 
ATOM     14  H   UNL     1       0.379  10.574  17.509  0.00  0.00    +0.000 HD
BRANCH  13  15
ATOM     15  C   UNL     1       0.705  12.438  18.519  0.00  0.00    +0.000 C 
BRANCH  15  16
ATOM     16  C   UNL     1      -0.671  13.146  18.368  0.00  0.00    +0.000 C 
BRANCH  16  17
ATOM     17  C   UNL     1      -1.358  13.246  19.722  0.00  0.00    +0.000 A 
ATOM     18  C   UNL     1      -0.781  13.983  20.755  0.00  0.00    +0.000 A 
ATOM     19  C   UNL     1      -1.445  14.067  21.976  0.00  0.00    +0.000 A 
ATOM     20  C   UNL     1      -2.667  13.426  22.135  0.00  0.00    +0.000 A 
ATOM     21  C   UNL     1      -3.181  12.724  21.056  0.00  0.00    +0.000 A 
ATOM     22  N   UNL     1      -2.560  12.619  19.860  0.00  0.00    +0.000 NA
ENDBRANCH  16  17
BRANCH  16  23
ATOM     23  N   UNL     1      -1.544  12.471  17.380  0.00  0.00    +0.000 NA
ATOM     24  H   UNL     1      -2.474  12.425  17.802  0.00  0.00    +0.000 HD
ATOM     25  H   UNL     1      -1.219  11.509  17.298  0.00  0.00    +0.000 HD
ENDBRANCH  16  23
ENDBRANCH  15  16
ENDBRANCH  13  15
ENDBRANCH   4  13
BRANCH   8  26
ATOM     26  C   UNL     1       4.114   5.257  18.341  0.00  0.00    +0.000 C 
BRANCH  26  27
ATOM     27  C   UNL     1       2.983   4.286  18.737  0.00  0.00    +0.000 A 
ATOM     28  C   UNL     1       2.010   3.918  17.783  0.00  0.00    +0.000 A 
ATOM     29  C   UNL     1       0.920   3.112  18.127  0.00  0.00    +0.000 A 
ATOM     30  C   UNL     1       0.787   2.635  19.429  0.00  0.00    +0.000 A 
ATOM     31  C   UNL     1       1.738   2.985  20.382  0.00  0.00    +0.000 A 
ATOM     32 CL   UNL     1       1.581   2.397  21.994  0.00  0.00    +0.000 Cl
ATOM     33  C   UNL     1       2.814   3.816  20.053  0.00  0.00    +0.000 A 
ENDBRANCH  26  27
BRANCH  26  34
ATOM     34  C   UNL     1       4.979   4.647  17.217  0.00  0.00    +0.000 C 
BRANCH  34  35
ATOM     35  C   UNL     1       5.186   5.675  16.116  0.00  0.00    +0.000 C 
ATOM     36  N   UNL     1       5.357   6.528  15.204  0.00  0.00    +0.000 NA
ENDBRANCH  34  35
ENDBRANCH  26  34
ENDBRANCH   8  26
TORSDOF 9
ENDMDL
MODEL 2
REMARK VINA RESULT:      -8.0      3.119      8.548
REMARK  Name = 
REMARK  10 active torsions:
REMARK  status: ('A' for Active; 'I' for Inactive)
REMARK    1  A    between atoms: C_1  and  C_2
REMARK    2  A    between atoms: C_4  and  N_5
REMARK    3  A    between atoms: N_5  and  C_6
REMARK    4  A    between atoms: C_6  and  C_7
REMARK    5  A    between atoms: C_7  and  N_8
REMARK    6  A    between atoms: C_7  and  C_9
REMARK    7  A    between atoms: N_18  and  C_19
REMARK    8  A    between atoms: C_19  and  C_20
REMARK    9  A    between atoms: C_19  and  C_23
REMARK   10  A    between atoms: C_20  and  C_21
REMARK                            x       y       z     vdW  Elec       q    Type
REMARK                         _______ _______ _______ _____ _____    ______ ____
ROOT
ATOM      1  C   UNL     1       2.499   4.178  21.170  0.00  0.00    +0.000 C 
ATOM      2  C   UNL     1       2.523   5.292  20.148  0.00  0.00    +0.000 A 
ATOM      3  C   UNL     1       3.367   5.056  18.948  0.00  0.00    +0.000 A 
ATOM      4  C   UNL     1       3.441   6.036  18.039  0.00  0.00    +0.000 A 
ATOM      5  N   UNL     1       2.712   7.234  18.292  0.00  0.00    +0.000 N 
ATOM      6  N   UNL     1       2.624   8.371  17.560  0.00  0.00    +0.000 NA
ATOM      7  C   UNL     1       1.793   9.126  18.291  0.00  0.00    +0.000 A 
ATOM      8  N   UNL     1       1.434  10.362  17.930  0.00  0.00    +0.000 N 
ATOM      9  N   UNL     1       1.341   8.547  19.439  0.00  0.00    +0.000 NA
ATOM     10  C   UNL     1       1.919   7.366  19.453  0.00  0.00    +0.000 A 
ATOM     11  N   UNL     1       1.839   6.382  20.388  0.00  0.00    +0.000 NA
ATOM     12  H   UNL     1       1.959  10.774  17.170  0.00  0.00    +0.000 HD
ENDROOT
BRANCH   4  13
ATOM     13  N   UNL     1       4.239   5.897  16.906  0.00  0.00    +0.000 N 
ATOM     14  H   UNL     1       4.417   6.749  16.378  0.00  0.00    +0.000 HD
BRANCH  13  15
ATOM     15  C   UNL     1       4.781   4.636  16.381  0.00  0.00    +0.000 C 
BRANCH  15  16
ATOM     16  C   UNL     1       6.288   4.768  16.024  0.00  0.00    +0.000 C 
BRANCH  16  17
ATOM     17  C   UNL     1       6.980   5.697  17.012  0.00  0.00    +0.000 A 
ATOM     18  C   UNL     1       7.454   5.209  18.228  0.00  0.00    +0.000 A 
ATOM     19  C   UNL     1       8.096   6.082  19.101  0.00  0.00    +0.000 A 
ATOM     20  C   UNL     1       8.258   7.413  18.739  0.00  0.00    +0.000 A 
ATOM     21  C   UNL     1       7.771   7.819  17.505  0.00  0.00    +0.000 A 
ATOM     22  N   UNL     1       7.140   6.997  16.638  0.00  0.00    +0.000 NA
ENDBRANCH  16  17
BRANCH  16  23
ATOM     23  N   UNL     1       6.497   5.226  14.631  0.00  0.00    +0.000 NA
ATOM     24  H   UNL     1       7.257   5.910  14.664  0.00  0.00    +0.000 HD
ATOM     25  H   UNL     1       5.662   5.739  14.354  0.00  0.00    +0.000 HD
ENDBRANCH  16  23
ENDBRANCH  15  16
ENDBRANCH  13  15
ENDBRANCH   4  13
BRANCH   8  26
ATOM     26  C   UNL     1       0.595  11.248  18.738  0.00  0.00    +0.000 C 
BRANCH  26  27
ATOM     27  C   UNL     1      -0.900  11.004  18.441  0.00  0.00    +0.000 A 
ATOM     28  C   UNL     1      -1.274  10.052  17.468  0.00  0.00    +0.000 A 
ATOM     29  C   UNL     1      -2.612   9.867  17.106  0.00  0.00    +0.000 A 
ATOM     30  C   UNL     1      -3.613  10.611  17.726  0.00  0.00    +0.000 A 
ATOM     31  C   UNL     1      -3.263  11.552  18.690  0.00  0.00    +0.000 A 
ATOM     32 CL   UNL     1      -4.496  12.475  19.461  0.00  0.00    +0.000 Cl
ATOM     33  C   UNL     1      -1.924  11.765  19.033  0.00  0.00    +0.000 A 
ENDBRANCH  26  27
BRANCH  26  34
ATOM     34  C   UNL     1       0.887  11.040  20.239  0.00  0.00    +0.000 C 
BRANCH  34  35
ATOM     35  C   UNL     1       1.122  12.387  20.905  0.00  0.00    +0.000 C 
ATOM     36  N   UNL     1       1.316  13.503  21.457  0.00  0.00    +0.000 NA
ENDBRANCH  34  35
ENDBRANCH  26  34
ENDBRANCH   8  26
TORSDOF 9
ENDMDL
MODEL 3
REMARK VINA RESULT:      -8.0      2.501      2.979
REMARK  Name = 
REMARK  10 active torsions:
REMARK  status: ('A' for Active; 'I' for Inactive)
REMARK    1  A    between atoms: C_1  and  C_2
REMARK    2  A    between atoms: C_4  and  N_5
REMARK    3  A    between atoms: N_5  and  C_6
REMARK    4  A    between atoms: C_6  and  C_7
REMARK    5  A    between atoms: C_7  and  N_8
REMARK    6  A    between atoms: C_7  and  C_9
REMARK    7  A    between atoms: N_18  and  C_19
REMARK    8  A    between atoms: C_19  and  C_20
REMARK    9  A    between atoms: C_19  and  C_23
REMARK   10  A    between atoms: C_20  and  C_21
REMARK                            x       y       z     vdW  Elec       q    Type
REMARK                         _______ _______ _______ _____ _____    ______ ____
ROOT
ATOM      1  C   UNL     1      -0.457  10.045  22.820  0.00  0.00    +0.000 C 
ATOM      2  C   UNL     1       0.031   9.773  21.415  0.00  0.00    +0.000 A 
ATOM      3  C   UNL     1      -0.726  10.437  20.323  0.00  0.00    +0.000 A 
ATOM      4  C   UNL     1      -0.345  10.190  19.064  0.00  0.00    +0.000 A 
ATOM      5  N   UNL     1       0.753   9.303  18.864  0.00  0.00    +0.000 N 
ATOM      6  N   UNL     1       1.326   8.873  17.715  0.00  0.00    +0.000 NA
ATOM      7  C   UNL     1       2.308   8.076  18.157  0.00  0.00    +0.000 A 
ATOM      8  N   UNL     1       3.135   7.422  17.334  0.00  0.00    +0.000 N 
ATOM      9  N   UNL     1       2.403   7.972  19.513  0.00  0.00    +0.000 NA
ATOM     10  C   UNL     1       1.427   8.729  19.964  0.00  0.00    +0.000 A 
ATOM     11  N   UNL     1       1.047   8.965  21.247  0.00  0.00    +0.000 NA
ATOM     12  H   UNL     1       2.874   7.412  16.357  0.00  0.00    +0.000 HD
ENDROOT
BRANCH   4  13
ATOM     13  N   UNL     1      -1.030  10.753  17.989  0.00  0.00    +0.000 N 
ATOM     14  H   UNL     1      -0.632  11.609  17.606  0.00  0.00    +0.000 HD
BRANCH  13  15
ATOM     15  C   UNL     1      -2.290  10.262  17.416  0.00  0.00    +0.000 C 
BRANCH  15  16
ATOM     16  C   UNL     1      -3.105  11.414  16.761  0.00  0.00    +0.000 C 
BRANCH  16  17
ATOM     17  C   UNL     1      -4.522  11.432  17.315  0.00  0.00    +0.000 A 
ATOM     18  C   UNL     1      -4.932  10.472  18.239  0.00  0.00    +0.000 A 
ATOM     19  C   UNL     1      -6.231  10.528  18.737  0.00  0.00    +0.000 A 
ATOM     20  C   UNL     1      -7.082  11.540  18.314  0.00  0.00    +0.000 A 
ATOM     21  C   UNL     1      -6.595  12.466  17.403  0.00  0.00    +0.000 A 
ATOM     22  N   UNL     1      -5.343  12.436  16.898  0.00  0.00    +0.000 NA
ENDBRANCH  16  17
BRANCH  16  23
ATOM     23  N   UNL     1      -3.115  11.322  15.283  0.00  0.00    +0.000 NA
ATOM     24  H   UNL     1      -2.559  12.110  14.942  0.00  0.00    +0.000 HD
ATOM     25  H   UNL     1      -4.072  11.493  14.977  0.00  0.00    +0.000 HD
ENDBRANCH  16  23
ENDBRANCH  15  16
ENDBRANCH  13  15
ENDBRANCH   4  13
BRANCH   8  26
ATOM     26  C   UNL     1       4.166   6.483  17.775  0.00  0.00    +0.000 C 
BRANCH  26  27
ATOM     27  C   UNL     1       3.590   5.057  17.896  0.00  0.00    +0.000 A 
ATOM     28  C   UNL     1       4.061   4.036  17.042  0.00  0.00    +0.000 A 
ATOM     29  C   UNL     1       3.501   2.755  17.059  0.00  0.00    +0.000 A 
ATOM     30  C   UNL     1       2.472   2.454  17.948  0.00  0.00    +0.000 A 
ATOM     31  C   UNL     1       1.997   3.446  18.800  0.00  0.00    +0.000 A 
ATOM     32 CL   UNL     1       0.725   3.080  19.902  0.00  0.00    +0.000 Cl
ATOM     33  C   UNL     1       2.530   4.739  18.765  0.00  0.00    +0.000 A 
ENDBRANCH  26  27
BRANCH  26  34
ATOM     34  C   UNL     1       5.359   6.500  16.796  0.00  0.00    +0.000 C 
BRANCH  34  35
ATOM     35  C   UNL     1       6.656   6.662  17.573  0.00  0.00    +0.000 C 
ATOM     36  N   UNL     1       7.730   6.796  18.218  0.00  0.00    +0.000 NA
ENDBRANCH  34  35
ENDBRANCH  26  34
ENDBRANCH   8  26
TORSDOF 9
ENDMDL
MODEL 4
REMARK VINA RESULT:      -7.9      3.276      8.946
REMARK  Name = 
REMARK  10 active torsions:
REMARK  status: ('A' for Active; 'I' for Inactive)
REMARK    1  A    between atoms: C_1  and  C_2
REMARK    2  A    between atoms: C_4  and  N_5
REMARK    3  A    between atoms: N_5  and  C_6
REMARK    4  A    between atoms: C_6  and  C_7
REMARK    5  A    between atoms: C_7  and  N_8
REMARK    6  A    between atoms: C_7  and  C_9
REMARK    7  A    between atoms: N_18  and  C_19
REMARK    8  A    between atoms: C_19  and  C_20
REMARK    9  A    between atoms: C_19  and  C_23
REMARK   10  A    between atoms: C_20  and  C_21
REMARK                            x       y       z     vdW  Elec       q    Type
REMARK                         _______ _______ _______ _____ _____    ______ ____
ROOT
ATOM      1  C   UNL     1       4.944   6.382  16.150  0.00  0.00    +0.000 C 
ATOM      2  C   UNL     1       4.031   6.878  17.249  0.00  0.00    +0.000 A 
ATOM      3  C   UNL     1       3.945   6.022  18.460  0.00  0.00    +0.000 A 
ATOM      4  C   UNL     1       3.117   6.412  19.438  0.00  0.00    +0.000 A 
ATOM      5  N   UNL     1       2.376   7.613  19.242  0.00  0.00    +0.000 N 
ATOM      6  N   UNL     1       1.471   8.219  20.048  0.00  0.00    +0.000 NA
ATOM      7  C   UNL     1       1.129   9.303  19.341  0.00  0.00    +0.000 A 
ATOM      8  N   UNL     1       0.231  10.195  19.773  0.00  0.00    +0.000 N 
ATOM      9  N   UNL     1       1.758   9.434  18.139  0.00  0.00    +0.000 NA
ATOM     10  C   UNL     1       2.533   8.376  18.064  0.00  0.00    +0.000 A 
ATOM     11  N   UNL     1       3.364   7.989  17.060  0.00  0.00    +0.000 NA
ATOM     12  H   UNL     1      -0.314   9.922  20.580  0.00  0.00    +0.000 HD
ENDROOT
BRANCH   4  13
ATOM     13  N   UNL     1       2.963   5.641  20.588  0.00  0.00    +0.000 N 
ATOM     14  H   UNL     1       3.792   5.538  21.171  0.00  0.00    +0.000 HD
BRANCH  13  15
ATOM     15  C   UNL     1       1.745   4.924  20.989  0.00  0.00    +0.000 C 
BRANCH  15  16
ATOM     16  C   UNL     1       2.039   3.428  21.293  0.00  0.00    +0.000 C 
BRANCH  16  17
ATOM     17  C   UNL     1       2.626   2.750  20.064  0.00  0.00    +0.000 A 
ATOM     18  C   UNL     1       1.860   2.591  18.911  0.00  0.00    +0.000 A 
ATOM     19  C   UNL     1       2.433   1.981  17.798  0.00  0.00    +0.000 A 
ATOM     20  C   UNL     1       3.753   1.555  17.858  0.00  0.00    +0.000 A 
ATOM     21  C   UNL     1       4.454   1.761  19.036  0.00  0.00    +0.000 A 
ATOM     22  N   UNL     1       3.926   2.346  20.134  0.00  0.00    +0.000 NA
ENDBRANCH  16  17
BRANCH  16  23
ATOM     23  N   UNL     1       0.838   2.706  21.772  0.00  0.00    +0.000 NA
ATOM     24  H   UNL     1       0.381   3.324  22.447  0.00  0.00    +0.000 HD
ATOM     25  H   UNL     1       1.162   1.897  22.299  0.00  0.00    +0.000 HD
ENDBRANCH  16  23
ENDBRANCH  15  16
ENDBRANCH  13  15
ENDBRANCH   4  13
BRANCH   8  26
ATOM     26  C   UNL     1      -0.228  11.348  18.999  0.00  0.00    +0.000 C 
BRANCH  26  27
ATOM     27  C   UNL     1      -1.619  11.078  18.390  0.00  0.00    +0.000 A 
ATOM     28  C   UNL     1      -1.754  10.148  17.336  0.00  0.00    +0.000 A 
ATOM     29  C   UNL     1      -2.981   9.942  16.698  0.00  0.00    +0.000 A 
ATOM     30  C   UNL     1      -4.111  10.643  17.113  0.00  0.00    +0.000 A 
ATOM     31  C   UNL     1      -3.998  11.561  18.152  0.00  0.00    +0.000 A 
ATOM     32 CL   UNL     1      -5.392  12.431  18.670  0.00  0.00    +0.000 Cl
ATOM     33  C   UNL     1      -2.767  11.796  18.773  0.00  0.00    +0.000 A 
ENDBRANCH  26  27
BRANCH  26  34
ATOM     34  C   UNL     1      -0.265  12.610  19.888  0.00  0.00    +0.000 C 
BRANCH  34  35
ATOM     35  C   UNL     1       0.603  13.695  19.270  0.00  0.00    +0.000 C 
ATOM     36  N   UNL     1       1.323  14.594  18.759  0.00  0.00    +0.000 NA
ENDBRANCH  34  35
ENDBRANCH  26  34
ENDBRANCH   8  26
TORSDOF 9
ENDMDL
MODEL 5
REMARK VINA RESULT:      -7.9      3.506      9.796
REMARK  Name = 
REMARK  10 active torsions:
REMARK  status: ('A' for Active; 'I' for Inactive)
REMARK    1  A    between atoms: C_1  and  C_2
REMARK    2  A    between atoms: C_4  and  N_5
REMARK    3  A    between atoms: N_5  and  C_6
REMARK    4  A    between atoms: C_6  and  C_7
REMARK    5  A    between atoms: C_7  and  N_8
REMARK    6  A    between atoms: C_7  and  C_9
REMARK    7  A    between atoms: N_18  and  C_19
REMARK    8  A    between atoms: C_19  and  C_20
REMARK    9  A    between atoms: C_19  and  C_23
REMARK   10  A    between atoms: C_20  and  C_21
REMARK                            x       y       z     vdW  Elec       q    Type
REMARK                         _______ _______ _______ _____ _____    ______ ____
ROOT
ATOM      1  C   UNL     1       2.368   4.456  21.189  0.00  0.00    +0.000 C 
ATOM      2  C   UNL     1       2.440   5.583  20.183  0.00  0.00    +0.000 A 
ATOM      3  C   UNL     1       3.288   5.336  18.989  0.00  0.00    +0.000 A 
ATOM      4  C   UNL     1       3.405   6.327  18.095  0.00  0.00    +0.000 A 
ATOM      5  N   UNL     1       2.714   7.544  18.359  0.00  0.00    +0.000 N 
ATOM      6  N   UNL     1       2.672   8.694  17.644  0.00  0.00    +0.000 NA
ATOM      7  C   UNL     1       1.859   9.466  18.377  0.00  0.00    +0.000 A 
ATOM      8  N   UNL     1       1.545  10.719  18.031  0.00  0.00    +0.000 N 
ATOM      9  N   UNL     1       1.376   8.886  19.511  0.00  0.00    +0.000 NA
ATOM     10  C   UNL     1       1.913   7.686  19.514  0.00  0.00    +0.000 A 
ATOM     11  N   UNL     1       1.790   6.692  20.433  0.00  0.00    +0.000 NA
ATOM     12  H   UNL     1       2.092  11.124  17.282  0.00  0.00    +0.000 HD
ENDROOT
BRANCH   4  13
ATOM     13  N   UNL     1       4.210   6.177  16.969  0.00  0.00    +0.000 N 
ATOM     14  H   UNL     1       4.230   6.967  16.326  0.00  0.00    +0.000 HD
BRANCH  13  15
ATOM     15  C   UNL     1       4.966   4.972  16.601  0.00  0.00    +0.000 C 
BRANCH  15  16
ATOM     16  C   UNL     1       6.417   5.321  16.163  0.00  0.00    +0.000 C 
BRANCH  16  17
ATOM     17  C   UNL     1       6.650   4.877  14.726  0.00  0.00    +0.000 A 
ATOM     18  C   UNL     1       5.839   3.902  14.147  0.00  0.00    +0.000 A 
ATOM     19  C   UNL     1       6.069   3.532  12.825  0.00  0.00    +0.000 A 
ATOM     20  C   UNL     1       7.091   4.145  12.112  0.00  0.00    +0.000 A 
ATOM     21  C   UNL     1       7.845   5.115  12.754  0.00  0.00    +0.000 A 
ATOM     22  N   UNL     1       7.650   5.494  14.036  0.00  0.00    +0.000 NA
ENDBRANCH  16  17
BRANCH  16  23
ATOM     23  N   UNL     1       7.432   4.735  17.068  0.00  0.00    +0.000 NA
ATOM     24  H   UNL     1       7.403   5.288  17.929  0.00  0.00    +0.000 HD
ATOM     25  H   UNL     1       8.344   4.906  16.650  0.00  0.00    +0.000 HD
ENDBRANCH  16  23
ENDBRANCH  15  16
ENDBRANCH  13  15
ENDBRANCH   4  13
BRANCH   8  26
ATOM     26  C   UNL     1       0.728  11.620  18.843  0.00  0.00    +0.000 C 
BRANCH  26  27
ATOM     27  C   UNL     1       1.539  12.863  19.265  0.00  0.00    +0.000 A 
ATOM     28  C   UNL     1       2.082  12.935  20.566  0.00  0.00    +0.000 A 
ATOM     29  C   UNL     1       2.746  14.081  21.016  0.00  0.00    +0.000 A 
ATOM     30  C   UNL     1       2.905  15.175  20.169  0.00  0.00    +0.000 A 
ATOM     31  C   UNL     1       2.379  15.120  18.882  0.00  0.00    +0.000 A 
ATOM     32 CL   UNL     1       2.573  16.469  17.828  0.00  0.00    +0.000 Cl
ATOM     33  C   UNL     1       1.686  13.990  18.436  0.00  0.00    +0.000 A 
ENDBRANCH  26  27
BRANCH  26  34
ATOM     34  C   UNL     1      -0.538  12.042  18.065  0.00  0.00    +0.000 C 
BRANCH  34  35
ATOM     35  C   UNL     1      -1.484  10.858  17.951  0.00  0.00    +0.000 C 
ATOM     36  N   UNL     1      -2.269   9.877  17.855  0.00  0.00    +0.000 NA
ENDBRANCH  34  35
ENDBRANCH  26  34
ENDBRANCH   8  26
TORSDOF 9
ENDMDL
MODEL 6
REMARK VINA RESULT:      -7.9      1.062      1.471
REMARK  Name = 
REMARK  10 active torsions:
REMARK  status: ('A' for Active; 'I' for Inactive)
REMARK    1  A    between atoms: C_1  and  C_2
REMARK    2  A    between atoms: C_4  and  N_5
REMARK    3  A    between atoms: N_5  and  C_6
REMARK    4  A    between atoms: C_6  and  C_7
REMARK    5  A    between atoms: C_7  and  N_8
REMARK    6  A    between atoms: C_7  and  C_9
REMARK    7  A    between atoms: N_18  and  C_19
REMARK    8  A    between atoms: C_19  and  C_20
REMARK    9  A    between atoms: C_19  and  C_23
REMARK   10  A    between atoms: C_20  and  C_21
REMARK                            x       y       z     vdW  Elec       q    Type
REMARK                         _______ _______ _______ _____ _____    ______ ____
ROOT
ATOM      1  C   UNL     1       0.088   9.372  23.100  0.00  0.00    +0.000 C 
ATOM      2  C   UNL     1       0.604   9.154  21.696  0.00  0.00    +0.000 A 
ATOM      3  C   UNL     1       0.095  10.092  20.663  0.00  0.00    +0.000 A 
ATOM      4  C   UNL     1       0.502   9.905  19.401  0.00  0.00    +0.000 A 
ATOM      5  N   UNL     1       1.387   8.818  19.142  0.00  0.00    +0.000 N 
ATOM      6  N   UNL     1       1.933   8.399  17.975  0.00  0.00    +0.000 NA
ATOM      7  C   UNL     1       2.678   7.354  18.358  0.00  0.00    +0.000 A 
ATOM      8  N   UNL     1       3.397   6.624  17.499  0.00  0.00    +0.000 N 
ATOM      9  N   UNL     1       2.649   7.081  19.693  0.00  0.00    +0.000 NA
ATOM     10  C   UNL     1       1.836   7.986  20.190  0.00  0.00    +0.000 A 
ATOM     11  N   UNL     1       1.425   8.159  21.475  0.00  0.00    +0.000 NA
ATOM     12  H   UNL     1       3.212   6.783  16.517  0.00  0.00    +0.000 HD
ENDROOT
BRANCH   4  13
ATOM     13  N   UNL     1       0.040  10.726  18.375  0.00  0.00    +0.000 N 
ATOM     14  H   UNL     1       0.650  11.498  18.111  0.00  0.00    +0.000 HD
BRANCH  13  15
ATOM     15  C   UNL     1      -1.260  10.615  17.699  0.00  0.00    +0.000 C 
BRANCH  15  16
ATOM     16  C   UNL     1      -2.037  11.962  17.734  0.00  0.00    +0.000 C 
BRANCH  16  17
ATOM     17  C   UNL     1      -1.398  12.909  18.739  0.00  0.00    +0.000 A 
ATOM     18  C   UNL     1      -1.910  13.019  20.031  0.00  0.00    +0.000 A 
ATOM     19  C   UNL     1      -1.291  13.883  20.929  0.00  0.00    +0.000 A 
ATOM     20  C   UNL     1      -0.176  14.606  20.525  0.00  0.00    +0.000 A 
ATOM     21  C   UNL     1       0.281  14.430  19.228  0.00  0.00    +0.000 A 
ATOM     22  N   UNL     1      -0.299  13.604  18.331  0.00  0.00    +0.000 NA
ENDBRANCH  16  17
BRANCH  16  23
ATOM     23  N   UNL     1      -3.476  11.771  18.028  0.00  0.00    +0.000 NA
ATOM     24  H   UNL     1      -3.606  10.770  18.194  0.00  0.00    +0.000 HD
ATOM     25  H   UNL     1      -3.990  11.989  17.176  0.00  0.00    +0.000 HD
ENDBRANCH  16  23
ENDBRANCH  15  16
ENDBRANCH  13  15
ENDBRANCH   4  13
BRANCH   8  26
ATOM     26  C   UNL     1       4.159   5.430  17.865  0.00  0.00    +0.000 C 
BRANCH  26  27
ATOM     27  C   UNL     1       3.227   4.340  18.432  0.00  0.00    +0.000 A 
ATOM     28  C   UNL     1       2.201   3.806  17.623  0.00  0.00    +0.000 A 
ATOM     29  C   UNL     1       1.280   2.882  18.128  0.00  0.00    +0.000 A 
ATOM     30  C   UNL     1       1.375   2.452  19.449  0.00  0.00    +0.000 A 
ATOM     31  C   UNL     1       2.382   2.965  20.261  0.00  0.00    +0.000 A 
ATOM     32 CL   UNL     1       2.506   2.436  21.895  0.00  0.00    +0.000 Cl
ATOM     33  C   UNL     1       3.286   3.913  19.771  0.00  0.00    +0.000 A 
ENDBRANCH  26  27
BRANCH  26  34
ATOM     34  C   UNL     1       4.934   4.894  16.642  0.00  0.00    +0.000 C 
BRANCH  34  35
ATOM     35  C   UNL     1       6.246   5.648  16.498  0.00  0.00    +0.000 C 
ATOM     36  N   UNL     1       7.334   6.272  16.379  0.00  0.00    +0.000 NA
ENDBRANCH  34  35
ENDBRANCH  26  34
ENDBRANCH   8  26
TORSDOF 9
ENDMDL
MODEL 7
REMARK VINA RESULT:      -7.8      3.251      9.174
REMARK  Name = 
REMARK  10 active torsions:
REMARK  status: ('A' for Active; 'I' for Inactive)
REMARK    1  A    between atoms: C_1  and  C_2
REMARK    2  A    between atoms: C_4  and  N_5
REMARK    3  A    between atoms: N_5  and  C_6
REMARK    4  A    between atoms: C_6  and  C_7
REMARK    5  A    between atoms: C_7  and  N_8
REMARK    6  A    between atoms: C_7  and  C_9
REMARK    7  A    between atoms: N_18  and  C_19
REMARK    8  A    between atoms: C_19  and  C_20
REMARK    9  A    between atoms: C_19  and  C_23
REMARK   10  A    between atoms: C_20  and  C_21
REMARK                            x       y       z     vdW  Elec       q    Type
REMARK                         _______ _______ _______ _____ _____    ______ ____
ROOT
ATOM      1  C   UNL     1       2.228   3.999  21.429  0.00  0.00    +0.000 C 
ATOM      2  C   UNL     1       2.348   5.100  20.400  0.00  0.00    +0.000 A 
ATOM      3  C   UNL     1       3.165   4.783  19.200  0.00  0.00    +0.000 A 
ATOM      4  C   UNL     1       3.324   5.748  18.285  0.00  0.00    +0.000 A 
ATOM      5  N   UNL     1       2.705   7.008  18.533  0.00  0.00    +0.000 N 
ATOM      6  N   UNL     1       2.717   8.144  17.795  0.00  0.00    +0.000 NA
ATOM      7  C   UNL     1       1.960   8.974  18.524  0.00  0.00    +0.000 A 
ATOM      8  N   UNL     1       1.711  10.236  18.157  0.00  0.00    +0.000 N 
ATOM      9  N   UNL     1       1.461   8.444  19.676  0.00  0.00    +0.000 NA
ATOM     10  C   UNL     1       1.930   7.216  19.695  0.00  0.00    +0.000 A 
ATOM     11  N   UNL     1       1.765   6.249  20.636  0.00  0.00    +0.000 NA
ATOM     12  H   UNL     1       2.268  10.595  17.393  0.00  0.00    +0.000 HD
ENDROOT
BRANCH   4  13
ATOM     13  N   UNL     1       4.103   5.532  17.151  0.00  0.00    +0.000 N 
ATOM     14  H   UNL     1       4.434   6.367  16.671  0.00  0.00    +0.000 HD
BRANCH  13  15
ATOM     15  C   UNL     1       4.425   4.225  16.561  0.00  0.00    +0.000 C 
BRANCH  15  16
ATOM     16  C   UNL     1       5.956   4.061  16.343  0.00  0.00    +0.000 C 
BRANCH  16  17
ATOM     17  C   UNL     1       6.716   5.085  17.174  0.00  0.00    +0.000 A 
ATOM     18  C   UNL     1       7.015   6.340  16.648  0.00  0.00    +0.000 A 
ATOM     19  C   UNL     1       7.697   7.259  17.441  0.00  0.00    +0.000 A 
ATOM     20  C   UNL     1       8.055   6.909  18.737  0.00  0.00    +0.000 A 
ATOM     21  C   UNL     1       7.709   5.646  19.192  0.00  0.00    +0.000 A 
ATOM     22  N   UNL     1       7.052   4.731  18.446  0.00  0.00    +0.000 NA
ENDBRANCH  16  17
BRANCH  16  23
ATOM     23  N   UNL     1       6.332   4.156  14.913  0.00  0.00    +0.000 NA
ATOM     24  H   UNL     1       6.484   3.197  14.591  0.00  0.00    +0.000 HD
ATOM     25  H   UNL     1       7.237   4.620  14.869  0.00  0.00    +0.000 HD
ENDBRANCH  16  23
ENDBRANCH  15  16
ENDBRANCH  13  15
ENDBRANCH   4  13
BRANCH   8  26
ATOM     26  C   UNL     1       0.957  11.197  18.961  0.00  0.00    +0.000 C 
BRANCH  26  27
ATOM     27  C   UNL     1       1.790  12.471  19.214  0.00  0.00    +0.000 A 
ATOM     28  C   UNL     1       2.032  12.898  20.538  0.00  0.00    +0.000 A 
ATOM     29  C   UNL     1       2.705  14.094  20.807  0.00  0.00    +0.000 A 
ATOM     30  C   UNL     1       3.174  14.882  19.759  0.00  0.00    +0.000 A 
ATOM     31  C   UNL     1       2.948  14.476  18.448  0.00  0.00    +0.000 A 
ATOM     32 CL   UNL     1       3.527  15.445  17.147  0.00  0.00    +0.000 Cl
ATOM     33  C   UNL     1       2.248  13.297  18.171  0.00  0.00    +0.000 A 
ENDBRANCH  26  27
BRANCH  26  34
ATOM     34  C   UNL     1      -0.373  11.554  18.262  0.00  0.00    +0.000 C 
BRANCH  34  35
ATOM     35  C   UNL     1      -1.300  12.245  19.249  0.00  0.00    +0.000 C 
ATOM     36  N   UNL     1      -2.068  12.818  20.068  0.00  0.00    +0.000 NA
ENDBRANCH  34  35
ENDBRANCH  26  34
ENDBRANCH   8  26
TORSDOF 9
ENDMDL
MODEL 8
REMARK VINA RESULT:      -7.7      2.245      2.641
REMARK  Name = 
REMARK  10 active torsions:
REMARK  status: ('A' for Active; 'I' for Inactive)
REMARK    1  A    between atoms: C_1  and  C_2
REMARK    2  A    between atoms: C_4  and  N_5
REMARK    3  A    between atoms: N_5  and  C_6
REMARK    4  A    between atoms: C_6  and  C_7
REMARK    5  A    between atoms: C_7  and  N_8
REMARK    6  A    between atoms: C_7  and  C_9
REMARK    7  A    between atoms: N_18  and  C_19
REMARK    8  A    between atoms: C_19  and  C_20
REMARK    9  A    between atoms: C_19  and  C_23
REMARK   10  A    between atoms: C_20  and  C_21
REMARK                            x       y       z     vdW  Elec       q    Type
REMARK                         _______ _______ _______ _____ _____    ______ ____
ROOT
ATOM      1  C   UNL     1      -0.593  11.181  22.543  0.00  0.00    +0.000 C 
ATOM      2  C   UNL     1      -0.201  10.671  21.175  0.00  0.00    +0.000 A 
ATOM      3  C   UNL     1      -1.007  11.179  20.036  0.00  0.00    +0.000 A 
ATOM      4  C   UNL     1      -0.712  10.720  18.813  0.00  0.00    +0.000 A 
ATOM      5  N   UNL     1       0.349   9.774  18.696  0.00  0.00    +0.000 N 
ATOM      6  N   UNL     1       0.838   9.146  17.600  0.00  0.00    +0.000 NA
ATOM      7  C   UNL     1       1.824   8.396  18.109  0.00  0.00    +0.000 A 
ATOM      8  N   UNL     1       2.582   7.590  17.357  0.00  0.00    +0.000 N 
ATOM      9  N   UNL     1       2.001   8.507  19.456  0.00  0.00    +0.000 NA
ATOM     10  C   UNL     1       1.076   9.360  19.834  0.00  0.00    +0.000 A 
ATOM     11  N   UNL     1       0.782   9.812  21.082  0.00  0.00    +0.000 NA
ATOM     12  H   UNL     1       2.261   7.434  16.410  0.00  0.00    +0.000 HD
ENDROOT
BRANCH   4  13
ATOM     13  N   UNL     1      -1.447  11.127  17.703  0.00  0.00    +0.000 N 
ATOM     14  H   UNL     1      -1.142  11.992  17.258  0.00  0.00    +0.000 HD
BRANCH  13  15
ATOM     15  C   UNL     1      -2.645  10.465  17.169  0.00  0.00    +0.000 C 
BRANCH  15  16
ATOM     16  C   UNL     1      -3.801  11.478  16.936  0.00  0.00    +0.000 C 
BRANCH  16  17
ATOM     17  C   UNL     1      -4.740  11.485  18.133  0.00  0.00    +0.000 A 
ATOM     18  C   UNL     1      -4.410  12.195  19.287  0.00  0.00    +0.000 A 
ATOM     19  C   UNL     1      -5.299  12.193  20.358  0.00  0.00    +0.000 A 
ATOM     20  C   UNL     1      -6.495  11.495  20.251  0.00  0.00    +0.000 A 
ATOM     21  C   UNL     1      -6.758  10.825  19.065  0.00  0.00    +0.000 A 
ATOM     22  N   UNL     1      -5.914  10.804  18.010  0.00  0.00    +0.000 NA
ENDBRANCH  16  17
BRANCH  16  23
ATOM     23  N   UNL     1      -4.542  11.204  15.683  0.00  0.00    +0.000 NA
ATOM     24  H   UNL     1      -5.465  10.864  15.964  0.00  0.00    +0.000 HD
ATOM     25  H   UNL     1      -4.078  10.425  15.222  0.00  0.00    +0.000 HD
ENDBRANCH  16  23
ENDBRANCH  15  16
ENDBRANCH  13  15
ENDBRANCH   4  13
BRANCH   8  26
ATOM     26  C   UNL     1       3.614   6.698  17.883  0.00  0.00    +0.000 C 
BRANCH  26  27
ATOM     27  C   UNL     1       2.986   5.397  18.426  0.00  0.00    +0.000 A 
ATOM     28  C   UNL     1       2.362   4.497  17.536  0.00  0.00    +0.000 A 
ATOM     29  C   UNL     1       1.704   3.353  17.999  0.00  0.00    +0.000 A 
ATOM     30  C   UNL     1       1.673   3.068  19.362  0.00  0.00    +0.000 A 
ATOM     31  C   UNL     1       2.285   3.943  20.254  0.00  0.00    +0.000 A 
ATOM     32 CL   UNL     1       2.252   3.596  21.941  0.00  0.00    +0.000 Cl
ATOM     33  C   UNL     1       2.918   5.105  19.801  0.00  0.00    +0.000 A 
ENDBRANCH  26  27
BRANCH  26  34
ATOM     34  C   UNL     1       4.654   6.377  16.788  0.00  0.00    +0.000 C 
BRANCH  34  35
ATOM     35  C   UNL     1       5.981   7.034  17.136  0.00  0.00    +0.000 C 
ATOM     36  N   UNL     1       7.080   7.578  17.425  0.00  0.00    +0.000 NA
ENDBRANCH  34  35
ENDBRANCH  26  34
ENDBRANCH   8  26
TORSDOF 9
ENDMDL
MODEL 9
REMARK VINA RESULT:      -7.7      0.970      1.286
REMARK  Name = 
REMARK  10 active torsions:
REMARK  status: ('A' for Active; 'I' for Inactive)
REMARK    1  A    between atoms: C_1  and  C_2
REMARK    2  A    between atoms: C_4  and  N_5
REMARK    3  A    between atoms: N_5  and  C_6
REMARK    4  A    between atoms: C_6  and  C_7
REMARK    5  A    between atoms: C_7  and  N_8
REMARK    6  A    between atoms: C_7  and  C_9
REMARK    7  A    between atoms: N_18  and  C_19
REMARK    8  A    between atoms: C_19  and  C_20
REMARK    9  A    between atoms: C_19  and  C_23
REMARK   10  A    between atoms: C_20  and  C_21
REMARK                            x       y       z     vdW  Elec       q    Type
REMARK                         _______ _______ _______ _____ _____    ______ ____
ROOT
ATOM      1  C   UNL     1      -0.515   9.340  22.871  0.00  0.00    +0.000 C 
ATOM      2  C   UNL     1       0.269   9.155  21.592  0.00  0.00    +0.000 A 
ATOM      3  C   UNL     1       0.083  10.204  20.557  0.00  0.00    +0.000 A 
ATOM      4  C   UNL     1       0.734  10.053  19.396  0.00  0.00    +0.000 A 
ATOM      5  N   UNL     1       1.550   8.895  19.238  0.00  0.00    +0.000 N 
ATOM      6  N   UNL     1       2.293   8.493  18.179  0.00  0.00    +0.000 NA
ATOM      7  C   UNL     1       2.839   7.352  18.621  0.00  0.00    +0.000 A 
ATOM      8  N   UNL     1       3.656   6.604  17.872  0.00  0.00    +0.000 N 
ATOM      9  N   UNL     1       2.499   7.001  19.893  0.00  0.00    +0.000 NA
ATOM     10  C   UNL     1       1.684   7.956  20.284  0.00  0.00    +0.000 A 
ATOM     11  N   UNL     1       1.024   8.093  21.464  0.00  0.00    +0.000 NA
ATOM     12  H   UNL     1       3.703   6.842  16.890  0.00  0.00    +0.000 HD
ENDROOT
BRANCH   4  13
ATOM     13  N   UNL     1       0.581  10.981  18.369  0.00  0.00    +0.000 N 
ATOM     14  H   UNL     1       0.174  10.626  17.504  0.00  0.00    +0.000 HD
BRANCH  13  15
ATOM     15  C   UNL     1       1.009  12.386  18.402  0.00  0.00    +0.000 C 
BRANCH  15  16
ATOM     16  C   UNL     1      -0.175  13.350  18.107  0.00  0.00    +0.000 C 
BRANCH  16  17
ATOM     17  C   UNL     1      -0.378  14.302  19.277  0.00  0.00    +0.000 A 
ATOM     18  C   UNL     1      -0.550  13.808  20.569  0.00  0.00    +0.000 A 
ATOM     19  C   UNL     1      -0.717  14.707  21.618  0.00  0.00    +0.000 A 
ATOM     20  C   UNL     1      -0.700  16.071  21.357  0.00  0.00    +0.000 A 
ATOM     21  C   UNL     1      -0.511  16.484  20.047  0.00  0.00    +0.000 A 
ATOM     22  N   UNL     1      -0.350  15.637  19.007  0.00  0.00    +0.000 NA
ENDBRANCH  16  17
BRANCH  16  23
ATOM     23  N   UNL     1      -1.426  12.621  17.794  0.00  0.00    +0.000 NA
ATOM     24  H   UNL     1      -1.193  11.625  17.819  0.00  0.00    +0.000 HD
ATOM     25  H   UNL     1      -1.666  12.835  16.827  0.00  0.00    +0.000 HD
ENDBRANCH  16  23
ENDBRANCH  15  16
ENDBRANCH  13  15
ENDBRANCH   4  13
BRANCH   8  26
ATOM     26  C   UNL     1       4.209   5.315  18.288  0.00  0.00    +0.000 C 
BRANCH  26  27
ATOM     27  C   UNL     1       3.081   4.341  18.689  0.00  0.00    +0.000 A 
ATOM     28  C   UNL     1       2.098   3.981  17.742  0.00  0.00    +0.000 A 
ATOM     29  C   UNL     1       1.011   3.174  18.091  0.00  0.00    +0.000 A 
ATOM     30  C   UNL     1       0.891   2.686  19.389  0.00  0.00    +0.000 A 
ATOM     31  C   UNL     1       1.853   3.027  20.336  0.00  0.00    +0.000 A 
ATOM     32 CL   UNL     1       1.712   2.427  21.944  0.00  0.00    +0.000 Cl
ATOM     33  C   UNL     1       2.925   3.861  20.002  0.00  0.00    +0.000 A 
ENDBRANCH  26  27
BRANCH  26  34
ATOM     34  C   UNL     1       5.067   4.709  17.156  0.00  0.00    +0.000 C 
BRANCH  34  35
ATOM     35  C   UNL     1       5.252   5.737  16.051  0.00  0.00    +0.000 C 
ATOM     36  N   UNL     1       5.406   6.589  15.135  0.00  0.00    +0.000 NA
ENDBRANCH  34  35
ENDBRANCH  26  34
ENDBRANCH   8  26
TORSDOF 9
ENDMDL
