MODEL 1
REMARK VINA RESULT:      -6.2      0.000      0.000
REMARK  Name = 
REMARK  13 active torsions:
REMARK  status: ('A' for Active; 'I' for Inactive)
REMARK    1  A    between atoms: C_1  and  C_2
REMARK    2  A    between atoms: C_2  and  N_3
REMARK    3  A    between atoms: N_3  and  C_4
REMARK    4  A    between atoms: N_3  and  C_6
REMARK    5  A    between atoms: C_4  and  C_5
REMARK    6  A    between atoms: C_6  and  C_7
REMARK    7  A    between atoms: C_7  and  S_8
REMARK    8  A    between atoms: S_8  and  C_9
REMARK    9  A    between atoms: C_11  and  O_12
REMARK   10  A    between atoms: C_13  and  C_14
REMARK   11  A    between atoms: C_14  and  C_15
REMARK   12  A    between atoms: C_14  and  C_16
REMARK   13  A    between atoms: C_17  and  O_18
REMARK                            x       y       z     vdW  Elec       q    Type
REMARK                         _______ _______ _______ _____ _____    ______ ____
ROOT
ATOM      1  C   UNL     1       5.727   5.000  19.206  0.00  0.00    +0.000 A 
ATOM      2  N   UNL     1       4.710   5.836  19.512  0.00  0.00    +0.000 NA
ATOM      3  C   UNL     1       3.447   5.377  19.724  0.00  0.00    +0.000 A 
ATOM      4  C   UNL     1       3.155   3.994  19.610  0.00  0.00    +0.000 A 
ATOM      5  C   UNL     1       4.251   3.136  19.296  0.00  0.00    +0.000 A 
ATOM      6  N   UNL     1       5.489   3.669  19.104  0.00  0.00    +0.000 NA
ENDROOT
BRANCH   4   7
ATOM      7  C   UNL     1       1.695   3.526  19.811  0.00  0.00    +0.000 C 
ATOM      8  C   UNL     1       1.165   2.735  18.604  0.00  0.00    +0.000 C 
ATOM      9  C   UNL     1       1.467   2.771  21.129  0.00  0.00    +0.000 C 
ENDBRANCH   4   7
BRANCH   3  10
ATOM     10  O   UNL     1       2.481   6.264  20.032  0.00  0.00    +0.000 OA
ATOM     11  H   UNL     1       2.691   7.125  20.418  0.00  0.00    +0.000 HD
ENDBRANCH   3  10
BRANCH   5  12
ATOM     12  O   UNL     1       4.133   1.797  19.162  0.00  0.00    +0.000 OA
ATOM     13  H   UNL     1       4.299   1.150  19.847  0.00  0.00    +0.000 HD
ENDBRANCH   5  12
BRANCH   1  14
ATOM     14  S   UNL     1       7.363   5.661  18.823  0.00  0.00    +0.000 S 
BRANCH  14  15
ATOM     15  C   UNL     1       7.703   4.544  17.420  0.00  0.00    +0.000 C 
BRANCH  15  16
ATOM     16  C   UNL     1       7.317   5.186  16.069  0.00  0.00    +0.000 C 
BRANCH  16  17
ATOM     17  N   UNL     1       6.292   4.441  15.286  0.00  0.00    +0.000 NA
BRANCH  17  19
ATOM     18  C   UNL     1       4.938   6.507  15.883  0.00  0.00    +0.000 C 
ATOM     19  C   UNL     1       4.939   5.037  15.446  0.00  0.00    +0.000 C 
ENDBRANCH  17  19
BRANCH  17  20
ATOM     20  C   UNL     1       6.725   4.286  13.866  0.00  0.00    +0.000 C 
ATOM     21  C   UNL     1       5.714   3.564  12.955  0.00  0.00    +0.000 C 
ENDBRANCH  17  20
ENDBRANCH  16  17
ENDBRANCH  15  16
ENDBRANCH  14  15
ENDBRANCH   1  14
TORSDOF 9
ENDMDL
MODEL 2
REMARK VINA RESULT:      -6.1      0.776      2.229
REMARK  Name = 
REMARK  13 active torsions:
REMARK  status: ('A' for Active; 'I' for Inactive)
REMARK    1  A    between atoms: C_1  and  C_2
REMARK    2  A    between atoms: C_2  and  N_3
REMARK    3  A    between atoms: N_3  and  C_4
REMARK    4  A    between atoms: N_3  and  C_6
REMARK    5  A    between atoms: C_4  and  C_5
REMARK    6  A    between atoms: C_6  and  C_7
REMARK    7  A    between atoms: C_7  and  S_8
REMARK    8  A    between atoms: S_8  and  C_9
REMARK    9  A    between atoms: C_11  and  O_12
REMARK   10  A    between atoms: C_13  and  C_14
REMARK   11  A    between atoms: C_14  and  C_15
REMARK   12  A    between atoms: C_14  and  C_16
REMARK   13  A    between atoms: C_17  and  O_18
REMARK                            x       y       z     vdW  Elec       q    Type
REMARK                         _______ _______ _______ _____ _____    ______ ____
ROOT
ATOM      1  C   UNL     1       5.512   4.859  19.334  0.00  0.00    +0.000 A 
ATOM      2  N   UNL     1       5.518   3.507  19.310  0.00  0.00    +0.000 NA
ATOM      3  C   UNL     1       4.383   2.784  19.515  0.00  0.00    +0.000 A 
ATOM      4  C   UNL     1       3.153   3.435  19.783  0.00  0.00    +0.000 A 
ATOM      5  C   UNL     1       3.176   4.862  19.791  0.00  0.00    +0.000 A 
ATOM      6  N   UNL     1       4.350   5.517  19.570  0.00  0.00    +0.000 NA
ENDROOT
BRANCH   4   7
ATOM      7  C   UNL     1       1.900   2.571  20.058  0.00  0.00    +0.000 C 
ATOM      8  C   UNL     1       1.384   2.735  21.497  0.00  0.00    +0.000 C 
ATOM      9  C   UNL     1       0.779   2.764  19.026  0.00  0.00    +0.000 C 
ENDBRANCH   4   7
BRANCH   3  10
ATOM     10  O   UNL     1       4.459   1.439  19.472  0.00  0.00    +0.000 OA
ATOM     11  H   UNL     1       5.309   0.983  19.427  0.00  0.00    +0.000 HD
ENDBRANCH   3  10
BRANCH   5  12
ATOM     12  O   UNL     1       2.085   5.623  20.021  0.00  0.00    +0.000 OA
ATOM     13  H   UNL     1       1.180   5.376  19.829  0.00  0.00    +0.000 HD
ENDBRANCH   5  12
BRANCH   1  14
ATOM     14  S   UNL     1       7.057   5.777  19.168  0.00  0.00    +0.000 S 
BRANCH  14  15
ATOM     15  C   UNL     1       7.695   4.831  17.743  0.00  0.00    +0.000 C 
BRANCH  15  16
ATOM     16  C   UNL     1       7.053   5.292  16.415  0.00  0.00    +0.000 C 
BRANCH  16  17
ATOM     17  N   UNL     1       6.808   4.209  15.423  0.00  0.00    +0.000 NA
BRANCH  17  19
ATOM     18  C   UNL     1       4.359   4.373  16.080  0.00  0.00    +0.000 C 
ATOM     19  C   UNL     1       5.547   3.476  15.711  0.00  0.00    +0.000 C 
ENDBRANCH  17  19
BRANCH  17  20
ATOM     20  C   UNL     1       6.900   4.739  14.031  0.00  0.00    +0.000 C 
ATOM     21  C   UNL     1       6.361   3.795  12.940  0.00  0.00    +0.000 C 
ENDBRANCH  17  20
ENDBRANCH  16  17
ENDBRANCH  15  16
ENDBRANCH  14  15
ENDBRANCH   1  14
TORSDOF 9
ENDMDL
MODEL 3
REMARK VINA RESULT:      -6.0      0.601      1.725
REMARK  Name = 
REMARK  13 active torsions:
REMARK  status: ('A' for Active; 'I' for Inactive)
REMARK    1  A    between atoms: C_1  and  C_2
REMARK    2  A    between atoms: C_2  and  N_3
REMARK    3  A    between atoms: N_3  and  C_4
REMARK    4  A    between atoms: N_3  and  C_6
REMARK    5  A    between atoms: C_4  and  C_5
REMARK    6  A    between atoms: C_6  and  C_7
REMARK    7  A    between atoms: C_7  and  S_8
REMARK    8  A    between atoms: S_8  and  C_9
REMARK    9  A    between atoms: C_11  and  O_12
REMARK   10  A    between atoms: C_13  and  C_14
REMARK   11  A    between atoms: C_14  and  C_15
REMARK   12  A    between atoms: C_14  and  C_16
REMARK   13  A    between atoms: C_17  and  O_18
REMARK                            x       y       z     vdW  Elec       q    Type
REMARK                         _______ _______ _______ _____ _____    ______ ____
ROOT
ATOM      1  C   UNL     1       5.665   4.954  19.326  0.00  0.00    +0.000 A 
ATOM      2  N   UNL     1       4.613   5.768  19.569  0.00  0.00    +0.000 NA
ATOM      3  C   UNL     1       3.375   5.273  19.839  0.00  0.00    +0.000 A 
ATOM      4  C   UNL     1       3.145   3.874  19.852  0.00  0.00    +0.000 A 
ATOM      5  C   UNL     1       4.277   3.041  19.602  0.00  0.00    +0.000 A 
ATOM      6  N   UNL     1       5.488   3.610  19.347  0.00  0.00    +0.000 NA
ENDROOT
BRANCH   4   7
ATOM      7  C   UNL     1       1.710   3.360  20.114  0.00  0.00    +0.000 C 
ATOM      8  C   UNL     1       1.175   2.508  18.952  0.00  0.00    +0.000 C 
ATOM      9  C   UNL     1       1.550   2.645  21.464  0.00  0.00    +0.000 C 
ENDBRANCH   4   7
BRANCH   3  10
ATOM     10  O   UNL     1       2.372   6.140  20.079  0.00  0.00    +0.000 OA
ATOM     11  H   UNL     1       1.547   5.856  20.494  0.00  0.00    +0.000 HD
ENDBRANCH   3  10
BRANCH   5  12
ATOM     12  O   UNL     1       4.219   1.691  19.589  0.00  0.00    +0.000 OA
ATOM     13  H   UNL     1       3.424   1.167  19.502  0.00  0.00    +0.000 HD
ENDBRANCH   5  12
BRANCH   1  14
ATOM     14  S   UNL     1       7.265   5.651  18.864  0.00  0.00    +0.000 S 
BRANCH  14  15
ATOM     15  C   UNL     1       7.583   4.510  17.475  0.00  0.00    +0.000 C 
BRANCH  15  16
ATOM     16  C   UNL     1       6.424   4.513  16.453  0.00  0.00    +0.000 C 
BRANCH  16  17
ATOM     17  N   UNL     1       6.563   5.498  15.344  0.00  0.00    +0.000 NA
BRANCH  17  19
ATOM     18  C   UNL     1       6.152   3.801  13.499  0.00  0.00    +0.000 C 
ATOM     19  C   UNL     1       7.081   4.860  14.105  0.00  0.00    +0.000 C 
ENDBRANCH  17  19
BRANCH  17  20
ATOM     20  C   UNL     1       5.293   6.259  15.153  0.00  0.00    +0.000 C 
ATOM     21  C   UNL     1       4.772   6.978  16.411  0.00  0.00    +0.000 C 
ENDBRANCH  17  20
ENDBRANCH  16  17
ENDBRANCH  15  16
ENDBRANCH  14  15
ENDBRANCH   1  14
TORSDOF 9
ENDMDL
MODEL 4
REMARK VINA RESULT:      -6.0      0.631      2.715
REMARK  Name = 
REMARK  13 active torsions:
REMARK  status: ('A' for Active; 'I' for Inactive)
REMARK    1  A    between atoms: C_1  and  C_2
REMARK    2  A    between atoms: C_2  and  N_3
REMARK    3  A    between atoms: N_3  and  C_4
REMARK    4  A    between atoms: N_3  and  C_6
REMARK    5  A    between atoms: C_4  and  C_5
REMARK    6  A    between atoms: C_6  and  C_7
REMARK    7  A    between atoms: C_7  and  S_8
REMARK    8  A    between atoms: S_8  and  C_9
REMARK    9  A    between atoms: C_11  and  O_12
REMARK   10  A    between atoms: C_13  and  C_14
REMARK   11  A    between atoms: C_14  and  C_15
REMARK   12  A    between atoms: C_14  and  C_16
REMARK   13  A    between atoms: C_17  and  O_18
REMARK                            x       y       z     vdW  Elec       q    Type
REMARK                         _______ _______ _______ _____ _____    ______ ____
ROOT
ATOM      1  C   UNL     1       5.567   4.814  19.232  0.00  0.00    +0.000 A 
ATOM      2  N   UNL     1       5.472   3.475  19.076  0.00  0.00    +0.000 NA
ATOM      3  C   UNL     1       4.322   2.803  19.352  0.00  0.00    +0.000 A 
ATOM      4  C   UNL     1       3.183   3.494  19.837  0.00  0.00    +0.000 A 
ATOM      5  C   UNL     1       3.311   4.909  19.982  0.00  0.00    +0.000 A 
ATOM      6  N   UNL     1       4.494   5.511  19.678  0.00  0.00    +0.000 NA
ENDROOT
BRANCH   4   7
ATOM      7  C   UNL     1       1.914   2.681  20.185  0.00  0.00    +0.000 C 
ATOM      8  C   UNL     1       1.626   2.669  21.695  0.00  0.00    +0.000 C 
ATOM      9  C   UNL     1       0.677   3.095  19.374  0.00  0.00    +0.000 C 
ENDBRANCH   4   7
BRANCH   3  10
ATOM     10  O   UNL     1       4.294   1.468  19.168  0.00  0.00    +0.000 OA
ATOM     11  H   UNL     1       5.104   0.962  19.020  0.00  0.00    +0.000 HD
ENDBRANCH   3  10
BRANCH   5  12
ATOM     12  O   UNL     1       2.313   5.704  20.424  0.00  0.00    +0.000 OA
ATOM     13  H   UNL     1       1.450   5.795  20.021  0.00  0.00    +0.000 HD
ENDBRANCH   5  12
BRANCH   1  14
ATOM     14  S   UNL     1       7.144   5.651  18.960  0.00  0.00    +0.000 S 
BRANCH  14  15
ATOM     15  C   UNL     1       7.560   4.785  17.408  0.00  0.00    +0.000 C 
BRANCH  15  16
ATOM     16  C   UNL     1       7.358   5.692  16.174  0.00  0.00    +0.000 C 
BRANCH  16  17
ATOM     17  N   UNL     1       6.238   5.295  15.275  0.00  0.00    +0.000 NA
BRANCH  17  19
ATOM     18  C   UNL     1       6.260   3.744  13.263  0.00  0.00    +0.000 C 
ATOM     19  C   UNL     1       6.398   3.901  14.782  0.00  0.00    +0.000 C 
ENDBRANCH  17  19
BRANCH  17  20
ATOM     20  C   UNL     1       4.921   5.566  15.923  0.00  0.00    +0.000 C 
ATOM     21  C   UNL     1       4.695   7.029  16.345  0.00  0.00    +0.000 C 
ENDBRANCH  17  20
ENDBRANCH  16  17
ENDBRANCH  15  16
ENDBRANCH  14  15
ENDBRANCH   1  14
TORSDOF 9
ENDMDL
MODEL 5
REMARK VINA RESULT:      -5.9      1.822      3.163
REMARK  Name = 
REMARK  13 active torsions:
REMARK  status: ('A' for Active; 'I' for Inactive)
REMARK    1  A    between atoms: C_1  and  C_2
REMARK    2  A    between atoms: C_2  and  N_3
REMARK    3  A    between atoms: N_3  and  C_4
REMARK    4  A    between atoms: N_3  and  C_6
REMARK    5  A    between atoms: C_4  and  C_5
REMARK    6  A    between atoms: C_6  and  C_7
REMARK    7  A    between atoms: C_7  and  S_8
REMARK    8  A    between atoms: S_8  and  C_9
REMARK    9  A    between atoms: C_11  and  O_12
REMARK   10  A    between atoms: C_13  and  C_14
REMARK   11  A    between atoms: C_14  and  C_15
REMARK   12  A    between atoms: C_14  and  C_16
REMARK   13  A    between atoms: C_17  and  O_18
REMARK                            x       y       z     vdW  Elec       q    Type
REMARK                         _______ _______ _______ _____ _____    ______ ____
ROOT
ATOM      1  C   UNL     1       4.717   4.662  17.336  0.00  0.00    +0.000 A 
ATOM      2  N   UNL     1       4.195   3.431  17.137  0.00  0.00    +0.000 NA
ATOM      3  C   UNL     1       3.302   2.885  18.007  0.00  0.00    +0.000 A 
ATOM      4  C   UNL     1       2.906   3.591  19.170  0.00  0.00    +0.000 A 
ATOM      5  C   UNL     1       3.466   4.892  19.347  0.00  0.00    +0.000 A 
ATOM      6  N   UNL     1       4.349   5.374  18.428  0.00  0.00    +0.000 NA
ENDROOT
BRANCH   4   7
ATOM      7  C   UNL     1       1.928   2.909  20.155  0.00  0.00    +0.000 C 
ATOM      8  C   UNL     1       2.555   2.691  21.541  0.00  0.00    +0.000 C 
ATOM      9  C   UNL     1       0.564   3.609  20.252  0.00  0.00    +0.000 C 
ENDBRANCH   4   7
BRANCH   3  10
ATOM     10  O   UNL     1       2.816   1.656  17.745  0.00  0.00    +0.000 OA
ATOM     11  H   UNL     1       2.133   1.515  17.076  0.00  0.00    +0.000 HD
ENDBRANCH   3  10
BRANCH   5  12
ATOM     12  O   UNL     1       3.180   5.689  20.399  0.00  0.00    +0.000 OA
ATOM     13  H   UNL     1       2.848   5.396  21.248  0.00  0.00    +0.000 HD
ENDBRANCH   5  12
BRANCH   1  14
ATOM     14  S   UNL     1       5.980   5.304  16.217  0.00  0.00    +0.000 S 
BRANCH  14  15
ATOM     15  C   UNL     1       6.073   3.823  15.154  0.00  0.00    +0.000 C 
BRANCH  15  16
ATOM     16  C   UNL     1       5.643   4.131  13.703  0.00  0.00    +0.000 C 
BRANCH  16  17
ATOM     17  N   UNL     1       6.388   3.385  12.651  0.00  0.00    +0.000 NA
BRANCH  17  19
ATOM     18  C   UNL     1       4.192   3.294  11.376  0.00  0.00    +0.000 C 
ATOM     19  C   UNL     1       5.475   2.571  11.805  0.00  0.00    +0.000 C 
ENDBRANCH  17  19
BRANCH  17  20
ATOM     20  C   UNL     1       7.275   4.305  11.880  0.00  0.00    +0.000 C 
ATOM     21  C   UNL     1       7.966   5.394  12.721  0.00  0.00    +0.000 C 
ENDBRANCH  17  20
ENDBRANCH  16  17
ENDBRANCH  15  16
ENDBRANCH  14  15
ENDBRANCH   1  14
TORSDOF 9
ENDMDL
MODEL 6
REMARK VINA RESULT:      -5.8      0.712      1.018
REMARK  Name = 
REMARK  13 active torsions:
REMARK  status: ('A' for Active; 'I' for Inactive)
REMARK    1  A    between atoms: C_1  and  C_2
REMARK    2  A    between atoms: C_2  and  N_3
REMARK    3  A    between atoms: N_3  and  C_4
REMARK    4  A    between atoms: N_3  and  C_6
REMARK    5  A    between atoms: C_4  and  C_5
REMARK    6  A    between atoms: C_6  and  C_7
REMARK    7  A    between atoms: C_7  and  S_8
REMARK    8  A    between atoms: S_8  and  C_9
REMARK    9  A    between atoms: C_11  and  O_12
REMARK   10  A    between atoms: C_13  and  C_14
REMARK   11  A    between atoms: C_14  and  C_15
REMARK   12  A    between atoms: C_14  and  C_16
REMARK   13  A    between atoms: C_17  and  O_18
REMARK                            x       y       z     vdW  Elec       q    Type
REMARK                         _______ _______ _______ _____ _____    ______ ____
ROOT
ATOM      1  C   UNL     1       5.745   5.030  19.289  0.00  0.00    +0.000 A 
ATOM      2  N   UNL     1       4.679   5.827  19.527  0.00  0.00    +0.000 NA
ATOM      3  C   UNL     1       3.457   5.313  19.833  0.00  0.00    +0.000 A 
ATOM      4  C   UNL     1       3.260   3.911  19.893  0.00  0.00    +0.000 A 
ATOM      5  C   UNL     1       4.406   3.096  19.648  0.00  0.00    +0.000 A 
ATOM      6  N   UNL     1       5.599   3.685  19.353  0.00  0.00    +0.000 NA
ENDROOT
BRANCH   4   7
ATOM      7  C   UNL     1       1.843   3.373  20.197  0.00  0.00    +0.000 C 
ATOM      8  C   UNL     1       1.286   2.516  19.048  0.00  0.00    +0.000 C 
ATOM      9  C   UNL     1       1.734   2.651  21.548  0.00  0.00    +0.000 C 
ENDBRANCH   4   7
BRANCH   3  10
ATOM     10  O   UNL     1       2.439   6.165  20.065  0.00  0.00    +0.000 OA
ATOM     11  H   UNL     1       1.766   5.978  20.733  0.00  0.00    +0.000 HD
ENDBRANCH   3  10
BRANCH   5  12
ATOM     12  O   UNL     1       4.380   1.746  19.677  0.00  0.00    +0.000 OA
ATOM     13  H   UNL     1       4.068   1.209  20.405  0.00  0.00    +0.000 HD
ENDBRANCH   5  12
BRANCH   1  14
ATOM     14  S   UNL     1       7.320   5.749  18.776  0.00  0.00    +0.000 S 
BRANCH  14  15
ATOM     15  C   UNL     1       6.895   5.914  17.009  0.00  0.00    +0.000 C 
BRANCH  15  16
ATOM     16  C   UNL     1       7.195   4.618  16.224  0.00  0.00    +0.000 C 
BRANCH  16  17
ATOM     17  N   UNL     1       6.018   4.000  15.552  0.00  0.00    +0.000 NA
BRANCH  17  19
ATOM     18  C   UNL     1       3.631   3.751  16.387  0.00  0.00    +0.000 C 
ATOM     19  C   UNL     1       4.752   4.688  15.920  0.00  0.00    +0.000 C 
ENDBRANCH  17  19
BRANCH  17  20
ATOM     20  C   UNL     1       6.247   3.890  14.082  0.00  0.00    +0.000 C 
ATOM     21  C   UNL     1       7.282   4.877  13.512  0.00  0.00    +0.000 C 
ENDBRANCH  17  20
ENDBRANCH  16  17
ENDBRANCH  15  16
ENDBRANCH  14  15
ENDBRANCH   1  14
TORSDOF 9
ENDMDL
MODEL 7
REMARK VINA RESULT:      -5.7      0.384      1.949
REMARK  Name = 
REMARK  13 active torsions:
REMARK  status: ('A' for Active; 'I' for Inactive)
REMARK    1  A    between atoms: C_1  and  C_2
REMARK    2  A    between atoms: C_2  and  N_3
REMARK    3  A    between atoms: N_3  and  C_4
REMARK    4  A    between atoms: N_3  and  C_6
REMARK    5  A    between atoms: C_4  and  C_5
REMARK    6  A    between atoms: C_6  and  C_7
REMARK    7  A    between atoms: C_7  and  S_8
REMARK    8  A    between atoms: S_8  and  C_9
REMARK    9  A    between atoms: C_11  and  O_12
REMARK   10  A    between atoms: C_13  and  C_14
REMARK   11  A    between atoms: C_14  and  C_15
REMARK   12  A    between atoms: C_14  and  C_16
REMARK   13  A    between atoms: C_17  and  O_18
REMARK                            x       y       z     vdW  Elec       q    Type
REMARK                         _______ _______ _______ _____ _____    ______ ____
ROOT
ATOM      1  C   UNL     1       5.511   4.970  19.306  0.00  0.00    +0.000 A 
ATOM      2  N   UNL     1       5.230   3.649  19.254  0.00  0.00    +0.000 NA
ATOM      3  C   UNL     1       3.973   3.176  19.472  0.00  0.00    +0.000 A 
ATOM      4  C   UNL     1       2.913   4.065  19.782  0.00  0.00    +0.000 A 
ATOM      5  C   UNL     1       3.238   5.454  19.818  0.00  0.00    +0.000 A 
ATOM      6  N   UNL     1       4.519   5.852  19.583  0.00  0.00    +0.000 NA
ENDROOT
BRANCH   4   7
ATOM      7  C   UNL     1       1.512   3.477  20.070  0.00  0.00    +0.000 C 
ATOM      8  C   UNL     1       0.975   2.649  18.892  0.00  0.00    +0.000 C 
ATOM      9  C   UNL     1       1.430   2.702  21.394  0.00  0.00    +0.000 C 
ENDBRANCH   4   7
BRANCH   3  10
ATOM     10  O   UNL     1       3.762   1.847  19.399  0.00  0.00    +0.000 OA
ATOM     11  H   UNL     1       3.829   1.282  20.180  0.00  0.00    +0.000 HD
ENDBRANCH   3  10
BRANCH   5  12
ATOM     12  O   UNL     1       2.336   6.422  20.091  0.00  0.00    +0.000 OA
ATOM     13  H   UNL     1       2.427   7.096  20.764  0.00  0.00    +0.000 HD
ENDBRANCH   5  12
BRANCH   1  14
ATOM     14  S   UNL     1       7.212   5.546  19.121  0.00  0.00    +0.000 S 
BRANCH  14  15
ATOM     15  C   UNL     1       7.593   4.559  17.633  0.00  0.00    +0.000 C 
BRANCH  15  16
ATOM     16  C   UNL     1       7.264   5.328  16.335  0.00  0.00    +0.000 C 
BRANCH  16  17
ATOM     17  N   UNL     1       6.151   4.757  15.527  0.00  0.00    +0.000 NA
BRANCH  17  19
ATOM     18  C   UNL     1       4.966   6.880  16.264  0.00  0.00    +0.000 C 
ATOM     19  C   UNL     1       5.124   5.784  15.204  0.00  0.00    +0.000 C 
ENDBRANCH  17  19
BRANCH  17  20
ATOM     20  C   UNL     1       6.683   4.031  14.336  0.00  0.00    +0.000 C 
ATOM     21  C   UNL     1       5.657   3.786  13.214  0.00  0.00    +0.000 C 
ENDBRANCH  17  20
ENDBRANCH  16  17
ENDBRANCH  15  16
ENDBRANCH  14  15
ENDBRANCH   1  14
TORSDOF 9
ENDMDL
MODEL 8
REMARK VINA RESULT:      -5.7      0.707      1.208
REMARK  Name = 
REMARK  13 active torsions:
REMARK  status: ('A' for Active; 'I' for Inactive)
REMARK    1  A    between atoms: C_1  and  C_2
REMARK    2  A    between atoms: C_2  and  N_3
REMARK    3  A    between atoms: N_3  and  C_4
REMARK    4  A    between atoms: N_3  and  C_6
REMARK    5  A    between atoms: C_4  and  C_5
REMARK    6  A    between atoms: C_6  and  C_7
REMARK    7  A    between atoms: C_7  and  S_8
REMARK    8  A    between atoms: S_8  and  C_9
REMARK    9  A    between atoms: C_11  and  O_12
REMARK   10  A    between atoms: C_13  and  C_14
REMARK   11  A    between atoms: C_14  and  C_15
REMARK   12  A    between atoms: C_14  and  C_16
REMARK   13  A    between atoms: C_17  and  O_18
REMARK                            x       y       z     vdW  Elec       q    Type
REMARK                         _______ _______ _______ _____ _____    ______ ____
ROOT
ATOM      1  C   UNL     1       5.461   4.978  19.239  0.00  0.00    +0.000 A 
ATOM      2  N   UNL     1       4.247   5.541  19.429  0.00  0.00    +0.000 NA
ATOM      3  C   UNL     1       3.160   4.795  19.769  0.00  0.00    +0.000 A 
ATOM      4  C   UNL     1       3.269   3.390  19.917  0.00  0.00    +0.000 A 
ATOM      5  C   UNL     1       4.566   2.827  19.720  0.00  0.00    +0.000 A 
ATOM      6  N   UNL     1       5.607   3.639  19.387  0.00  0.00    +0.000 NA
ENDROOT
BRANCH   4   7
ATOM      7  C   UNL     1       1.996   2.579  20.256  0.00  0.00    +0.000 C 
ATOM      8  C   UNL     1       1.499   2.847  21.686  0.00  0.00    +0.000 C 
ATOM      9  C   UNL     1       0.870   2.741  19.224  0.00  0.00    +0.000 C 
ENDBRANCH   4   7
BRANCH   3  10
ATOM     10  O   UNL     1       1.980   5.421  19.949  0.00  0.00    +0.000 OA
ATOM     11  H   UNL     1       1.620   5.576  20.833  0.00  0.00    +0.000 HD
ENDBRANCH   3  10
BRANCH   5  12
ATOM     12  O   UNL     1       4.829   1.507  19.834  0.00  0.00    +0.000 OA
ATOM     13  H   UNL     1       5.229   0.958  19.160  0.00  0.00    +0.000 HD
ENDBRANCH   5  12
BRANCH   1  14
ATOM     14  S   UNL     1       6.851   5.986  18.680  0.00  0.00    +0.000 S 
BRANCH  14  15
ATOM     15  C   UNL     1       7.540   4.748  17.528  0.00  0.00    +0.000 C 
BRANCH  15  16
ATOM     16  C   UNL     1       7.395   5.192  16.056  0.00  0.00    +0.000 C 
BRANCH  16  17
ATOM     17  N   UNL     1       6.436   4.391  15.246  0.00  0.00    +0.000 NA
BRANCH  17  19
ATOM     18  C   UNL     1       4.199   3.701  16.233  0.00  0.00    +0.000 C 
ATOM     19  C   UNL     1       5.027   4.778  15.522  0.00  0.00    +0.000 C 
ENDBRANCH  17  19
BRANCH  17  20
ATOM     20  C   UNL     1       6.807   4.428  13.800  0.00  0.00    +0.000 C 
ATOM     21  C   UNL     1       5.933   3.553  12.884  0.00  0.00    +0.000 C 
ENDBRANCH  17  20
ENDBRANCH  16  17
ENDBRANCH  15  16
ENDBRANCH  14  15
ENDBRANCH   1  14
TORSDOF 9
ENDMDL
MODEL 9
REMARK VINA RESULT:      -5.6      0.946      1.569
REMARK  Name = 
REMARK  13 active torsions:
REMARK  status: ('A' for Active; 'I' for Inactive)
REMARK    1  A    between atoms: C_1  and  C_2
REMARK    2  A    between atoms: C_2  and  N_3
REMARK    3  A    between atoms: N_3  and  C_4
REMARK    4  A    between atoms: N_3  and  C_6
REMARK    5  A    between atoms: C_4  and  C_5
REMARK    6  A    between atoms: C_6  and  C_7
REMARK    7  A    between atoms: C_7  and  S_8
REMARK    8  A    between atoms: S_8  and  C_9
REMARK    9  A    between atoms: C_11  and  O_12
REMARK   10  A    between atoms: C_13  and  C_14
REMARK   11  A    between atoms: C_14  and  C_15
REMARK   12  A    between atoms: C_14  and  C_16
REMARK   13  A    between atoms: C_17  and  O_18
REMARK                            x       y       z     vdW  Elec       q    Type
REMARK                         _______ _______ _______ _____ _____    ______ ____
ROOT
ATOM      1  C   UNL     1       5.601   4.958  18.941  0.00  0.00    +0.000 A 
ATOM      2  N   UNL     1       4.617   5.781  19.368  0.00  0.00    +0.000 NA
ATOM      3  C   UNL     1       3.427   5.298  19.818  0.00  0.00    +0.000 A 
ATOM      4  C   UNL     1       3.175   3.903  19.833  0.00  0.00    +0.000 A 
ATOM      5  C   UNL     1       4.236   3.060  19.386  0.00  0.00    +0.000 A 
ATOM      6  N   UNL     1       5.402   3.617  18.957  0.00  0.00    +0.000 NA
ENDROOT
BRANCH   4   7
ATOM      7  C   UNL     1       1.789   3.404  20.306  0.00  0.00    +0.000 C 
ATOM      8  C   UNL     1       1.028   2.661  19.197  0.00  0.00    +0.000 C 
ATOM      9  C   UNL     1       1.840   2.588  21.606  0.00  0.00    +0.000 C 
ENDBRANCH   4   7
BRANCH   3  10
ATOM     10  O   UNL     1       2.491   6.174  20.235  0.00  0.00    +0.000 OA
ATOM     11  H   UNL     1       1.650   6.273  19.770  0.00  0.00    +0.000 HD
ENDBRANCH   3  10
BRANCH   5  12
ATOM     12  O   UNL     1       4.151   1.712  19.350  0.00  0.00    +0.000 OA
ATOM     13  H   UNL     1       3.530   1.206  18.827  0.00  0.00    +0.000 HD
ENDBRANCH   5  12
BRANCH   1  14
ATOM     14  S   UNL     1       7.121   5.643  18.249  0.00  0.00    +0.000 S 
BRANCH  14  15
ATOM     15  C   UNL     1       6.486   5.854  16.551  0.00  0.00    +0.000 C 
BRANCH  15  16
ATOM     16  C   UNL     1       7.028   4.767  15.597  0.00  0.00    +0.000 C 
BRANCH  16  17
ATOM     17  N   UNL     1       6.740   4.993  14.153  0.00  0.00    +0.000 NA
BRANCH  17  19
ATOM     18  C   UNL     1       8.287   6.028  12.423  0.00  0.00    +0.000 C 
ATOM     19  C   UNL     1       7.958   4.825  13.317  0.00  0.00    +0.000 C 
ENDBRANCH  17  19
BRANCH  17  20
ATOM     20  C   UNL     1       5.579   4.165  13.712  0.00  0.00    +0.000 C 
ATOM     21  C   UNL     1       5.813   3.355  12.423  0.00  0.00    +0.000 C 
ENDBRANCH  17  20
ENDBRANCH  16  17
ENDBRANCH  15  16
ENDBRANCH  14  15
ENDBRANCH   1  14
TORSDOF 9
ENDMDL
