MODEL 1
REMARK VINA RESULT:      -7.8      0.000      0.000
REMARK  Name = 
REMARK  6 active torsions:
REMARK  status: ('A' for Active; 'I' for Inactive)
REMARK    1  A    between atoms: C_2  and  C_3
REMARK    2  A    between atoms: C_3  and  O_4
REMARK    3  A    between atoms: O_4  and  C_5
REMARK    4  A    between atoms: N_12  and  C_13
REMARK    5  A    between atoms: N_16  and  C_17
REMARK    6  A    between atoms: C_17  and  C_18
REMARK                            x       y       z     vdW  Elec       q    Type
REMARK                         _______ _______ _______ _____ _____    ______ ____
ROOT
ATOM      1  C   UNL     1       0.811  10.395  18.893  0.00  0.00    +0.000 C 
ATOM      2  C   UNL     1       1.880   9.804  17.980  0.00  0.00    +0.000 C 
ATOM      3  C   UNL     1       1.966   8.282  18.104  0.00  0.00    +0.000 C 
ATOM      4  N   UNL     1       2.190   7.850  19.492  0.00  0.00    +0.000 NA
ATOM      5  C   UNL     1       1.155   8.380  20.396  0.00  0.00    +0.000 C 
ATOM      6  C   UNL     1       1.032   9.904  20.326  0.00  0.00    +0.000 C 
ENDROOT
BRANCH   1   9
ATOM      7  O   UNL     1      -1.177  12.266  18.092  0.00  0.00    +0.000 OA
ATOM      8  C   UNL     1      -1.441  11.065  18.061  0.00  0.00    +0.000 C 
ATOM      9  N   UNL     1      -0.534  10.084  18.403  0.00  0.00    +0.000 N 
ATOM     10  H   UNL     1      -0.852   9.124  18.434  0.00  0.00    +0.000 HD
BRANCH   8  11
ATOM     11  C   UNL     1      -2.829  10.550  17.669  0.00  0.00    +0.000 C 
BRANCH  11  12
ATOM     12  O   UNL     1      -3.756  11.615  17.495  0.00  0.00    +0.000 OA
BRANCH  12  13
ATOM     13  C   UNL     1      -4.806  11.640  18.380  0.00  0.00    +0.000 A 
ATOM     14  C   UNL     1      -6.061  11.063  18.156  0.00  0.00    +0.000 A 
ATOM     15  C   UNL     1      -7.067  11.158  19.124  0.00  0.00    +0.000 A 
ATOM     16  C   UNL     1      -6.822  11.820  20.323  0.00  0.00    +0.000 A 
ATOM     17  C   UNL     1      -5.562  12.373  20.557  0.00  0.00    +0.000 A 
ATOM     18 CL   UNL     1      -5.261  13.186  22.043  0.00  0.00    +0.000 Cl
ATOM     19  C   UNL     1      -4.556  12.275  19.597  0.00  0.00    +0.000 A 
ENDBRANCH  12  13
ENDBRANCH  11  12
ENDBRANCH   8  11
ENDBRANCH   1   9
BRANCH   4  20
ATOM     20  C   UNL     1       2.218   6.372  19.594  0.00  0.00    +0.000 C 
BRANCH  20  21
ATOM     21  C   UNL     1       3.343   5.707  18.825  0.00  0.00    +0.000 A 
ATOM     22  C   UNL     1       3.064   4.863  17.742  0.00  0.00    +0.000 A 
ATOM     23  C   UNL     1       4.084   4.223  17.028  0.00  0.00    +0.000 A 
ATOM     24  C   UNL     1       5.404   4.476  17.415  0.00  0.00    +0.000 A 
ATOM     25  N   UNL     1       6.589   3.990  16.908  0.00  0.00    +0.000 N 
ATOM     26  C   UNL     1       7.651   4.551  17.568  0.00  0.00    +0.000 A 
ATOM     27  C   UNL     1       7.148   5.381  18.543  0.00  0.00    +0.000 A 
ATOM     28  C   UNL     1       5.728   5.334  18.464  0.00  0.00    +0.000 A 
ATOM     29  C   UNL     1       4.684   5.949  19.184  0.00  0.00    +0.000 A 
ATOM     30  H   UNL     1       6.657   3.326  16.150  0.00  0.00    +0.000 HD
ENDBRANCH  20  21
ENDBRANCH   4  20
TORSDOF 6
ENDMDL
MODEL 2
REMARK VINA RESULT:      -7.5      0.749      1.157
REMARK  Name = 
REMARK  6 active torsions:
REMARK  status: ('A' for Active; 'I' for Inactive)
REMARK    1  A    between atoms: C_2  and  C_3
REMARK    2  A    between atoms: C_3  and  O_4
REMARK    3  A    between atoms: O_4  and  C_5
REMARK    4  A    between atoms: N_12  and  C_13
REMARK    5  A    between atoms: N_16  and  C_17
REMARK    6  A    between atoms: C_17  and  C_18
REMARK                            x       y       z     vdW  Elec       q    Type
REMARK                         _______ _______ _______ _____ _____    ______ ____
ROOT
ATOM      1  C   UNL     1       0.831  10.613  18.668  0.00  0.00    +0.000 C 
ATOM      2  C   UNL     1       1.950  10.082  17.778  0.00  0.00    +0.000 C 
ATOM      3  C   UNL     1       2.033   8.555  17.806  0.00  0.00    +0.000 C 
ATOM      4  N   UNL     1       2.183   8.033  19.172  0.00  0.00    +0.000 NA
ATOM      5  C   UNL     1       1.098   8.504  20.052  0.00  0.00    +0.000 C 
ATOM      6  C   UNL     1       0.975  10.029  20.075  0.00  0.00    +0.000 C 
ENDROOT
BRANCH   1   9
ATOM      7  O   UNL     1      -1.380  12.399  18.546  0.00  0.00    +0.000 OA
ATOM      8  C   UNL     1      -1.507  11.261  18.097  0.00  0.00    +0.000 C 
ATOM      9  N   UNL     1      -0.485  10.336  18.086  0.00  0.00    +0.000 N 
ATOM     10  H   UNL     1      -0.690   9.395  17.778  0.00  0.00    +0.000 HD
BRANCH   8  11
ATOM     11  C   UNL     1      -2.839  10.755  17.535  0.00  0.00    +0.000 C 
BRANCH  11  12
ATOM     12  O   UNL     1      -3.826  11.780  17.515  0.00  0.00    +0.000 OA
BRANCH  12  13
ATOM     13  C   UNL     1      -4.880  11.608  18.377  0.00  0.00    +0.000 A 
ATOM     14  C   UNL     1      -5.990  10.790  18.140  0.00  0.00    +0.000 A 
ATOM     15  C   UNL     1      -7.017  10.696  19.085  0.00  0.00    +0.000 A 
ATOM     16  C   UNL     1      -6.936  11.412  20.276  0.00  0.00    +0.000 A 
ATOM     17  C   UNL     1      -5.817  12.208  20.525  0.00  0.00    +0.000 A 
ATOM     18 CL   UNL     1      -5.719  13.086  22.001  0.00  0.00    +0.000 Cl
ATOM     19  C   UNL     1      -4.790  12.298  19.587  0.00  0.00    +0.000 A 
ENDBRANCH  12  13
ENDBRANCH  11  12
ENDBRANCH   8  11
ENDBRANCH   1   9
BRANCH   4  20
ATOM     20  C   UNL     1       2.209   6.551  19.180  0.00  0.00    +0.000 C 
BRANCH  20  21
ATOM     21  C   UNL     1       3.515   5.941  18.708  0.00  0.00    +0.000 A 
ATOM     22  C   UNL     1       4.383   5.326  19.620  0.00  0.00    +0.000 A 
ATOM     23  C   UNL     1       5.603   4.772  19.213  0.00  0.00    +0.000 A 
ATOM     24  C   UNL     1       5.919   4.829  17.852  0.00  0.00    +0.000 A 
ATOM     25  N   UNL     1       7.032   4.379  17.177  0.00  0.00    +0.000 N 
ATOM     26  C   UNL     1       6.893   4.602  15.833  0.00  0.00    +0.000 A 
ATOM     27  C   UNL     1       5.690   5.242  15.636  0.00  0.00    +0.000 A 
ATOM     28  C   UNL     1       5.070   5.401  16.907  0.00  0.00    +0.000 A 
ATOM     29  C   UNL     1       3.858   5.973  17.343  0.00  0.00    +0.000 A 
ATOM     30  H   UNL     1       7.827   3.937  17.617  0.00  0.00    +0.000 HD
ENDBRANCH  20  21
ENDBRANCH   4  20
TORSDOF 6
ENDMDL
MODEL 3
REMARK VINA RESULT:      -7.5      4.904     10.257
REMARK  Name = 
REMARK  6 active torsions:
REMARK  status: ('A' for Active; 'I' for Inactive)
REMARK    1  A    between atoms: C_2  and  C_3
REMARK    2  A    between atoms: C_3  and  O_4
REMARK    3  A    between atoms: O_4  and  C_5
REMARK    4  A    between atoms: N_12  and  C_13
REMARK    5  A    between atoms: N_16  and  C_17
REMARK    6  A    between atoms: C_17  and  C_18
REMARK                            x       y       z     vdW  Elec       q    Type
REMARK                         _______ _______ _______ _____ _____    ______ ____
ROOT
ATOM      1  C   UNL     1       2.605   5.508  19.568  0.00  0.00    +0.000 C 
ATOM      2  C   UNL     1       2.075   5.912  18.196  0.00  0.00    +0.000 C 
ATOM      3  C   UNL     1       2.127   7.425  17.981  0.00  0.00    +0.000 C 
ATOM      4  N   UNL     1       1.411   8.160  19.035  0.00  0.00    +0.000 NA
ATOM      5  C   UNL     1       1.921   7.814  20.374  0.00  0.00    +0.000 C 
ATOM      6  C   UNL     1       1.882   6.310  20.652  0.00  0.00    +0.000 C 
ENDROOT
BRANCH   1   9
ATOM      7  O   UNL     1       4.557   3.512  19.022  0.00  0.00    +0.000 OA
ATOM      8  C   UNL     1       4.930   4.628  19.381  0.00  0.00    +0.000 C 
ATOM      9  N   UNL     1       4.060   5.666  19.641  0.00  0.00    +0.000 N 
ATOM     10  H   UNL     1       4.436   6.528  20.014  0.00  0.00    +0.000 HD
BRANCH   8  11
ATOM     11  C   UNL     1       6.408   4.955  19.609  0.00  0.00    +0.000 C 
BRANCH  11  12
ATOM     12  O   UNL     1       7.173   4.790  18.420  0.00  0.00    +0.000 OA
BRANCH  12  13
ATOM     13  C   UNL     1       6.566   5.202  17.260  0.00  0.00    +0.000 A 
ATOM     14  C   UNL     1       5.872   6.406  17.097  0.00  0.00    +0.000 A 
ATOM     15  C   UNL     1       5.280   6.722  15.870  0.00  0.00    +0.000 A 
ATOM     16  C   UNL     1       5.385   5.842  14.797  0.00  0.00    +0.000 A 
ATOM     17  C   UNL     1       6.099   4.653  14.951  0.00  0.00    +0.000 A 
ATOM     18 CL   UNL     1       6.232   3.571  13.621  0.00  0.00    +0.000 Cl
ATOM     19  C   UNL     1       6.695   4.338  16.171  0.00  0.00    +0.000 A 
ENDBRANCH  12  13
ENDBRANCH  11  12
ENDBRANCH   8  11
ENDBRANCH   1   9
BRANCH   4  20
ATOM     20  C   UNL     1       1.519   9.624  18.835  0.00  0.00    +0.000 C 
BRANCH  20  21
ATOM     21  C   UNL     1       0.212  10.310  18.482  0.00  0.00    +0.000 A 
ATOM     22  C   UNL     1      -0.047  11.615  18.919  0.00  0.00    +0.000 A 
ATOM     23  C   UNL     1      -1.252  12.263  18.622  0.00  0.00    +0.000 A 
ATOM     24  C   UNL     1      -2.188  11.569  17.848  0.00  0.00    +0.000 A 
ATOM     25  N   UNL     1      -3.439  11.946  17.414  0.00  0.00    +0.000 N 
ATOM     26  C   UNL     1      -3.986  10.963  16.633  0.00  0.00    +0.000 A 
ATOM     27  C   UNL     1      -3.094   9.916  16.592  0.00  0.00    +0.000 A 
ATOM     28  C   UNL     1      -1.957  10.282  17.365  0.00  0.00    +0.000 A 
ATOM     29  C   UNL     1      -0.746   9.641  17.696  0.00  0.00    +0.000 A 
ATOM     30  H   UNL     1      -3.879  12.829  17.634  0.00  0.00    +0.000 HD
ENDBRANCH  20  21
ENDBRANCH   4  20
TORSDOF 6
ENDMDL
MODEL 4
REMARK VINA RESULT:      -7.3      5.647      9.733
REMARK  Name = 
REMARK  6 active torsions:
REMARK  status: ('A' for Active; 'I' for Inactive)
REMARK    1  A    between atoms: C_2  and  C_3
REMARK    2  A    between atoms: C_3  and  O_4
REMARK    3  A    between atoms: O_4  and  C_5
REMARK    4  A    between atoms: N_12  and  C_13
REMARK    5  A    between atoms: N_16  and  C_17
REMARK    6  A    between atoms: C_17  and  C_18
REMARK                            x       y       z     vdW  Elec       q    Type
REMARK                         _______ _______ _______ _____ _____    ______ ____
ROOT
ATOM      1  C   UNL     1       7.192   5.292  17.662  0.00  0.00    +0.000 C 
ATOM      2  C   UNL     1       6.535   4.481  16.551  0.00  0.00    +0.000 C 
ATOM      3  C   UNL     1       5.021   4.688  16.504  0.00  0.00    +0.000 C 
ATOM      4  N   UNL     1       4.380   4.390  17.794  0.00  0.00    +0.000 NA
ATOM      5  C   UNL     1       4.973   5.182  18.887  0.00  0.00    +0.000 C 
ATOM      6  C   UNL     1       6.489   5.004  18.991  0.00  0.00    +0.000 C 
ENDROOT
BRANCH   1   9
ATOM      7  O   UNL     1       8.654   7.325  19.011  0.00  0.00    +0.000 OA
ATOM      8  C   UNL     1       7.926   7.639  18.071  0.00  0.00    +0.000 C 
ATOM      9  N   UNL     1       7.201   6.721  17.340  0.00  0.00    +0.000 N 
ATOM     10  H   UNL     1       6.560   7.064  16.637  0.00  0.00    +0.000 HD
BRANCH   8  11
ATOM     11  C   UNL     1       7.730   9.098  17.648  0.00  0.00    +0.000 C 
BRANCH  11  12
ATOM     12  O   UNL     1       8.954   9.822  17.674  0.00  0.00    +0.000 OA
BRANCH  12  13
ATOM     13  C   UNL     1       8.887  11.086  18.207  0.00  0.00    +0.000 A 
ATOM     14  C   UNL     1       8.407  12.217  17.538  0.00  0.00    +0.000 A 
ATOM     15  C   UNL     1       8.392  13.463  18.174  0.00  0.00    +0.000 A 
ATOM     16  C   UNL     1       8.849  13.585  19.483  0.00  0.00    +0.000 A 
ATOM     17  C   UNL     1       9.304  12.451  20.159  0.00  0.00    +0.000 A 
ATOM     18 CL   UNL     1       9.861  12.604  21.780  0.00  0.00    +0.000 Cl
ATOM     19  C   UNL     1       9.313  11.208  19.530  0.00  0.00    +0.000 A 
ENDBRANCH  12  13
ENDBRANCH  11  12
ENDBRANCH   8  11
ENDBRANCH   1   9
BRANCH   4  20
ATOM     20  C   UNL     1       2.922   4.648  17.740  0.00  0.00    +0.000 C 
BRANCH  20  21
ATOM     21  C   UNL     1       2.481   5.923  18.434  0.00  0.00    +0.000 A 
ATOM     22  C   UNL     1       2.171   5.919  19.800  0.00  0.00    +0.000 A 
ATOM     23  C   UNL     1       1.743   7.078  20.459  0.00  0.00    +0.000 A 
ATOM     24  C   UNL     1       1.661   8.257  19.711  0.00  0.00    +0.000 A 
ATOM     25  N   UNL     1       1.272   9.524  20.086  0.00  0.00    +0.000 N 
ATOM     26  C   UNL     1       1.395  10.388  19.031  0.00  0.00    +0.000 A 
ATOM     27  C   UNL     1       1.830   9.664  17.944  0.00  0.00    +0.000 A 
ATOM     28  C   UNL     1       1.991   8.313  18.359  0.00  0.00    +0.000 A 
ATOM     29  C   UNL     1       2.397   7.129  17.710  0.00  0.00    +0.000 A 
ATOM     30  H   UNL     1       0.956   9.774  21.013  0.00  0.00    +0.000 HD
ENDBRANCH  20  21
ENDBRANCH   4  20
TORSDOF 6
ENDMDL
MODEL 5
REMARK VINA RESULT:      -7.2      3.770      5.743
REMARK  Name = 
REMARK  6 active torsions:
REMARK  status: ('A' for Active; 'I' for Inactive)
REMARK    1  A    between atoms: C_2  and  C_3
REMARK    2  A    between atoms: C_3  and  O_4
REMARK    3  A    between atoms: O_4  and  C_5
REMARK    4  A    between atoms: N_12  and  C_13
REMARK    5  A    between atoms: N_16  and  C_17
REMARK    6  A    between atoms: C_17  and  C_18
REMARK                            x       y       z     vdW  Elec       q    Type
REMARK                         _______ _______ _______ _____ _____    ______ ____
ROOT
ATOM      1  C   UNL     1      -0.033  10.317  19.826  0.00  0.00    +0.000 C 
ATOM      2  C   UNL     1       0.626   9.156  20.563  0.00  0.00    +0.000 C 
ATOM      3  C   UNL     1       1.929   8.714  19.896  0.00  0.00    +0.000 C 
ATOM      4  N   UNL     1       1.737   8.369  18.479  0.00  0.00    +0.000 NA
ATOM      5  C   UNL     1       1.129   9.483  17.730  0.00  0.00    +0.000 C 
ATOM      6  C   UNL     1      -0.189   9.961  18.346  0.00  0.00    +0.000 C 
ENDROOT
BRANCH   1   9
ATOM      7  O   UNL     1      -0.079  11.983  22.131  0.00  0.00    +0.000 OA
ATOM      8  C   UNL     1       0.609  12.317  21.168  0.00  0.00    +0.000 C 
ATOM      9  N   UNL     1       0.716  11.561  20.019  0.00  0.00    +0.000 N 
ATOM     10  H   UNL     1       1.233  11.942  19.238  0.00  0.00    +0.000 HD
BRANCH   8  11
ATOM     11  C   UNL     1       1.388  13.635  21.145  0.00  0.00    +0.000 C 
BRANCH  11  12
ATOM     12  O   UNL     1       2.624  13.505  20.452  0.00  0.00    +0.000 OA
BRANCH  12  13
ATOM     13  C   UNL     1       2.845  14.419  19.452  0.00  0.00    +0.000 A 
ATOM     14  C   UNL     1       3.991  14.476  18.651  0.00  0.00    +0.000 A 
ATOM     15  C   UNL     1       4.118  15.459  17.665  0.00  0.00    +0.000 A 
ATOM     16  C   UNL     1       3.098  16.386  17.467  0.00  0.00    +0.000 A 
ATOM     17  C   UNL     1       1.944  16.313  18.248  0.00  0.00    +0.000 A 
ATOM     18 CL   UNL     1       0.683  17.456  17.996  0.00  0.00    +0.000 Cl
ATOM     19  C   UNL     1       1.812  15.330  19.227  0.00  0.00    +0.000 A 
ENDBRANCH  12  13
ENDBRANCH  11  12
ENDBRANCH   8  11
ENDBRANCH   1   9
BRANCH   4  20
ATOM     20  C   UNL     1       3.021   7.995  17.840  0.00  0.00    +0.000 C 
BRANCH  20  21
ATOM     21  C   UNL     1       3.333   6.511  17.875  0.00  0.00    +0.000 A 
ATOM     22  C   UNL     1       4.656   6.060  17.782  0.00  0.00    +0.000 A 
ATOM     23  C   UNL     1       4.969   4.695  17.793  0.00  0.00    +0.000 A 
ATOM     24  C   UNL     1       3.912   3.789  17.929  0.00  0.00    +0.000 A 
ATOM     25  N   UNL     1       3.920   2.412  17.964  0.00  0.00    +0.000 N 
ATOM     26  C   UNL     1       2.650   1.937  18.163  0.00  0.00    +0.000 A 
ATOM     27  C   UNL     1       1.801   3.019  18.216  0.00  0.00    +0.000 A 
ATOM     28  C   UNL     1       2.586   4.195  18.058  0.00  0.00    +0.000 A 
ATOM     29  C   UNL     1       2.292   5.573  18.021  0.00  0.00    +0.000 A 
ATOM     30  H   UNL     1       4.749   1.842  17.870  0.00  0.00    +0.000 HD
ENDBRANCH  20  21
ENDBRANCH   4  20
TORSDOF 6
ENDMDL
MODEL 6
REMARK VINA RESULT:      -7.1      4.517     10.639
REMARK  Name = 
REMARK  6 active torsions:
REMARK  status: ('A' for Active; 'I' for Inactive)
REMARK    1  A    between atoms: C_2  and  C_3
REMARK    2  A    between atoms: C_3  and  O_4
REMARK    3  A    between atoms: O_4  and  C_5
REMARK    4  A    between atoms: N_12  and  C_13
REMARK    5  A    between atoms: N_16  and  C_17
REMARK    6  A    between atoms: C_17  and  C_18
REMARK                            x       y       z     vdW  Elec       q    Type
REMARK                         _______ _______ _______ _____ _____    ______ ____
ROOT
ATOM      1  C   UNL     1       0.650  10.880  18.746  0.00  0.00    +0.000 C 
ATOM      2  C   UNL     1       1.329  12.129  19.298  0.00  0.00    +0.000 C 
ATOM      3  C   UNL     1       0.919  12.417  20.742  0.00  0.00    +0.000 C 
ATOM      4  N   UNL     1      -0.540  12.526  20.894  0.00  0.00    +0.000 NA
ATOM      5  C   UNL     1      -1.226  11.320  20.397  0.00  0.00    +0.000 C 
ATOM      6  C   UNL     1      -0.864  10.988  18.947  0.00  0.00    +0.000 C 
ENDROOT
BRANCH   1   9
ATOM      7  O   UNL     1       2.091   8.823  17.409  0.00  0.00    +0.000 OA
ATOM      8  C   UNL     1       1.868   8.709  18.614  0.00  0.00    +0.000 C 
ATOM      9  N   UNL     1       1.202   9.666  19.351  0.00  0.00    +0.000 N 
ATOM     10  H   UNL     1       0.982   9.461  20.317  0.00  0.00    +0.000 HD
BRANCH   8  11
ATOM     11  C   UNL     1       2.282   7.462  19.401  0.00  0.00    +0.000 C 
BRANCH  11  12
ATOM     12  O   UNL     1       2.444   6.333  18.551  0.00  0.00    +0.000 OA
BRANCH  12  13
ATOM     13  C   UNL     1       2.221   5.111  19.137  0.00  0.00    +0.000 A 
ATOM     14  C   UNL     1       1.409   4.890  20.254  0.00  0.00    +0.000 A 
ATOM     15  C   UNL     1       1.260   3.601  20.778  0.00  0.00    +0.000 A 
ATOM     16  C   UNL     1       1.915   2.526  20.184  0.00  0.00    +0.000 A 
ATOM     17  C   UNL     1       2.704   2.743  19.054  0.00  0.00    +0.000 A 
ATOM     18 CL   UNL     1       3.507   1.411  18.318  0.00  0.00    +0.000 Cl
ATOM     19  C   UNL     1       2.849   4.025  18.526  0.00  0.00    +0.000 A 
ENDBRANCH  12  13
ENDBRANCH  11  12
ENDBRANCH   8  11
ENDBRANCH   1   9
BRANCH   4  20
ATOM     20  C   UNL     1      -0.916  12.754  22.309  0.00  0.00    +0.000 C 
BRANCH  20  21
ATOM     21  C   UNL     1      -2.342  13.229  22.514  0.00  0.00    +0.000 A 
ATOM     22  C   UNL     1      -2.812  14.375  21.859  0.00  0.00    +0.000 A 
ATOM     23  C   UNL     1      -4.117  14.844  22.046  0.00  0.00    +0.000 A 
ATOM     24  C   UNL     1      -4.955  14.111  22.894  0.00  0.00    +0.000 A 
ATOM     25  N   UNL     1      -6.262  14.334  23.264  0.00  0.00    +0.000 N 
ATOM     26  C   UNL     1      -6.702  13.324  24.079  0.00  0.00    +0.000 A 
ATOM     27  C   UNL     1      -5.653  12.455  24.274  0.00  0.00    +0.000 A 
ATOM     28  C   UNL     1      -4.539  12.948  23.539  0.00  0.00    +0.000 A 
ATOM     29  C   UNL     1      -3.213  12.507  23.354  0.00  0.00    +0.000 A 
ATOM     30  H   UNL     1      -6.815  15.124  22.962  0.00  0.00    +0.000 HD
ENDBRANCH  20  21
ENDBRANCH   4  20
TORSDOF 6
ENDMDL
MODEL 7
REMARK VINA RESULT:      -7.1      5.563     10.143
REMARK  Name = 
REMARK  6 active torsions:
REMARK  status: ('A' for Active; 'I' for Inactive)
REMARK    1  A    between atoms: C_2  and  C_3
REMARK    2  A    between atoms: C_3  and  O_4
REMARK    3  A    between atoms: O_4  and  C_5
REMARK    4  A    between atoms: N_12  and  C_13
REMARK    5  A    between atoms: N_16  and  C_17
REMARK    6  A    between atoms: C_17  and  C_18
REMARK                            x       y       z     vdW  Elec       q    Type
REMARK                         _______ _______ _______ _____ _____    ______ ____
ROOT
ATOM      1  C   UNL     1       7.472   5.617  18.002  0.00  0.00    +0.000 C 
ATOM      2  C   UNL     1       6.905   4.666  16.953  0.00  0.00    +0.000 C 
ATOM      3  C   UNL     1       5.389   4.805  16.809  0.00  0.00    +0.000 C 
ATOM      4  N   UNL     1       4.691   4.618  18.090  0.00  0.00    +0.000 NA
ATOM      5  C   UNL     1       5.196   5.544  19.120  0.00  0.00    +0.000 C 
ATOM      6  C   UNL     1       6.710   5.441  19.318  0.00  0.00    +0.000 C 
ENDROOT
BRANCH   1   9
ATOM      7  O   UNL     1       8.883   7.816  19.126  0.00  0.00    +0.000 OA
ATOM      8  C   UNL     1       8.149   8.011  18.159  0.00  0.00    +0.000 C 
ATOM      9  N   UNL     1       7.448   7.003  17.530  0.00  0.00    +0.000 N 
ATOM     10  H   UNL     1       6.799   7.254  16.795  0.00  0.00    +0.000 HD
BRANCH   8  11
ATOM     11  C   UNL     1       7.918   9.411  17.583  0.00  0.00    +0.000 C 
BRANCH  11  12
ATOM     12  O   UNL     1       8.176  10.425  18.547  0.00  0.00    +0.000 OA
BRANCH  12  13
ATOM     13  C   UNL     1       9.122  11.355  18.194  0.00  0.00    +0.000 A 
ATOM     14  C   UNL     1      10.447  11.066  17.847  0.00  0.00    +0.000 A 
ATOM     15  C   UNL     1      11.333  12.095  17.513  0.00  0.00    +0.000 A 
ATOM     16  C   UNL     1      10.899  13.418  17.514  0.00  0.00    +0.000 A 
ATOM     17  C   UNL     1       9.572  13.704  17.834  0.00  0.00    +0.000 A 
ATOM     18 CL   UNL     1       9.037  15.340  17.829  0.00  0.00    +0.000 Cl
ATOM     19  C   UNL     1       8.685  12.680  18.162  0.00  0.00    +0.000 A 
ENDBRANCH  12  13
ENDBRANCH  11  12
ENDBRANCH   8  11
ENDBRANCH   1   9
BRANCH   4  20
ATOM     20  C   UNL     1       3.230   4.808  17.936  0.00  0.00    +0.000 C 
BRANCH  20  21
ATOM     21  C   UNL     1       2.722   6.171  18.370  0.00  0.00    +0.000 A 
ATOM     22  C   UNL     1       2.726   7.249  17.477  0.00  0.00    +0.000 A 
ATOM     23  C   UNL     1       2.280   8.520  17.858  0.00  0.00    +0.000 A 
ATOM     24  C   UNL     1       1.801   8.675  19.164  0.00  0.00    +0.000 A 
ATOM     25  N   UNL     1       1.314   9.791  19.806  0.00  0.00    +0.000 N 
ATOM     26  C   UNL     1       0.907   9.467  21.074  0.00  0.00    +0.000 A 
ATOM     27  C   UNL     1       1.173   8.131  21.271  0.00  0.00    +0.000 A 
ATOM     28  C   UNL     1       1.748   7.621  20.074  0.00  0.00    +0.000 A 
ATOM     29  C   UNL     1       2.224   6.356  19.675  0.00  0.00    +0.000 A 
ATOM     30  H   UNL     1       1.255  10.710  19.391  0.00  0.00    +0.000 HD
ENDBRANCH  20  21
ENDBRANCH   4  20
TORSDOF 6
ENDMDL
MODEL 8
REMARK VINA RESULT:      -7.1      4.246     10.470
REMARK  Name = 
REMARK  6 active torsions:
REMARK  status: ('A' for Active; 'I' for Inactive)
REMARK    1  A    between atoms: C_2  and  C_3
REMARK    2  A    between atoms: C_3  and  O_4
REMARK    3  A    between atoms: O_4  and  C_5
REMARK    4  A    between atoms: N_12  and  C_13
REMARK    5  A    between atoms: N_16  and  C_17
REMARK    6  A    between atoms: C_17  and  C_18
REMARK                            x       y       z     vdW  Elec       q    Type
REMARK                         _______ _______ _______ _____ _____    ______ ____
ROOT
ATOM      1  C   UNL     1       0.596  10.555  18.638  0.00  0.00    +0.000 C 
ATOM      2  C   UNL     1       1.354  11.783  19.131  0.00  0.00    +0.000 C 
ATOM      3  C   UNL     1       1.087  12.071  20.609  0.00  0.00    +0.000 C 
ATOM      4  N   UNL     1      -0.349  12.215  20.895  0.00  0.00    +0.000 NA
ATOM      5  C   UNL     1      -1.108  11.030  20.457  0.00  0.00    +0.000 C 
ATOM      6  C   UNL     1      -0.889  10.700  18.979  0.00  0.00    +0.000 C 
ENDROOT
BRANCH   1   9
ATOM      7  O   UNL     1       2.374   8.778  17.306  0.00  0.00    +0.000 OA
ATOM      8  C   UNL     1       2.008   8.509  18.450  0.00  0.00    +0.000 C 
ATOM      9  N   UNL     1       1.171   9.323  19.184  0.00  0.00    +0.000 N 
ATOM     10  H   UNL     1       0.847   8.994  20.084  0.00  0.00    +0.000 HD
BRANCH   8  11
ATOM     11  C   UNL     1       2.426   7.215  19.152  0.00  0.00    +0.000 C 
BRANCH  11  12
ATOM     12  O   UNL     1       2.969   6.271  18.237  0.00  0.00    +0.000 OA
BRANCH  12  13
ATOM     13  C   UNL     1       2.606   4.963  18.445  0.00  0.00    +0.000 A 
ATOM     14  C   UNL     1       2.562   3.972  17.459  0.00  0.00    +0.000 A 
ATOM     15  C   UNL     1       2.165   2.670  17.780  0.00  0.00    +0.000 A 
ATOM     16  C   UNL     1       1.819   2.348  19.089  0.00  0.00    +0.000 A 
ATOM     17  C   UNL     1       1.887   3.330  20.078  0.00  0.00    +0.000 A 
ATOM     18 CL   UNL     1       1.464   2.927  21.696  0.00  0.00    +0.000 Cl
ATOM     19  C   UNL     1       2.288   4.627  19.762  0.00  0.00    +0.000 A 
ENDBRANCH  12  13
ENDBRANCH  11  12
ENDBRANCH   8  11
ENDBRANCH   1   9
BRANCH   4  20
ATOM     20  C   UNL     1      -0.588  12.442  22.339  0.00  0.00    +0.000 C 
BRANCH  20  21
ATOM     21  C   UNL     1      -1.971  12.965  22.675  0.00  0.00    +0.000 A 
ATOM     22  C   UNL     1      -2.841  12.214  23.477  0.00  0.00    +0.000 A 
ATOM     23  C   UNL     1      -4.129  12.666  23.786  0.00  0.00    +0.000 A 
ATOM     24  C   UNL     1      -4.515  13.914  23.287  0.00  0.00    +0.000 A 
ATOM     25  N   UNL     1      -5.704  14.597  23.423  0.00  0.00    +0.000 N 
ATOM     26  C   UNL     1      -5.620  15.817  22.805  0.00  0.00    +0.000 A 
ATOM     27  C   UNL     1      -4.376  15.910  22.226  0.00  0.00    +0.000 A 
ATOM     28  C   UNL     1      -3.671  14.708  22.514  0.00  0.00    +0.000 A 
ATOM     29  C   UNL     1      -2.387  14.223  22.197  0.00  0.00    +0.000 A 
ATOM     30  H   UNL     1      -6.511  14.248  23.919  0.00  0.00    +0.000 HD
ENDBRANCH  20  21
ENDBRANCH   4  20
TORSDOF 6
ENDMDL
MODEL 9
REMARK VINA RESULT:      -7.1      3.956      6.087
REMARK  Name = 
REMARK  6 active torsions:
REMARK  status: ('A' for Active; 'I' for Inactive)
REMARK    1  A    between atoms: C_2  and  C_3
REMARK    2  A    between atoms: C_3  and  O_4
REMARK    3  A    between atoms: O_4  and  C_5
REMARK    4  A    between atoms: N_12  and  C_13
REMARK    5  A    between atoms: N_16  and  C_17
REMARK    6  A    between atoms: C_17  and  C_18
REMARK                            x       y       z     vdW  Elec       q    Type
REMARK                         _______ _______ _______ _____ _____    ______ ____
ROOT
ATOM      1  C   UNL     1      -0.151  10.129  20.297  0.00  0.00    +0.000 C 
ATOM      2  C   UNL     1       0.506   8.859  20.828  0.00  0.00    +0.000 C 
ATOM      3  C   UNL     1       1.801   8.528  20.087  0.00  0.00    +0.000 C 
ATOM      4  N   UNL     1       1.598   8.423  18.634  0.00  0.00    +0.000 NA
ATOM      5  C   UNL     1       0.992   9.648  18.084  0.00  0.00    +0.000 C 
ATOM      6  C   UNL     1      -0.319  10.023  18.780  0.00  0.00    +0.000 C 
ENDROOT
BRANCH   1   9
ATOM      7  O   UNL     1      -1.227  12.604  21.197  0.00  0.00    +0.000 OA
ATOM      8  C   UNL     1      -0.007  12.489  21.089  0.00  0.00    +0.000 C 
ATOM      9  N   UNL     1       0.607  11.320  20.688  0.00  0.00    +0.000 N 
ATOM     10  H   UNL     1       1.608  11.329  20.541  0.00  0.00    +0.000 HD
BRANCH   8  11
ATOM     11  C   UNL     1       0.945  13.656  21.359  0.00  0.00    +0.000 C 
BRANCH  11  12
ATOM     12  O   UNL     1       2.308  13.259  21.258  0.00  0.00    +0.000 OA
BRANCH  12  13
ATOM     13  C   UNL     1       3.044  13.898  20.292  0.00  0.00    +0.000 A 
ATOM     14  C   UNL     1       2.772  13.867  18.920  0.00  0.00    +0.000 A 
ATOM     15  C   UNL     1       3.598  14.548  18.019  0.00  0.00    +0.000 A 
ATOM     16  C   UNL     1       4.693  15.269  18.483  0.00  0.00    +0.000 A 
ATOM     17  C   UNL     1       4.950  15.321  19.854  0.00  0.00    +0.000 A 
ATOM     18 CL   UNL     1       6.302  16.219  20.425  0.00  0.00    +0.000 Cl
ATOM     19  C   UNL     1       4.126  14.649  20.755  0.00  0.00    +0.000 A 
ENDBRANCH  12  13
ENDBRANCH  11  12
ENDBRANCH   8  11
ENDBRANCH   1   9
BRANCH   4  20
ATOM     20  C   UNL     1       2.875   8.153  17.932  0.00  0.00    +0.000 C 
BRANCH  20  21
ATOM     21  C   UNL     1       3.266   6.688  17.874  0.00  0.00    +0.000 A 
ATOM     22  C   UNL     1       4.607   6.315  17.719  0.00  0.00    +0.000 A 
ATOM     23  C   UNL     1       4.990   4.970  17.644  0.00  0.00    +0.000 A 
ATOM     24  C   UNL     1       3.987   4.002  17.757  0.00  0.00    +0.000 A 
ATOM     25  N   UNL     1       4.067   2.628  17.714  0.00  0.00    +0.000 N 
ATOM     26  C   UNL     1       2.831   2.076  17.920  0.00  0.00    +0.000 A 
ATOM     27  C   UNL     1       1.929   3.106  18.058  0.00  0.00    +0.000 A 
ATOM     28  C   UNL     1       2.646   4.329  17.945  0.00  0.00    +0.000 A 
ATOM     29  C   UNL     1       2.280   5.689  17.995  0.00  0.00    +0.000 A 
ATOM     30  H   UNL     1       4.922   2.110  17.565  0.00  0.00    +0.000 HD
ENDBRANCH  20  21
ENDBRANCH   4  20
TORSDOF 6
ENDMDL
