MODEL 1
REMARK VINA RESULT:      -7.5      0.000      0.000
REMARK  Name = 
REMARK  4 active torsions:
REMARK  status: ('A' for Active; 'I' for Inactive)
REMARK    1  A    between atoms: C_1  and  C_2
REMARK    2  A    between atoms: N_5  and  C_6
REMARK    3  A    between atoms: C_6  and  C_7
REMARK    4  A    between atoms: C_12  and  C_13
REMARK                            x       y       z     vdW  Elec       q    Type
REMARK                         _______ _______ _______ _____ _____    ______ ____
ROOT
ATOM      1  C   UNL     1       3.199   2.042  17.565  0.00  0.00    +0.000 C 
ATOM      2  C   UNL     1       3.344   3.479  18.052  0.00  0.00    +0.000 C 
ATOM      3  C   UNL     1       4.239   4.248  17.104  0.00  0.00    +0.000 C 
ATOM      4  O   UNL     1       4.163   4.191  15.885  0.00  0.00    +0.000 OA
ATOM      5  N   UNL     1       5.118   5.009  17.814  0.00  0.00    +0.000 N 
ATOM      6  C   UNL     1       5.167   4.624  19.124  0.00  0.00    +0.000 C 
ATOM      7  O   UNL     1       6.038   4.920  19.930  0.00  0.00    +0.000 OA
ATOM      8  C   UNL     1       3.996   3.700  19.433  0.00  0.00    +0.000 C 
ATOM      9  C   UNL     1       4.487   2.474  20.197  0.00  0.00    +0.000 C 
ATOM     10  C   UNL     1       2.909   4.508  20.165  0.00  0.00    +0.000 C 
ATOM     11  C   UNL     1       1.651   3.683  20.465  0.00  0.00    +0.000 C 
ATOM     12  C   UNL     1       1.003   3.559  19.082  0.00  0.00    +0.000 C 
ATOM     13  C   UNL     1       2.023   4.261  18.191  0.00  0.00    +0.000 C 
ATOM     14  O   UNL     1       2.414   5.342  19.082  0.00  0.00    +0.000 OA
ENDROOT
BRANCH   5  15
ATOM     15  C   UNL     1       6.163   5.785  17.164  0.00  0.00    +0.000 C 
BRANCH  15  16
ATOM     16  C   UNL     1       7.250   4.996  16.426  0.00  0.00    +0.000 C 
ATOM     17  N   UNL     1       7.371   5.149  15.078  0.00  0.00    +0.000 N 
ATOM     18  O   UNL     1       8.043   4.270  17.023  0.00  0.00    +0.000 OA
ATOM     19  H   UNL     1       6.750   5.716  14.521  0.00  0.00    +0.000 HD
ATOM     20  H   UNL     1       8.083   4.607  14.610  0.00  0.00    +0.000 HD
ENDBRANCH  15  16
ENDBRANCH   5  15
TORSDOF 2
ENDMDL
MODEL 2
REMARK VINA RESULT:      -7.3      1.612      1.904
REMARK  Name = 
REMARK  4 active torsions:
REMARK  status: ('A' for Active; 'I' for Inactive)
REMARK    1  A    between atoms: C_1  and  C_2
REMARK    2  A    between atoms: N_5  and  C_6
REMARK    3  A    between atoms: C_6  and  C_7
REMARK    4  A    between atoms: C_12  and  C_13
REMARK                            x       y       z     vdW  Elec       q    Type
REMARK                         _______ _______ _______ _____ _____    ______ ____
ROOT
ATOM      1  C   UNL     1       1.506   4.383  17.506  0.00  0.00    +0.000 C 
ATOM      2  C   UNL     1       2.449   4.542  18.692  0.00  0.00    +0.000 C 
ATOM      3  C   UNL     1       3.531   5.544  18.349  0.00  0.00    +0.000 C 
ATOM      4  O   UNL     1       3.329   6.611  17.788  0.00  0.00    +0.000 OA
ATOM      5  N   UNL     1       4.740   5.079  18.770  0.00  0.00    +0.000 N 
ATOM      6  C   UNL     1       4.688   3.748  19.069  0.00  0.00    +0.000 C 
ATOM      7  O   UNL     1       5.648   3.001  19.202  0.00  0.00    +0.000 OA
ATOM      8  C   UNL     1       3.236   3.295  19.149  0.00  0.00    +0.000 C 
ATOM      9  C   UNL     1       3.048   2.003  18.360  0.00  0.00    +0.000 C 
ATOM     10  C   UNL     1       2.830   3.196  20.630  0.00  0.00    +0.000 C 
ATOM     11  C   UNL     1       1.358   2.811  20.823  0.00  0.00    +0.000 C 
ATOM     12  C   UNL     1       0.627   4.099  20.434  0.00  0.00    +0.000 C 
ATOM     13  C   UNL     1       1.782   5.000  20.004  0.00  0.00    +0.000 C 
ATOM     14  O   UNL     1       2.774   4.603  20.992  0.00  0.00    +0.000 OA
ENDROOT
BRANCH   5  15
ATOM     15  C   UNL     1       5.977   5.794  18.492  0.00  0.00    +0.000 C 
BRANCH  15  16
ATOM     16  C   UNL     1       6.674   5.475  17.165  0.00  0.00    +0.000 C 
ATOM     17  N   UNL     1       7.556   4.438  17.118  0.00  0.00    +0.000 N 
ATOM     18  O   UNL     1       6.422   6.098  16.134  0.00  0.00    +0.000 OA
ATOM     19  H   UNL     1       7.821   3.892  17.925  0.00  0.00    +0.000 HD
ATOM     20  H   UNL     1       8.016   4.258  16.238  0.00  0.00    +0.000 HD
ENDBRANCH  15  16
ENDBRANCH   5  15
TORSDOF 2
ENDMDL
MODEL 3
REMARK VINA RESULT:      -7.3      2.165      4.831
REMARK  Name = 
REMARK  4 active torsions:
REMARK  status: ('A' for Active; 'I' for Inactive)
REMARK    1  A    between atoms: C_1  and  C_2
REMARK    2  A    between atoms: N_5  and  C_6
REMARK    3  A    between atoms: C_6  and  C_7
REMARK    4  A    between atoms: C_12  and  C_13
REMARK                            x       y       z     vdW  Elec       q    Type
REMARK                         _______ _______ _______ _____ _____    ______ ____
ROOT
ATOM      1  C   UNL     1       3.808   6.669  17.766  0.00  0.00    +0.000 C 
ATOM      2  C   UNL     1       4.132   5.195  17.560  0.00  0.00    +0.000 C 
ATOM      3  C   UNL     1       2.945   4.351  17.977  0.00  0.00    +0.000 C 
ATOM      4  O   UNL     1       1.785   4.603  17.686  0.00  0.00    +0.000 OA
ATOM      5  N   UNL     1       3.373   3.282  18.705  0.00  0.00    +0.000 N 
ATOM      6  C   UNL     1       4.663   3.444  19.122  0.00  0.00    +0.000 C 
ATOM      7  O   UNL     1       5.222   2.803  20.002  0.00  0.00    +0.000 OA
ATOM      8  C   UNL     1       5.305   4.603  18.370  0.00  0.00    +0.000 C 
ATOM      9  C   UNL     1       6.033   5.520  19.348  0.00  0.00    +0.000 C 
ATOM     10  C   UNL     1       6.198   4.033  17.254  0.00  0.00    +0.000 C 
ATOM     11  C   UNL     1       6.843   5.123  16.388  0.00  0.00    +0.000 C 
ATOM     12  C   UNL     1       5.661   5.622  15.553  0.00  0.00    +0.000 C 
ATOM     13  C   UNL     1       4.506   4.800  16.118  0.00  0.00    +0.000 C 
ATOM     14  O   UNL     1       5.194   3.535  16.328  0.00  0.00    +0.000 OA
ENDROOT
BRANCH   5  15
ATOM     15  C   UNL     1       2.440   2.348  19.317  0.00  0.00    +0.000 C 
BRANCH  15  16
ATOM     16  C   UNL     1       1.748   2.808  20.605  0.00  0.00    +0.000 C 
ATOM     17  N   UNL     1       0.591   3.520  20.509  0.00  0.00    +0.000 N 
ATOM     18  O   UNL     1       2.182   2.511  21.717  0.00  0.00    +0.000 OA
ATOM     19  H   UNL     1       0.183   3.810  19.633  0.00  0.00    +0.000 HD
ATOM     20  H   UNL     1       0.161   3.827  21.370  0.00  0.00    +0.000 HD
ENDBRANCH  15  16
ENDBRANCH   5  15
TORSDOF 2
ENDMDL
MODEL 4
REMARK VINA RESULT:      -7.3      1.457      1.565
REMARK  Name = 
REMARK  4 active torsions:
REMARK  status: ('A' for Active; 'I' for Inactive)
REMARK    1  A    between atoms: C_1  and  C_2
REMARK    2  A    between atoms: N_5  and  C_6
REMARK    3  A    between atoms: C_6  and  C_7
REMARK    4  A    between atoms: C_12  and  C_13
REMARK                            x       y       z     vdW  Elec       q    Type
REMARK                         _______ _______ _______ _____ _____    ______ ____
ROOT
ATOM      1  C   UNL     1       3.541   2.199  17.419  0.00  0.00    +0.000 C 
ATOM      2  C   UNL     1       3.842   3.643  17.801  0.00  0.00    +0.000 C 
ATOM      3  C   UNL     1       4.981   4.166  16.950  0.00  0.00    +0.000 C 
ATOM      4  O   UNL     1       5.077   3.988  15.745  0.00  0.00    +0.000 OA
ATOM      5  N   UNL     1       5.857   4.861  17.728  0.00  0.00    +0.000 N 
ATOM      6  C   UNL     1       5.649   4.618  19.056  0.00  0.00    +0.000 C 
ATOM      7  O   UNL     1       6.427   4.869  19.965  0.00  0.00    +0.000 OA
ATOM      8  C   UNL     1       4.311   3.915  19.247  0.00  0.00    +0.000 C 
ATOM      9  C   UNL     1       4.477   2.721  20.180  0.00  0.00    +0.000 C 
ATOM     10  C   UNL     1       3.273   4.948  19.721  0.00  0.00    +0.000 C 
ATOM     11  C   UNL     1       1.867   4.355  19.880  0.00  0.00    +0.000 C 
ATOM     12  C   UNL     1       1.419   4.177  18.426  0.00  0.00    +0.000 C 
ATOM     13  C   UNL     1       2.660   4.622  17.656  0.00  0.00    +0.000 C 
ATOM     14  O   UNL     1       3.085   5.724  18.505  0.00  0.00    +0.000 OA
ENDROOT
BRANCH   5  15
ATOM     15  C   UNL     1       7.098   5.400  17.194  0.00  0.00    +0.000 C 
BRANCH  15  16
ATOM     16  C   UNL     1       7.483   6.815  17.639  0.00  0.00    +0.000 C 
ATOM     17  N   UNL     1       8.224   6.969  18.771  0.00  0.00    +0.000 N 
ATOM     18  O   UNL     1       7.184   7.808  16.976  0.00  0.00    +0.000 OA
ATOM     19  H   UNL     1       8.495   6.204  19.371  0.00  0.00    +0.000 HD
ATOM     20  H   UNL     1       8.452   7.910  19.054  0.00  0.00    +0.000 HD
ENDBRANCH  15  16
ENDBRANCH   5  15
TORSDOF 2
ENDMDL
MODEL 5
REMARK VINA RESULT:      -7.2      1.405      2.506
REMARK  Name = 
REMARK  4 active torsions:
REMARK  status: ('A' for Active; 'I' for Inactive)
REMARK    1  A    between atoms: C_1  and  C_2
REMARK    2  A    between atoms: N_5  and  C_6
REMARK    3  A    between atoms: C_6  and  C_7
REMARK    4  A    between atoms: C_12  and  C_13
REMARK                            x       y       z     vdW  Elec       q    Type
REMARK                         _______ _______ _______ _____ _____    ______ ____
ROOT
ATOM      1  C   UNL     1       4.061   2.828  20.364  0.00  0.00    +0.000 C 
ATOM      2  C   UNL     1       3.629   3.533  19.085  0.00  0.00    +0.000 C 
ATOM      3  C   UNL     1       4.791   4.329  18.528  0.00  0.00    +0.000 C 
ATOM      4  O   UNL     1       5.937   3.911  18.448  0.00  0.00    +0.000 OA
ATOM      5  N   UNL     1       4.359   5.557  18.128  0.00  0.00    +0.000 N 
ATOM      6  C   UNL     1       3.120   5.839  18.628  0.00  0.00    +0.000 C 
ATOM      7  O   UNL     1       2.596   6.943  18.676  0.00  0.00    +0.000 OA
ATOM      8  C   UNL     1       2.492   4.571  19.192  0.00  0.00    +0.000 C 
ATOM      9  C   UNL     1       1.906   4.848  20.573  0.00  0.00    +0.000 C 
ATOM     10  C   UNL     1       1.477   4.026  18.172  0.00  0.00    +0.000 C 
ATOM     11  C   UNL     1       0.832   2.706  18.615  0.00  0.00    +0.000 C 
ATOM     12  C   UNL     1       1.972   1.702  18.417  0.00  0.00    +0.000 C 
ATOM     13  C   UNL     1       3.115   2.606  17.965  0.00  0.00    +0.000 C 
ATOM     14  O   UNL     1       2.369   3.537  17.134  0.00  0.00    +0.000 OA
ENDROOT
BRANCH   5  15
ATOM     15  C   UNL     1       5.278   6.573  17.636  0.00  0.00    +0.000 C 
BRANCH  15  16
ATOM     16  C   UNL     1       5.876   6.345  16.243  0.00  0.00    +0.000 C 
ATOM     17  N   UNL     1       7.141   5.852  16.144  0.00  0.00    +0.000 N 
ATOM     18  O   UNL     1       5.227   6.551  15.217  0.00  0.00    +0.000 OA
ATOM     19  H   UNL     1       7.735   5.672  16.940  0.00  0.00    +0.000 HD
ATOM     20  H   UNL     1       7.520   5.726  15.218  0.00  0.00    +0.000 HD
ENDBRANCH  15  16
ENDBRANCH   5  15
TORSDOF 2
ENDMDL
MODEL 6
REMARK VINA RESULT:      -7.2      1.477      2.883
REMARK  Name = 
REMARK  4 active torsions:
REMARK  status: ('A' for Active; 'I' for Inactive)
REMARK    1  A    between atoms: C_1  and  C_2
REMARK    2  A    between atoms: N_5  and  C_6
REMARK    3  A    between atoms: C_6  and  C_7
REMARK    4  A    between atoms: C_12  and  C_13
REMARK                            x       y       z     vdW  Elec       q    Type
REMARK                         _______ _______ _______ _____ _____    ______ ____
ROOT
ATOM      1  C   UNL     1       3.234   5.485  20.069  0.00  0.00    +0.000 C 
ATOM      2  C   UNL     1       3.897   4.288  19.399  0.00  0.00    +0.000 C 
ATOM      3  C   UNL     1       5.339   4.622  19.075  0.00  0.00    +0.000 C 
ATOM      4  O   UNL     1       6.103   5.190  19.842  0.00  0.00    +0.000 OA
ATOM      5  N   UNL     1       5.643   4.185  17.821  0.00  0.00    +0.000 N 
ATOM      6  C   UNL     1       4.517   3.881  17.110  0.00  0.00    +0.000 C 
ATOM      7  O   UNL     1       4.448   3.733  15.898  0.00  0.00    +0.000 OA
ATOM      8  C   UNL     1       3.318   3.816  18.047  0.00  0.00    +0.000 C 
ATOM      9  C   UNL     1       2.151   4.602  17.457  0.00  0.00    +0.000 C 
ATOM     10  C   UNL     1       3.001   2.340  18.343  0.00  0.00    +0.000 C 
ATOM     11  C   UNL     1       1.846   2.162  19.337  0.00  0.00    +0.000 C 
ATOM     12  C   UNL     1       2.491   2.566  20.666  0.00  0.00    +0.000 C 
ATOM     13  C   UNL     1       3.890   2.986  20.224  0.00  0.00    +0.000 C 
ATOM     14  O   UNL     1       4.125   1.985  19.194  0.00  0.00    +0.000 OA
ENDROOT
BRANCH   5  15
ATOM     15  C   UNL     1       6.935   4.451  17.207  0.00  0.00    +0.000 C 
BRANCH  15  16
ATOM     16  C   UNL     1       7.064   5.754  16.410  0.00  0.00    +0.000 C 
ATOM     17  N   UNL     1       6.850   6.938  17.048  0.00  0.00    +0.000 N 
ATOM     18  O   UNL     1       7.403   5.760  15.227  0.00  0.00    +0.000 OA
ATOM     19  H   UNL     1       6.558   7.010  18.011  0.00  0.00    +0.000 HD
ATOM     20  H   UNL     1       6.924   7.782  16.499  0.00  0.00    +0.000 HD
ENDBRANCH  15  16
ENDBRANCH   5  15
TORSDOF 2
ENDMDL
MODEL 7
REMARK VINA RESULT:      -7.2      1.291      1.572
REMARK  Name = 
REMARK  4 active torsions:
REMARK  status: ('A' for Active; 'I' for Inactive)
REMARK    1  A    between atoms: C_1  and  C_2
REMARK    2  A    between atoms: N_5  and  C_6
REMARK    3  A    between atoms: C_6  and  C_7
REMARK    4  A    between atoms: C_12  and  C_13
REMARK                            x       y       z     vdW  Elec       q    Type
REMARK                         _______ _______ _______ _____ _____    ______ ____
ROOT
ATOM      1  C   UNL     1       1.978   1.857  18.660  0.00  0.00    +0.000 C 
ATOM      2  C   UNL     1       2.596   3.248  18.576  0.00  0.00    +0.000 C 
ATOM      3  C   UNL     1       3.109   3.490  17.171  0.00  0.00    +0.000 C 
ATOM      4  O   UNL     1       2.492   3.207  16.154  0.00  0.00    +0.000 OA
ATOM      5  N   UNL     1       4.339   4.073  17.224  0.00  0.00    +0.000 N 
ATOM      6  C   UNL     1       4.887   3.973  18.471  0.00  0.00    +0.000 C 
ATOM      7  O   UNL     1       6.063   4.147  18.757  0.00  0.00    +0.000 OA
ATOM      8  C   UNL     1       3.821   3.539  19.469  0.00  0.00    +0.000 C 
ATOM      9  C   UNL     1       4.353   2.408  20.343  0.00  0.00    +0.000 C 
ATOM     10  C   UNL     1       3.346   4.775  20.253  0.00  0.00    +0.000 C 
ATOM     11  C   UNL     1       2.218   4.460  21.243  0.00  0.00    +0.000 C 
ATOM     12  C   UNL     1       1.015   4.256  20.317  0.00  0.00    +0.000 C 
ATOM     13  C   UNL     1       1.649   4.410  18.937  0.00  0.00    +0.000 C 
ATOM     14  O   UNL     1       2.594   5.478  19.227  0.00  0.00    +0.000 OA
ENDROOT
BRANCH   5  15
ATOM     15  C   UNL     1       5.116   4.337  16.023  0.00  0.00    +0.000 C 
BRANCH  15  16
ATOM     16  C   UNL     1       5.780   5.715  15.919  0.00  0.00    +0.000 C 
ATOM     17  N   UNL     1       7.104   5.829  16.212  0.00  0.00    +0.000 N 
ATOM     18  O   UNL     1       5.160   6.706  15.533  0.00  0.00    +0.000 OA
ATOM     19  H   UNL     1       7.672   5.064  16.546  0.00  0.00    +0.000 HD
ATOM     20  H   UNL     1       7.516   6.749  16.153  0.00  0.00    +0.000 HD
ENDBRANCH  15  16
ENDBRANCH   5  15
TORSDOF 2
ENDMDL
MODEL 8
REMARK VINA RESULT:      -7.1      1.623      2.593
REMARK  Name = 
REMARK  4 active torsions:
REMARK  status: ('A' for Active; 'I' for Inactive)
REMARK    1  A    between atoms: C_1  and  C_2
REMARK    2  A    between atoms: N_5  and  C_6
REMARK    3  A    between atoms: C_6  and  C_7
REMARK    4  A    between atoms: C_12  and  C_13
REMARK                            x       y       z     vdW  Elec       q    Type
REMARK                         _______ _______ _______ _____ _____    ______ ____
ROOT
ATOM      1  C   UNL     1       2.643   2.648  21.356  0.00  0.00    +0.000 C 
ATOM      2  C   UNL     1       2.947   3.048  19.918  0.00  0.00    +0.000 C 
ATOM      3  C   UNL     1       4.447   3.119  19.718  0.00  0.00    +0.000 C 
ATOM      4  O   UNL     1       5.237   2.284  20.131  0.00  0.00    +0.000 OA
ATOM      5  N   UNL     1       4.764   4.238  19.008  0.00  0.00    +0.000 N 
ATOM      6  C   UNL     1       3.720   5.117  18.966  0.00  0.00    +0.000 C 
ATOM      7  O   UNL     1       3.784   6.297  18.651  0.00  0.00    +0.000 OA
ATOM      8  C   UNL     1       2.447   4.428  19.441  0.00  0.00    +0.000 C 
ATOM      9  C   UNL     1       1.720   5.312  20.449  0.00  0.00    +0.000 C 
ATOM     10  C   UNL     1       1.604   4.045  18.211  0.00  0.00    +0.000 C 
ATOM     11  C   UNL     1       0.325   3.281  18.576  0.00  0.00    +0.000 C 
ATOM     12  C   UNL     1       0.866   1.902  18.966  0.00  0.00    +0.000 C 
ATOM     13  C   UNL     1       2.373   2.107  18.840  0.00  0.00    +0.000 C 
ATOM     14  O   UNL     1       2.401   2.960  17.662  0.00  0.00    +0.000 OA
ENDROOT
BRANCH   5  15
ATOM     15  C   UNL     1       6.144   4.614  18.745  0.00  0.00    +0.000 C 
BRANCH  15  16
ATOM     16  C   UNL     1       6.617   4.532  17.289  0.00  0.00    +0.000 C 
ATOM     17  N   UNL     1       5.982   3.678  16.440  0.00  0.00    +0.000 N 
ATOM     18  O   UNL     1       7.519   5.251  16.859  0.00  0.00    +0.000 OA
ATOM     19  H   UNL     1       5.245   3.051  16.725  0.00  0.00    +0.000 HD
ATOM     20  H   UNL     1       6.321   3.628  15.491  0.00  0.00    +0.000 HD
ENDBRANCH  15  16
ENDBRANCH   5  15
TORSDOF 2
ENDMDL
MODEL 9
REMARK VINA RESULT:      -7.1      1.185      1.231
REMARK  Name = 
REMARK  4 active torsions:
REMARK  status: ('A' for Active; 'I' for Inactive)
REMARK    1  A    between atoms: C_1  and  C_2
REMARK    2  A    between atoms: N_5  and  C_6
REMARK    3  A    between atoms: C_6  and  C_7
REMARK    4  A    between atoms: C_12  and  C_13
REMARK                            x       y       z     vdW  Elec       q    Type
REMARK                         _______ _______ _______ _____ _____    ______ ____
ROOT
ATOM      1  C   UNL     1       2.362   1.659  18.393  0.00  0.00    +0.000 C 
ATOM      2  C   UNL     1       2.738   3.114  18.644  0.00  0.00    +0.000 C 
ATOM      3  C   UNL     1       3.287   3.723  17.370  0.00  0.00    +0.000 C 
ATOM      4  O   UNL     1       2.790   3.570  16.264  0.00  0.00    +0.000 OA
ATOM      5  N   UNL     1       4.394   4.464  17.653  0.00  0.00    +0.000 N 
ATOM      6  C   UNL     1       4.875   4.188  18.901  0.00  0.00    +0.000 C 
ATOM      7  O   UNL     1       5.985   4.477  19.326  0.00  0.00    +0.000 OA
ATOM      8  C   UNL     1       3.839   3.396  19.688  0.00  0.00    +0.000 C 
ATOM      9  C   UNL     1       4.502   2.201  20.367  0.00  0.00    +0.000 C 
ATOM     10  C   UNL     1       3.115   4.350  20.654  0.00  0.00    +0.000 C 
ATOM     11  C   UNL     1       1.999   3.663  21.451  0.00  0.00    +0.000 C 
ATOM     12  C   UNL     1       0.907   3.478  20.394  0.00  0.00    +0.000 C 
ATOM     13  C   UNL     1       1.588   4.014  19.138  0.00  0.00    +0.000 C 
ATOM     14  O   UNL     1       2.318   5.130  19.721  0.00  0.00    +0.000 OA
ENDROOT
BRANCH   5  15
ATOM     15  C   UNL     1       5.187   5.092  16.607  0.00  0.00    +0.000 C 
BRANCH  15  16
ATOM     16  C   UNL     1       6.342   4.267  16.027  0.00  0.00    +0.000 C 
ATOM     17  N   UNL     1       7.544   4.283  16.665  0.00  0.00    +0.000 N 
ATOM     18  O   UNL     1       6.197   3.558  15.032  0.00  0.00    +0.000 OA
ATOM     19  H   UNL     1       7.740   4.850  17.477  0.00  0.00    +0.000 HD
ATOM     20  H   UNL     1       8.295   3.746  16.257  0.00  0.00    +0.000 HD
ENDBRANCH  15  16
ENDBRANCH   5  15
TORSDOF 2
ENDMDL
