MODEL 1
REMARK VINA RESULT:      -7.1      0.000      0.000
REMARK  Name = 
REMARK  5 active torsions:
REMARK  status: ('A' for Active; 'I' for Inactive)
REMARK    1  A    between atoms: C_2  and  C_3
REMARK    2  A    between atoms: C_7  and  N_8
REMARK    3  A    between atoms: N_11  and  C_12
REMARK    4  A    between atoms: C_15  and  C_16
REMARK    5  A    between atoms: C_23  and  C_24
REMARK                            x       y       z     vdW  Elec       q    Type
REMARK                         _______ _______ _______ _____ _____    ______ ____
ROOT
ATOM      1  C   UNL     1       1.680   8.128  20.245  0.00  0.00    +0.000 A 
ATOM      2  C   UNL     1       1.648   6.904  20.934  0.00  0.00    +0.000 A 
ATOM      3  C   UNL     1       1.904   5.695  20.274  0.00  0.00    +0.000 A 
ATOM      4  C   UNL     1       2.192   5.679  18.905  0.00  0.00    +0.000 A 
ATOM      5  C   UNL     1       2.265   6.908  18.227  0.00  0.00    +0.000 A 
ATOM      6  C   UNL     1       2.005   8.122  18.882  0.00  0.00    +0.000 A 
ENDROOT
BRANCH   4   7
ATOM      7  C   UNL     1       2.420   4.371  18.169  0.00  0.00    +0.000 C 
ATOM      8  C   UNL     1       1.655   3.185  18.815  0.00  0.00    +0.000 C 
ATOM      9  N   UNL     1       1.953   1.887  18.166  0.00  0.00    +0.000 NA
ATOM     10  C   UNL     1       3.415   1.699  18.155  0.00  0.00    +0.000 C 
ATOM     11  C   UNL     1       4.144   2.880  17.499  0.00  0.00    +0.000 C 
ATOM     12  O   UNL     1       3.838   4.114  18.153  0.00  0.00    +0.000 OA
ATOM     13  H   UNL     1       1.622   1.922  17.202  0.00  0.00    +0.000 HD
ENDBRANCH   4   7
BRANCH   1  17
ATOM     14  N   UNL     1      -0.008  11.080  21.553  0.00  0.00    +0.000 N 
ATOM     15  C   UNL     1       0.127   9.898  20.842  0.00  0.00    +0.000 C 
ATOM     16  O   UNL     1      -0.775   9.344  20.225  0.00  0.00    +0.000 OA
ATOM     17  N   UNL     1       1.395   9.349  20.934  0.00  0.00    +0.000 N 
ATOM     18  H   UNL     1       0.790  11.405  22.081  0.00  0.00    +0.000 HD
ATOM     19  H   UNL     1       1.840   9.482  21.832  0.00  0.00    +0.000 HD
BRANCH  14  24
ATOM     20  C   UNL     1      -3.194  12.410  22.940  0.00  0.00    +0.000 A 
ATOM     21  C   UNL     1      -3.645  13.225  21.893  0.00  0.00    +0.000 A 
ATOM     22  C   UNL     1      -2.882  13.351  20.743  0.00  0.00    +0.000 A 
ATOM     23  C   UNL     1      -1.677  12.656  20.630  0.00  0.00    +0.000 A 
ATOM     24  C   UNL     1      -1.210  11.824  21.655  0.00  0.00    +0.000 A 
ATOM     25  C   UNL     1      -1.976  11.720  22.826  0.00  0.00    +0.000 A 
BRANCH  20  27
ATOM     26  N   UNL     1      -4.659  12.162  25.068  0.00  0.00    +0.000 NA
ATOM     27  C   UNL     1      -4.003  12.279  24.124  0.00  0.00    +0.000 C 
ENDBRANCH  20  27
ENDBRANCH  14  24
ENDBRANCH   1  17
BRANCH   6  28
ATOM     28  C   UNL     1       2.182   9.340  18.151  0.00  0.00    +0.000 C 
ATOM     29  N   UNL     1       2.279  10.334  17.560  0.00  0.00    +0.000 NA
ENDBRANCH   6  28
TORSDOF 5
ENDMDL
MODEL 2
REMARK VINA RESULT:      -7.1      2.586      4.275
REMARK  Name = 
REMARK  5 active torsions:
REMARK  status: ('A' for Active; 'I' for Inactive)
REMARK    1  A    between atoms: C_2  and  C_3
REMARK    2  A    between atoms: C_7  and  N_8
REMARK    3  A    between atoms: N_11  and  C_12
REMARK    4  A    between atoms: C_15  and  C_16
REMARK    5  A    between atoms: C_23  and  C_24
REMARK                            x       y       z     vdW  Elec       q    Type
REMARK                         _______ _______ _______ _____ _____    ______ ____
ROOT
ATOM      1  C   UNL     1       2.476   6.004  19.910  0.00  0.00    +0.000 A 
ATOM      2  C   UNL     1       2.885   6.732  18.780  0.00  0.00    +0.000 A 
ATOM      3  C   UNL     1       3.798   6.193  17.864  0.00  0.00    +0.000 A 
ATOM      4  C   UNL     1       4.329   4.913  18.057  0.00  0.00    +0.000 A 
ATOM      5  C   UNL     1       3.885   4.170  19.165  0.00  0.00    +0.000 A 
ATOM      6  C   UNL     1       2.974   4.707  20.090  0.00  0.00    +0.000 A 
ENDROOT
BRANCH   4   7
ATOM      7  C   UNL     1       5.357   4.339  17.098  0.00  0.00    +0.000 C 
ATOM      8  C   UNL     1       6.756   4.985  17.272  0.00  0.00    +0.000 C 
ATOM      9  N   UNL     1       7.739   4.506  16.272  0.00  0.00    +0.000 NA
ATOM     10  C   UNL     1       7.168   4.706  14.928  0.00  0.00    +0.000 C 
ATOM     11  C   UNL     1       5.791   4.046  14.781  0.00  0.00    +0.000 C 
ATOM     12  O   UNL     1       4.868   4.535  15.757  0.00  0.00    +0.000 OA
ATOM     13  H   UNL     1       7.889   3.507  16.416  0.00  0.00    +0.000 HD
ENDBRANCH   4   7
BRANCH   1  17
ATOM     14  N   UNL     1       0.326   8.346  21.689  0.00  0.00    +0.000 N 
ATOM     15  C   UNL     1       1.216   7.917  20.717  0.00  0.00    +0.000 C 
ATOM     16  O   UNL     1       1.637   8.609  19.797  0.00  0.00    +0.000 OA
ATOM     17  N   UNL     1       1.560   6.582  20.844  0.00  0.00    +0.000 N 
ATOM     18  H   UNL     1      -0.005   7.664  22.357  0.00  0.00    +0.000 HD
ATOM     19  H   UNL     1       0.810   5.990  21.174  0.00  0.00    +0.000 HD
BRANCH  14  24
ATOM     20  C   UNL     1      -0.721  11.765  20.661  0.00  0.00    +0.000 A 
ATOM     21  C   UNL     1      -1.214  12.288  21.864  0.00  0.00    +0.000 A 
ATOM     22  C   UNL     1      -1.221  11.500  23.005  0.00  0.00    +0.000 A 
ATOM     23  C   UNL     1      -0.725  10.197  22.949  0.00  0.00    +0.000 A 
ATOM     24  C   UNL     1      -0.214   9.654  21.764  0.00  0.00    +0.000 A 
ATOM     25  C   UNL     1      -0.233  10.449  20.608  0.00  0.00    +0.000 A 
BRANCH  20  27
ATOM     26  N   UNL     1      -0.711  13.277  18.551  0.00  0.00    +0.000 NA
ATOM     27  C   UNL     1      -0.709  12.600  19.488  0.00  0.00    +0.000 C 
ENDBRANCH  20  27
ENDBRANCH  14  24
ENDBRANCH   1  17
BRANCH   6  28
ATOM     28  C   UNL     1       2.501   3.864  21.145  0.00  0.00    +0.000 C 
ATOM     29  N   UNL     1       2.090   3.215  22.015  0.00  0.00    +0.000 NA
ENDBRANCH   6  28
TORSDOF 5
ENDMDL
MODEL 3
REMARK VINA RESULT:      -7.1      3.404      5.241
REMARK  Name = 
REMARK  5 active torsions:
REMARK  status: ('A' for Active; 'I' for Inactive)
REMARK    1  A    between atoms: C_2  and  C_3
REMARK    2  A    between atoms: C_7  and  N_8
REMARK    3  A    between atoms: N_11  and  C_12
REMARK    4  A    between atoms: C_15  and  C_16
REMARK    5  A    between atoms: C_23  and  C_24
REMARK                            x       y       z     vdW  Elec       q    Type
REMARK                         _______ _______ _______ _____ _____    ______ ____
ROOT
ATOM      1  C   UNL     1       3.946   5.586  18.508  0.00  0.00    +0.000 A 
ATOM      2  C   UNL     1       5.179   6.207  18.245  0.00  0.00    +0.000 A 
ATOM      3  C   UNL     1       5.952   5.840  17.136  0.00  0.00    +0.000 A 
ATOM      4  C   UNL     1       5.514   4.839  16.263  0.00  0.00    +0.000 A 
ATOM      5  C   UNL     1       4.261   4.249  16.503  0.00  0.00    +0.000 A 
ATOM      6  C   UNL     1       3.484   4.610  17.616  0.00  0.00    +0.000 A 
ENDROOT
BRANCH   4   7
ATOM      7  C   UNL     1       6.367   4.398  15.086  0.00  0.00    +0.000 C 
ATOM      8  C   UNL     1       7.318   5.518  14.589  0.00  0.00    +0.000 C 
ATOM      9  N   UNL     1       8.079   5.131  13.379  0.00  0.00    +0.000 NA
ATOM     10  C   UNL     1       7.120   4.684  12.352  0.00  0.00    +0.000 C 
ATOM     11  C   UNL     1       6.202   3.567  12.866  0.00  0.00    +0.000 C 
ATOM     12  O   UNL     1       5.480   3.977  14.031  0.00  0.00    +0.000 OA
ATOM     13  H   UNL     1       8.691   4.350  13.614  0.00  0.00    +0.000 HD
ENDBRANCH   4   7
BRANCH   1  17
ATOM     14  N   UNL     1       1.809   7.405  20.831  0.00  0.00    +0.000 N 
ATOM     15  C   UNL     1       2.501   7.166  19.654  0.00  0.00    +0.000 C 
ATOM     16  O   UNL     1       2.491   7.901  18.673  0.00  0.00    +0.000 OA
ATOM     17  N   UNL     1       3.183   5.961  19.658  0.00  0.00    +0.000 N 
ATOM     18  H   UNL     1       1.836   6.690  21.545  0.00  0.00    +0.000 HD
ATOM     19  H   UNL     1       2.711   5.219  20.155  0.00  0.00    +0.000 HD
BRANCH  14  24
ATOM     20  C   UNL     1      -0.301  10.400  20.184  0.00  0.00    +0.000 A 
ATOM     21  C   UNL     1      -0.560  10.855  21.483  0.00  0.00    +0.000 A 
ATOM     22  C   UNL     1      -0.056  10.156  22.569  0.00  0.00    +0.000 A 
ATOM     23  C   UNL     1       0.715   9.013  22.360  0.00  0.00    +0.000 A 
ATOM     24  C   UNL     1       1.000   8.544  21.071  0.00  0.00    +0.000 A 
ATOM     25  C   UNL     1       0.466   9.242  19.978  0.00  0.00    +0.000 A 
BRANCH  20  27
ATOM     26  N   UNL     1      -1.250  11.729  18.166  0.00  0.00    +0.000 NA
ATOM     27  C   UNL     1      -0.822  11.143  19.065  0.00  0.00    +0.000 C 
ENDBRANCH  20  27
ENDBRANCH  14  24
ENDBRANCH   1  17
BRANCH   6  28
ATOM     28  C   UNL     1       2.181   4.032  17.752  0.00  0.00    +0.000 C 
ATOM     29  N   UNL     1       1.141   3.539  17.898  0.00  0.00    +0.000 NA
ENDBRANCH   6  28
TORSDOF 5
ENDMDL
MODEL 4
REMARK VINA RESULT:      -7.0      2.061      9.239
REMARK  Name = 
REMARK  5 active torsions:
REMARK  status: ('A' for Active; 'I' for Inactive)
REMARK    1  A    between atoms: C_2  and  C_3
REMARK    2  A    between atoms: C_7  and  N_8
REMARK    3  A    between atoms: N_11  and  C_12
REMARK    4  A    between atoms: C_15  and  C_16
REMARK    5  A    between atoms: C_23  and  C_24
REMARK                            x       y       z     vdW  Elec       q    Type
REMARK                         _______ _______ _______ _____ _____    ______ ____
ROOT
ATOM      1  C   UNL     1      -0.064  10.672  21.704  0.00  0.00    +0.000 A 
ATOM      2  C   UNL     1      -0.705  10.428  22.930  0.00  0.00    +0.000 A 
ATOM      3  C   UNL     1      -1.804  11.195  23.337  0.00  0.00    +0.000 A 
ATOM      4  C   UNL     1      -2.288  12.230  22.530  0.00  0.00    +0.000 A 
ATOM      5  C   UNL     1      -1.673  12.444  21.284  0.00  0.00    +0.000 A 
ATOM      6  C   UNL     1      -0.567  11.682  20.873  0.00  0.00    +0.000 A 
ENDROOT
BRANCH   4   7
ATOM      7  C   UNL     1      -3.447  13.100  22.984  0.00  0.00    +0.000 C 
ATOM      8  C   UNL     1      -4.174  12.521  24.225  0.00  0.00    +0.000 C 
ATOM      9  N   UNL     1      -5.368  13.308  24.612  0.00  0.00    +0.000 NA
ATOM     10  C   UNL     1      -6.242  13.435  23.432  0.00  0.00    +0.000 C 
ATOM     11  C   UNL     1      -5.500  14.023  22.224  0.00  0.00    +0.000 C 
ATOM     12  O   UNL     1      -4.359  13.236  21.876  0.00  0.00    +0.000 OA
ATOM     13  H   UNL     1      -5.065  14.241  24.894  0.00  0.00    +0.000 HD
ENDBRANCH   4   7
BRANCH   1  17
ATOM     14  N   UNL     1       2.062   7.945  20.557  0.00  0.00    +0.000 N 
ATOM     15  C   UNL     1       0.881   8.585  20.895  0.00  0.00    +0.000 C 
ATOM     16  O   UNL     1      -0.237   8.093  20.796  0.00  0.00    +0.000 OA
ATOM     17  N   UNL     1       1.070   9.890  21.318  0.00  0.00    +0.000 N 
ATOM     18  H   UNL     1       2.919   8.478  20.615  0.00  0.00    +0.000 HD
ATOM     19  H   UNL     1       1.819  10.375  20.843  0.00  0.00    +0.000 HD
BRANCH  14  24
ATOM     20  C   UNL     1       1.980   4.226  20.470  0.00  0.00    +0.000 A 
ATOM     21  C   UNL     1       2.358   3.962  19.147  0.00  0.00    +0.000 A 
ATOM     22  C   UNL     1       2.614   5.014  18.281  0.00  0.00    +0.000 A 
ATOM     23  C   UNL     1       2.506   6.328  18.738  0.00  0.00    +0.000 A 
ATOM     24  C   UNL     1       2.145   6.621  20.059  0.00  0.00    +0.000 A 
ATOM     25  C   UNL     1       1.863   5.551  20.922  0.00  0.00    +0.000 A 
BRANCH  20  27
ATOM     26  N   UNL     1       1.525   2.228  22.063  0.00  0.00    +0.000 NA
ATOM     27  C   UNL     1       1.729   3.123  21.360  0.00  0.00    +0.000 C 
ENDBRANCH  20  27
ENDBRANCH  14  24
ENDBRANCH   1  17
BRANCH   6  28
ATOM     28  C   UNL     1      -0.045  11.896  19.558  0.00  0.00    +0.000 C 
ATOM     29  N   UNL     1       0.374  12.116  18.499  0.00  0.00    +0.000 NA
ENDBRANCH   6  28
TORSDOF 5
ENDMDL
MODEL 5
REMARK VINA RESULT:      -6.9      2.460      3.686
REMARK  Name = 
REMARK  5 active torsions:
REMARK  status: ('A' for Active; 'I' for Inactive)
REMARK    1  A    between atoms: C_2  and  C_3
REMARK    2  A    between atoms: C_7  and  N_8
REMARK    3  A    between atoms: N_11  and  C_12
REMARK    4  A    between atoms: C_15  and  C_16
REMARK    5  A    between atoms: C_23  and  C_24
REMARK                            x       y       z     vdW  Elec       q    Type
REMARK                         _______ _______ _______ _____ _____    ______ ____
ROOT
ATOM      1  C   UNL     1       2.564   6.296  19.879  0.00  0.00    +0.000 A 
ATOM      2  C   UNL     1       2.972   7.008  18.738  0.00  0.00    +0.000 A 
ATOM      3  C   UNL     1       3.807   6.420  17.779  0.00  0.00    +0.000 A 
ATOM      4  C   UNL     1       4.259   5.106  17.939  0.00  0.00    +0.000 A 
ATOM      5  C   UNL     1       3.816   4.382  19.059  0.00  0.00    +0.000 A 
ATOM      6  C   UNL     1       2.984   4.967  20.026  0.00  0.00    +0.000 A 
ENDROOT
BRANCH   4   7
ATOM      7  C   UNL     1       5.205   4.476  16.931  0.00  0.00    +0.000 C 
ATOM      8  C   UNL     1       6.683   4.883  17.169  0.00  0.00    +0.000 C 
ATOM      9  N   UNL     1       7.598   4.357  16.130  0.00  0.00    +0.000 NA
ATOM     10  C   UNL     1       7.087   4.768  14.810  0.00  0.00    +0.000 C 
ATOM     11  C   UNL     1       5.629   4.342  14.597  0.00  0.00    +0.000 C 
ATOM     12  O   UNL     1       4.774   4.871  15.614  0.00  0.00    +0.000 OA
ATOM     13  H   UNL     1       7.594   3.338  16.177  0.00  0.00    +0.000 HD
ENDBRANCH   4   7
BRANCH   1  17
ATOM     14  N   UNL     1       0.614   8.745  21.743  0.00  0.00    +0.000 N 
ATOM     15  C   UNL     1       1.426   8.268  20.726  0.00  0.00    +0.000 C 
ATOM     16  O   UNL     1       1.813   8.928  19.769  0.00  0.00    +0.000 OA
ATOM     17  N   UNL     1       1.729   6.923  20.857  0.00  0.00    +0.000 N 
ATOM     18  H   UNL     1       0.302   8.087  22.443  0.00  0.00    +0.000 HD
ATOM     19  H   UNL     1       0.981   6.365  21.244  0.00  0.00    +0.000 HD
BRANCH  14  24
ATOM     20  C   UNL     1      -1.548  11.629  22.665  0.00  0.00    +0.000 A 
ATOM     21  C   UNL     1      -0.930  12.682  21.977  0.00  0.00    +0.000 A 
ATOM     22  C   UNL     1       0.213  12.439  21.231  0.00  0.00    +0.000 A 
ATOM     23  C   UNL     1       0.732  11.146  21.160  0.00  0.00    +0.000 A 
ATOM     24  C   UNL     1       0.127  10.073  21.826  0.00  0.00    +0.000 A 
ATOM     25  C   UNL     1      -1.015  10.331  22.599  0.00  0.00    +0.000 A 
BRANCH  20  27
ATOM     26  N   UNL     1      -3.695  12.121  24.037  0.00  0.00    +0.000 NA
ATOM     27  C   UNL     1      -2.741  11.894  23.426  0.00  0.00    +0.000 C 
ENDBRANCH  20  27
ENDBRANCH  14  24
ENDBRANCH   1  17
BRANCH   6  28
ATOM     28  C   UNL     1       2.502   4.146  21.095  0.00  0.00    +0.000 C 
ATOM     29  N   UNL     1       2.140   3.447  21.947  0.00  0.00    +0.000 NA
ENDBRANCH   6  28
TORSDOF 5
ENDMDL
MODEL 6
REMARK VINA RESULT:      -6.9      2.803      4.583
REMARK  Name = 
REMARK  5 active torsions:
REMARK  status: ('A' for Active; 'I' for Inactive)
REMARK    1  A    between atoms: C_2  and  C_3
REMARK    2  A    between atoms: C_7  and  N_8
REMARK    3  A    between atoms: N_11  and  C_12
REMARK    4  A    between atoms: C_15  and  C_16
REMARK    5  A    between atoms: C_23  and  C_24
REMARK                            x       y       z     vdW  Elec       q    Type
REMARK                         _______ _______ _______ _____ _____    ______ ____
ROOT
ATOM      1  C   UNL     1       3.042   5.707  19.305  0.00  0.00    +0.000 A 
ATOM      2  C   UNL     1       4.119   6.494  18.863  0.00  0.00    +0.000 A 
ATOM      3  C   UNL     1       4.953   6.061  17.825  0.00  0.00    +0.000 A 
ATOM      4  C   UNL     1       4.735   4.826  17.205  0.00  0.00    +0.000 A 
ATOM      5  C   UNL     1       3.633   4.060  17.619  0.00  0.00    +0.000 A 
ATOM      6  C   UNL     1       2.795   4.487  18.663  0.00  0.00    +0.000 A 
ENDROOT
BRANCH   4   7
ATOM      7  C   UNL     1       5.664   4.324  16.113  0.00  0.00    +0.000 C 
ATOM      8  C   UNL     1       6.956   5.175  15.995  0.00  0.00    +0.000 C 
ATOM      9  N   UNL     1       7.819   4.756  14.866  0.00  0.00    +0.000 NA
ATOM     10  C   UNL     1       7.006   4.757  13.635  0.00  0.00    +0.000 C 
ATOM     11  C   UNL     1       5.743   3.898  13.777  0.00  0.00    +0.000 C 
ATOM     12  O   UNL     1       4.932   4.333  14.871  0.00  0.00    +0.000 OA
ATOM     13  H   UNL     1       8.143   3.804  15.040  0.00  0.00    +0.000 HD
ENDBRANCH   4   7
BRANCH   1  17
ATOM     14  N   UNL     1       0.906   7.744  21.441  0.00  0.00    +0.000 N 
ATOM     15  C   UNL     1       1.682   7.436  20.335  0.00  0.00    +0.000 C 
ATOM     16  O   UNL     1       1.858   8.176  19.374  0.00  0.00    +0.000 OA
ATOM     17  N   UNL     1       2.215   6.159  20.381  0.00  0.00    +0.000 N 
ATOM     18  H   UNL     1       0.778   7.025  22.140  0.00  0.00    +0.000 HD
ATOM     19  H   UNL     1       1.612   5.473  20.813  0.00  0.00    +0.000 HD
BRANCH  14  24
ATOM     20  C   UNL     1      -0.727  10.992  20.656  0.00  0.00    +0.000 A 
ATOM     21  C   UNL     1      -1.095  11.445  21.930  0.00  0.00    +0.000 A 
ATOM     22  C   UNL     1      -0.824  10.662  23.042  0.00  0.00    +0.000 A 
ATOM     23  C   UNL     1      -0.175   9.437  22.885  0.00  0.00    +0.000 A 
ATOM     24  C   UNL     1       0.216   8.968  21.624  0.00  0.00    +0.000 A 
ATOM     25  C   UNL     1      -0.084   9.754  20.502  0.00  0.00    +0.000 A 
BRANCH  20  27
ATOM     26  N   UNL     1      -1.243  12.488  18.598  0.00  0.00    +0.000 NA
ATOM     27  C   UNL     1      -1.005  11.822  19.511  0.00  0.00    +0.000 C 
ENDBRANCH  20  27
ENDBRANCH  14  24
ENDBRANCH   1  17
BRANCH   6  28
ATOM     28  C   UNL     1       1.642   3.698  18.975  0.00  0.00    +0.000 C 
ATOM     29  N   UNL     1       0.725   3.052  19.269  0.00  0.00    +0.000 NA
ENDBRANCH   6  28
TORSDOF 5
ENDMDL
MODEL 7
REMARK VINA RESULT:      -6.8      2.654      3.512
REMARK  Name = 
REMARK  5 active torsions:
REMARK  status: ('A' for Active; 'I' for Inactive)
REMARK    1  A    between atoms: C_2  and  C_3
REMARK    2  A    between atoms: C_7  and  N_8
REMARK    3  A    between atoms: N_11  and  C_12
REMARK    4  A    between atoms: C_15  and  C_16
REMARK    5  A    between atoms: C_23  and  C_24
REMARK                            x       y       z     vdW  Elec       q    Type
REMARK                         _______ _______ _______ _____ _____    ______ ____
ROOT
ATOM      1  C   UNL     1       0.809   9.627  19.131  0.00  0.00    +0.000 A 
ATOM      2  C   UNL     1       1.440   9.270  17.927  0.00  0.00    +0.000 A 
ATOM      3  C   UNL     1       2.296   8.163  17.859  0.00  0.00    +0.000 A 
ATOM      4  C   UNL     1       2.548   7.387  18.996  0.00  0.00    +0.000 A 
ATOM      5  C   UNL     1       1.883   7.721  20.189  0.00  0.00    +0.000 A 
ATOM      6  C   UNL     1       1.027   8.832  20.264  0.00  0.00    +0.000 A 
ENDROOT
BRANCH   4   7
ATOM      7  C   UNL     1       3.513   6.216  18.946  0.00  0.00    +0.000 C 
ATOM      8  C   UNL     1       4.036   5.938  17.513  0.00  0.00    +0.000 C 
ATOM      9  N   UNL     1       4.896   4.735  17.438  0.00  0.00    +0.000 NA
ATOM     10  C   UNL     1       4.158   3.599  18.018  0.00  0.00    +0.000 C 
ATOM     11  C   UNL     1       3.665   3.897  19.440  0.00  0.00    +0.000 C 
ATOM     12  O   UNL     1       2.833   5.060  19.474  0.00  0.00    +0.000 OA
ATOM     13  H   UNL     1       5.734   4.898  17.997  0.00  0.00    +0.000 HD
ENDBRANCH   4   7
BRANCH   1  17
ATOM     14  N   UNL     1      -2.083  11.832  18.912  0.00  0.00    +0.000 N 
ATOM     15  C   UNL     1      -1.374  10.644  18.819  0.00  0.00    +0.000 C 
ATOM     16  O   UNL     1      -1.855   9.563  18.500  0.00  0.00    +0.000 OA
ATOM     17  N   UNL     1      -0.044  10.774  19.182  0.00  0.00    +0.000 N 
ATOM     18  H   UNL     1      -1.592  12.646  19.254  0.00  0.00    +0.000 HD
ATOM     19  H   UNL     1       0.119  11.431  19.932  0.00  0.00    +0.000 HD
BRANCH  14  24
ATOM     20  C   UNL     1      -5.707  12.496  19.428  0.00  0.00    +0.000 A 
ATOM     21  C   UNL     1      -6.238  12.188  18.168  0.00  0.00    +0.000 A 
ATOM     22  C   UNL     1      -5.392  11.787  17.146  0.00  0.00    +0.000 A 
ATOM     23  C   UNL     1      -4.021  11.679  17.382  0.00  0.00    +0.000 A 
ATOM     24  C   UNL     1      -3.466  11.966  18.636  0.00  0.00    +0.000 A 
ATOM     25  C   UNL     1      -4.325  12.395  19.659  0.00  0.00    +0.000 A 
BRANCH  20  27
ATOM     26  N   UNL     1      -7.303  13.231  21.338  0.00  0.00    +0.000 NA
ATOM     27  C   UNL     1      -6.599  12.900  20.484  0.00  0.00    +0.000 C 
ENDBRANCH  20  27
ENDBRANCH  14  24
ENDBRANCH   1  17
BRANCH   6  28
ATOM     28  C   UNL     1       0.318   9.062  21.485  0.00  0.00    +0.000 C 
ATOM     29  N   UNL     1      -0.241   9.209  22.491  0.00  0.00    +0.000 NA
ENDBRANCH   6  28
TORSDOF 5
ENDMDL
MODEL 8
REMARK VINA RESULT:      -6.8      2.118      9.344
REMARK  Name = 
REMARK  5 active torsions:
REMARK  status: ('A' for Active; 'I' for Inactive)
REMARK    1  A    between atoms: C_2  and  C_3
REMARK    2  A    between atoms: C_7  and  N_8
REMARK    3  A    between atoms: N_11  and  C_12
REMARK    4  A    between atoms: C_15  and  C_16
REMARK    5  A    between atoms: C_23  and  C_24
REMARK                            x       y       z     vdW  Elec       q    Type
REMARK                         _______ _______ _______ _____ _____    ______ ____
ROOT
ATOM      1  C   UNL     1      -0.745  11.343  21.465  0.00  0.00    +0.000 A 
ATOM      2  C   UNL     1      -1.143  11.190  22.804  0.00  0.00    +0.000 A 
ATOM      3  C   UNL     1      -2.313  11.793  23.284  0.00  0.00    +0.000 A 
ATOM      4  C   UNL     1      -3.112  12.570  22.439  0.00  0.00    +0.000 A 
ATOM      5  C   UNL     1      -2.735  12.687  21.090  0.00  0.00    +0.000 A 
ATOM      6  C   UNL     1      -1.561  12.089  20.604  0.00  0.00    +0.000 A 
ENDROOT
BRANCH   4   7
ATOM      7  C   UNL     1      -4.354  13.270  22.962  0.00  0.00    +0.000 C 
ATOM      8  C   UNL     1      -4.986  12.534  24.172  0.00  0.00    +0.000 C 
ATOM      9  N   UNL     1      -6.254  13.151  24.623  0.00  0.00    +0.000 NA
ATOM     10  C   UNL     1      -7.160  13.248  23.464  0.00  0.00    +0.000 C 
ATOM     11  C   UNL     1      -6.515  13.992  22.287  0.00  0.00    +0.000 C 
ATOM     12  O   UNL     1      -5.297  13.366  21.876  0.00  0.00    +0.000 OA
ATOM     13  H   UNL     1      -6.056  14.093  24.960  0.00  0.00    +0.000 HD
ENDBRANCH   4   7
BRANCH   1  17
ATOM     14  N   UNL     1       1.696   8.938  20.230  0.00  0.00    +0.000 N 
ATOM     15  C   UNL     1       0.460   9.395  20.658  0.00  0.00    +0.000 C 
ATOM     16  O   UNL     1      -0.563   8.721  20.694  0.00  0.00    +0.000 OA
ATOM     17  N   UNL     1       0.465  10.737  21.001  0.00  0.00    +0.000 N 
ATOM     18  H   UNL     1       2.453   9.606  20.178  0.00  0.00    +0.000 HD
ATOM     19  H   UNL     1       1.073  11.308  20.432  0.00  0.00    +0.000 HD
BRANCH  14  24
ATOM     20  C   UNL     1       2.137   5.244  20.298  0.00  0.00    +0.000 A 
ATOM     21  C   UNL     1       2.523   4.976  18.978  0.00  0.00    +0.000 A 
ATOM     22  C   UNL     1       2.611   6.015  18.064  0.00  0.00    +0.000 A 
ATOM     23  C   UNL     1       2.329   7.320  18.468  0.00  0.00    +0.000 A 
ATOM     24  C   UNL     1       1.955   7.617  19.785  0.00  0.00    +0.000 A 
ATOM     25  C   UNL     1       1.844   6.558  20.698  0.00  0.00    +0.000 A 
BRANCH  20  27
ATOM     26  N   UNL     1       2.005   3.275  21.984  0.00  0.00    +0.000 NA
ATOM     27  C   UNL     1       2.061   4.157  21.239  0.00  0.00    +0.000 C 
ENDBRANCH  20  27
ENDBRANCH  14  24
ENDBRANCH   1  17
BRANCH   6  28
ATOM     28  C   UNL     1      -1.283  12.177  19.203  0.00  0.00    +0.000 C 
ATOM     29  N   UNL     1      -1.038  12.289  18.074  0.00  0.00    +0.000 NA
ENDBRANCH   6  28
TORSDOF 5
ENDMDL
MODEL 9
REMARK VINA RESULT:      -6.8      2.682      9.674
REMARK  Name = 
REMARK  5 active torsions:
REMARK  status: ('A' for Active; 'I' for Inactive)
REMARK    1  A    between atoms: C_2  and  C_3
REMARK    2  A    between atoms: C_7  and  N_8
REMARK    3  A    between atoms: N_11  and  C_12
REMARK    4  A    between atoms: C_15  and  C_16
REMARK    5  A    between atoms: C_23  and  C_24
REMARK                            x       y       z     vdW  Elec       q    Type
REMARK                         _______ _______ _______ _____ _____    ______ ____
ROOT
ATOM      1  C   UNL     1       0.384  11.022  19.060  0.00  0.00    +0.000 A 
ATOM      2  C   UNL     1       0.946  11.651  20.184  0.00  0.00    +0.000 A 
ATOM      3  C   UNL     1       0.147  12.360  21.091  0.00  0.00    +0.000 A 
ATOM      4  C   UNL     1      -1.234  12.462  20.895  0.00  0.00    +0.000 A 
ATOM      5  C   UNL     1      -1.800  11.797  19.794  0.00  0.00    +0.000 A 
ATOM      6  C   UNL     1      -1.004  11.089  18.878  0.00  0.00    +0.000 A 
ENDROOT
BRANCH   4   7
ATOM      7  C   UNL     1      -2.102  13.270  21.844  0.00  0.00    +0.000 C 
ATOM      8  C   UNL     1      -1.407  13.533  23.205  0.00  0.00    +0.000 C 
ATOM      9  N   UNL     1      -2.285  14.231  24.173  0.00  0.00    +0.000 NA
ATOM     10  C   UNL     1      -3.539  13.465  24.298  0.00  0.00    +0.000 C 
ATOM     11  C   UNL     1      -4.210  13.232  22.938  0.00  0.00    +0.000 C 
ATOM     12  O   UNL     1      -3.337  12.552  22.032  0.00  0.00    +0.000 OA
ATOM     13  H   UNL     1      -2.504  15.156  23.805  0.00  0.00    +0.000 HD
ENDBRANCH   4   7
BRANCH   1  17
ATOM     14  N   UNL     1       2.549   8.534  17.513  0.00  0.00    +0.000 N 
ATOM     15  C   UNL     1       1.756   9.098  18.500  0.00  0.00    +0.000 C 
ATOM     16  O   UNL     1       1.496   8.573  19.576  0.00  0.00    +0.000 OA
ATOM     17  N   UNL     1       1.221  10.322  18.135  0.00  0.00    +0.000 N 
ATOM     18  H   UNL     1       2.635   9.032  16.637  0.00  0.00    +0.000 HD
ATOM     19  H   UNL     1       0.980  10.394  17.157  0.00  0.00    +0.000 HD
BRANCH  14  24
ATOM     20  C   UNL     1       5.104   5.859  17.121  0.00  0.00    +0.000 A 
ATOM     21  C   UNL     1       4.471   4.766  17.727  0.00  0.00    +0.000 A 
ATOM     22  C   UNL     1       3.212   4.924  18.285  0.00  0.00    +0.000 A 
ATOM     23  C   UNL     1       2.579   6.166  18.228  0.00  0.00    +0.000 A 
ATOM     24  C   UNL     1       3.184   7.271  17.615  0.00  0.00    +0.000 A 
ATOM     25  C   UNL     1       4.468   7.110  17.074  0.00  0.00    +0.000 A 
BRANCH  20  27
ATOM     26  N   UNL     1       7.451   5.542  16.057  0.00  0.00    +0.000 NA
ATOM     27  C   UNL     1       6.407   5.676  16.535  0.00  0.00    +0.000 C 
ENDBRANCH  20  27
ENDBRANCH  14  24
ENDBRANCH   1  17
BRANCH   6  28
ATOM     28  C   UNL     1      -1.655  10.364  17.830  0.00  0.00    +0.000 C 
ATOM     29  N   UNL     1      -2.141   9.764  16.964  0.00  0.00    +0.000 NA
ENDBRANCH   6  28
TORSDOF 5
ENDMDL
