MODEL 1
REMARK VINA RESULT:      -5.9      0.000      0.000
REMARK  Name = 
REMARK  15 active torsions:
REMARK  status: ('A' for Active; 'I' for Inactive)
REMARK    1  A    between atoms: C_1  and  C_2
REMARK    2  A    between atoms: C_2  and  C_3
REMARK    3  A    between atoms: C_2  and  C_4
REMARK    4  A    between atoms: C_2  and  C_5
REMARK    5  A    between atoms: C_5  and  O_7
REMARK    6  A    between atoms: O_7  and  C_8
REMARK    7  A    between atoms: C_15  and  O_16
REMARK    8  A    between atoms: C_17  and  O_18
REMARK    9  A    between atoms: C_21  and  O_22
REMARK   10  A    between atoms: C_23  and  C_24
REMARK   11  A    between atoms: C_23  and  C_25
REMARK   12  A    between atoms: C_26  and  C_27
REMARK   13  A    between atoms: C_26  and  O_28
REMARK   14  A    between atoms: C_30  and  C_31
REMARK   15  A    between atoms: C_30  and  O_32
REMARK                            x       y       z     vdW  Elec       q    Type
REMARK                         _______ _______ _______ _____ _____    ______ ____
ROOT
ATOM      1  C   UNL     1      -3.453  14.785  22.097  0.00  0.00    +0.000 C 
ATOM      2  C   UNL     1      -5.097  14.568  22.036  0.00  0.00    +0.000 C 
ATOM      3  C   UNL     1      -5.642  13.837  20.709  0.00  0.00    +0.000 C 
ATOM      4  C   UNL     1      -4.950  12.389  20.567  0.00  0.00    +0.000 C 
ATOM      5  C   UNL     1      -3.447  12.651  20.767  0.00  0.00    +0.000 C 
ATOM      6  C   UNL     1      -3.110  13.274  22.264  0.00  0.00    +0.000 C 
ATOM      7  C   UNL     1      -1.700  12.900  22.696  0.00  0.00    +0.000 C 
ATOM      8  C   UNL     1      -0.618  13.484  21.777  0.00  0.00    +0.000 C 
ATOM      9  C   UNL     1      -0.072  12.465  20.769  0.00  0.00    +0.000 C 
ATOM     10  C   UNL     1      -1.038  11.456  20.130  0.00  0.00    +0.000 C 
ATOM     11  C   UNL     1      -0.038  10.814  19.057  0.00  0.00    +0.000 C 
ATOM     12  C   UNL     1       1.337  11.585  19.142  0.00  0.00    +0.000 C 
ATOM     13  C   UNL     1       0.856  12.985  19.569  0.00  0.00    +0.000 C 
ATOM     14  C   UNL     1       0.339  13.626  18.230  0.00  0.00    +0.000 C 
ATOM     15  C   UNL     1       1.804  14.081  20.065  0.00  0.00    +0.000 C 
ATOM     16  C   UNL     1      -2.394  12.096  19.651  0.00  0.00    +0.000 C 
ATOM     17  C   UNL     1      -3.052  11.244  18.547  0.00  0.00    +0.000 C 
ATOM     18  C   UNL     1      -4.135  13.122  23.647  0.00  0.00    +0.000 C 
ATOM     19  C   UNL     1      -5.340  14.266  23.511  0.00  0.00    +0.000 C 
ATOM     20  C   UNL     1      -6.753  13.842  23.861  0.00  0.00    +0.000 C 
ENDROOT
BRANCH   8  21
ATOM     21  O   UNL     1       0.471  13.849  22.661  0.00  0.00    +0.000 OA
ATOM     22  H   UNL     1       0.725  14.764  22.414  0.00  0.00    +0.000 HD
ENDBRANCH   8  21
BRANCH   9  23
ATOM     23  O   UNL     1       0.814  11.645  21.644  0.00  0.00    +0.000 OA
ATOM     24  H   UNL     1       1.268  10.978  21.095  0.00  0.00    +0.000 HD
ENDBRANCH   9  23
BRANCH  12  25
ATOM     25  O   UNL     1       2.049  11.542  17.917  0.00  0.00    +0.000 OA
ATOM     26  H   UNL     1       1.502  11.022  17.301  0.00  0.00    +0.000 HD
ENDBRANCH  12  25
BRANCH  16  27
ATOM     27  O   UNL     1      -2.036  13.306  18.955  0.00  0.00    +0.000 OA
ATOM     28  H   UNL     1      -2.584  13.419  18.160  0.00  0.00    +0.000 HD
ENDBRANCH  16  27
BRANCH  19  29
ATOM     29  O   UNL     1      -5.139  15.490  24.255  0.00  0.00    +0.000 OA
ATOM     30  H   UNL     1      -5.047  16.226  23.596  0.00  0.00    +0.000 HD
ENDBRANCH  19  29
BRANCH   1  31
ATOM     31  O   UNL     1      -2.786  15.344  23.320  0.00  0.00    +0.000 OA
BRANCH  31  32
ATOM     32  C   UNL     1      -1.933  16.390  23.493  0.00  0.00    +0.000 C 
ATOM     33  O   UNL     1      -1.533  17.086  22.569  0.00  0.00    +0.000 OA
BRANCH  32  35
ATOM     34  C   UNL     1      -2.322  17.768  25.695  0.00  0.00    +0.000 C 
ATOM     35  C   UNL     1      -1.595  16.584  25.030  0.00  0.00    +0.000 C 
ATOM     36  C   UNL     1      -0.092  16.852  25.222  0.00  0.00    +0.000 C 
ATOM     37  C   UNL     1      -1.997  15.328  25.833  0.00  0.00    +0.000 C 
ENDBRANCH  32  35
ENDBRANCH  31  32
ENDBRANCH   1  31
TORSDOF 8
ENDMDL
MODEL 2
REMARK VINA RESULT:      -5.9      1.570      4.515
REMARK  Name = 
REMARK  15 active torsions:
REMARK  status: ('A' for Active; 'I' for Inactive)
REMARK    1  A    between atoms: C_1  and  C_2
REMARK    2  A    between atoms: C_2  and  C_3
REMARK    3  A    between atoms: C_2  and  C_4
REMARK    4  A    between atoms: C_2  and  C_5
REMARK    5  A    between atoms: C_5  and  O_7
REMARK    6  A    between atoms: O_7  and  C_8
REMARK    7  A    between atoms: C_15  and  O_16
REMARK    8  A    between atoms: C_17  and  O_18
REMARK    9  A    between atoms: C_21  and  O_22
REMARK   10  A    between atoms: C_23  and  C_24
REMARK   11  A    between atoms: C_23  and  C_25
REMARK   12  A    between atoms: C_26  and  C_27
REMARK   13  A    between atoms: C_26  and  O_28
REMARK   14  A    between atoms: C_30  and  C_31
REMARK   15  A    between atoms: C_30  and  O_32
REMARK                            x       y       z     vdW  Elec       q    Type
REMARK                         _______ _______ _______ _____ _____    ______ ____
ROOT
ATOM      1  C   UNL     1      -2.865  14.155  23.343  0.00  0.00    +0.000 C 
ATOM      2  C   UNL     1      -2.612  15.268  24.547  0.00  0.00    +0.000 C 
ATOM      3  C   UNL     1      -1.068  15.562  24.895  0.00  0.00    +0.000 C 
ATOM      4  C   UNL     1      -0.307  16.085  23.575  0.00  0.00    +0.000 C 
ATOM      5  C   UNL     1      -0.695  15.082  22.474  0.00  0.00    +0.000 C 
ATOM      6  C   UNL     1      -2.326  15.057  22.192  0.00  0.00    +0.000 C 
ATOM      7  C   UNL     1      -2.616  14.641  20.757  0.00  0.00    +0.000 C 
ATOM      8  C   UNL     1      -2.142  13.216  20.439  0.00  0.00    +0.000 C 
ATOM      9  C   UNL     1      -0.810  13.181  19.681  0.00  0.00    +0.000 C 
ATOM     10  C   UNL     1       0.283  14.198  20.045  0.00  0.00    +0.000 C 
ATOM     11  C   UNL     1       1.470  13.603  19.150  0.00  0.00    +0.000 C 
ATOM     12  C   UNL     1       0.954  12.281  18.462  0.00  0.00    +0.000 C 
ATOM     13  C   UNL     1      -0.049  11.779  19.519  0.00  0.00    +0.000 C 
ATOM     14  C   UNL     1       0.863  11.106  20.608  0.00  0.00    +0.000 C 
ATOM     15  C   UNL     1      -1.055  10.655  19.251  0.00  0.00    +0.000 C 
ATOM     16  C   UNL     1       0.487  14.379  21.596  0.00  0.00    +0.000 C 
ATOM     17  C   UNL     1       1.898  14.913  21.912  0.00  0.00    +0.000 C 
ATOM     18  C   UNL     1      -3.415  16.338  22.591  0.00  0.00    +0.000 C 
ATOM     19  C   UNL     1      -3.757  16.220  24.219  0.00  0.00    +0.000 C 
ATOM     20  C   UNL     1      -3.784  17.504  25.025  0.00  0.00    +0.000 C 
ENDROOT
BRANCH   8  21
ATOM     21  O   UNL     1      -3.158  12.669  19.561  0.00  0.00    +0.000 OA
ATOM     22  H   UNL     1      -2.726  11.935  19.072  0.00  0.00    +0.000 HD
ENDBRANCH   8  21
BRANCH   9  23
ATOM     23  O   UNL     1      -1.251  13.568  18.310  0.00  0.00    +0.000 OA
ATOM     24  H   UNL     1      -2.114  13.150  18.128  0.00  0.00    +0.000 HD
ENDBRANCH   9  23
BRANCH  12  25
ATOM     25  O   UNL     1       2.012  11.385  18.165  0.00  0.00    +0.000 OA
ATOM     26  H   UNL     1       2.037  10.741  18.896  0.00  0.00    +0.000 HD
ENDBRANCH  12  25
BRANCH  16  27
ATOM     27  O   UNL     1       0.514  13.048  22.148  0.00  0.00    +0.000 OA
ATOM     28  H   UNL     1      -0.313  12.859  22.626  0.00  0.00    +0.000 HD
ENDBRANCH  16  27
BRANCH  19  29
ATOM     29  O   UNL     1      -4.998  15.558  24.558  0.00  0.00    +0.000 OA
ATOM     30  H   UNL     1      -4.765  14.687  24.974  0.00  0.00    +0.000 HD
ENDBRANCH  19  29
BRANCH   1  31
ATOM     31  O   UNL     1      -4.245  13.865  22.828  0.00  0.00    +0.000 OA
BRANCH  31  32
ATOM     32  C   UNL     1      -5.122  12.859  23.094  0.00  0.00    +0.000 C 
ATOM     33  O   UNL     1      -4.950  12.042  23.989  0.00  0.00    +0.000 OA
BRANCH  32  35
ATOM     34  C   UNL     1      -6.299  12.010  20.905  0.00  0.00    +0.000 C 
ATOM     35  C   UNL     1      -6.376  12.945  22.128  0.00  0.00    +0.000 C 
ATOM     36  C   UNL     1      -6.524  14.368  21.560  0.00  0.00    +0.000 C 
ATOM     37  C   UNL     1      -7.666  12.558  22.882  0.00  0.00    +0.000 C 
ENDBRANCH  32  35
ENDBRANCH  31  32
ENDBRANCH   1  31
TORSDOF 8
ENDMDL
MODEL 3
REMARK VINA RESULT:      -5.7      0.906      1.236
REMARK  Name = 
REMARK  15 active torsions:
REMARK  status: ('A' for Active; 'I' for Inactive)
REMARK    1  A    between atoms: C_1  and  C_2
REMARK    2  A    between atoms: C_2  and  C_3
REMARK    3  A    between atoms: C_2  and  C_4
REMARK    4  A    between atoms: C_2  and  C_5
REMARK    5  A    between atoms: C_5  and  O_7
REMARK    6  A    between atoms: O_7  and  C_8
REMARK    7  A    between atoms: C_15  and  O_16
REMARK    8  A    between atoms: C_17  and  O_18
REMARK    9  A    between atoms: C_21  and  O_22
REMARK   10  A    between atoms: C_23  and  C_24
REMARK   11  A    between atoms: C_23  and  C_25
REMARK   12  A    between atoms: C_26  and  C_27
REMARK   13  A    between atoms: C_26  and  O_28
REMARK   14  A    between atoms: C_30  and  C_31
REMARK   15  A    between atoms: C_30  and  O_32
REMARK                            x       y       z     vdW  Elec       q    Type
REMARK                         _______ _______ _______ _____ _____    ______ ____
ROOT
ATOM      1  C   UNL     1      -3.499  14.553  22.319  0.00  0.00    +0.000 C 
ATOM      2  C   UNL     1      -5.149  14.468  22.165  0.00  0.00    +0.000 C 
ATOM      3  C   UNL     1      -5.678  13.951  20.734  0.00  0.00    +0.000 C 
ATOM      4  C   UNL     1      -5.081  12.485  20.436  0.00  0.00    +0.000 C 
ATOM      5  C   UNL     1      -3.575  12.607  20.727  0.00  0.00    +0.000 C 
ATOM      6  C   UNL     1      -3.270  13.012  22.304  0.00  0.00    +0.000 C 
ATOM      7  C   UNL     1      -1.911  12.483  22.740  0.00  0.00    +0.000 C 
ATOM      8  C   UNL     1      -0.748  13.094  21.948  0.00  0.00    +0.000 C 
ATOM      9  C   UNL     1      -0.225  12.172  20.841  0.00  0.00    +0.000 C 
ATOM     10  C   UNL     1      -1.225  11.325  20.039  0.00  0.00    +0.000 C 
ATOM     11  C   UNL     1      -0.220  10.750  18.933  0.00  0.00    +0.000 C 
ATOM     12  C   UNL     1       1.198  11.400  19.171  0.00  0.00    +0.000 C 
ATOM     13  C   UNL     1       0.794  12.768  19.755  0.00  0.00    +0.000 C 
ATOM     14  C   UNL     1       0.389  13.607  18.489  0.00  0.00    +0.000 C 
ATOM     15  C   UNL     1       1.791  13.719  20.425  0.00  0.00    +0.000 C 
ATOM     16  C   UNL     1      -2.509  12.119  19.592  0.00  0.00    +0.000 C 
ATOM     17  C   UNL     1      -3.169  11.464  18.362  0.00  0.00    +0.000 C 
ATOM     18  C   UNL     1      -4.369  12.764  23.614  0.00  0.00    +0.000 C 
ATOM     19  C   UNL     1      -5.485  14.003  23.578  0.00  0.00    +0.000 C 
ATOM     20  C   UNL     1      -6.939  13.645  23.814  0.00  0.00    +0.000 C 
ENDROOT
BRANCH   8  21
ATOM     21  O   UNL     1       0.318  13.264  22.915  0.00  0.00    +0.000 OA
ATOM     22  H   UNL     1      -0.121  13.361  23.787  0.00  0.00    +0.000 HD
ENDBRANCH   8  21
BRANCH   9  23
ATOM     23  O   UNL     1       0.559  11.185  21.638  0.00  0.00    +0.000 OA
ATOM     24  H   UNL     1      -0.038  10.752  22.276  0.00  0.00    +0.000 HD
ENDBRANCH   9  23
BRANCH  12  25
ATOM     25  O   UNL     1       1.965  11.458  17.980  0.00  0.00    +0.000 OA
ATOM     26  H   UNL     1       1.950  12.388  17.691  0.00  0.00    +0.000 HD
ENDBRANCH  12  25
BRANCH  16  27
ATOM     27  O   UNL     1      -2.034  13.377  19.072  0.00  0.00    +0.000 OA
ATOM     28  H   UNL     1      -1.611  13.900  19.776  0.00  0.00    +0.000 HD
ENDBRANCH  16  27
BRANCH  19  29
ATOM     29  O   UNL     1      -5.237  15.106  24.481  0.00  0.00    +0.000 OA
ATOM     30  H   UNL     1      -5.371  14.768  25.404  0.00  0.00    +0.000 HD
ENDBRANCH  19  29
BRANCH   1  31
ATOM     31  O   UNL     1      -2.857  14.903  23.629  0.00  0.00    +0.000 OA
BRANCH  31  32
ATOM     32  C   UNL     1      -1.797  15.699  23.939  0.00  0.00    +0.000 C 
ATOM     33  O   UNL     1      -0.858  15.323  24.629  0.00  0.00    +0.000 OA
BRANCH  32  35
ATOM     34  C   UNL     1      -3.370  17.703  23.301  0.00  0.00    +0.000 C 
ATOM     35  C   UNL     1      -1.946  17.118  23.247  0.00  0.00    +0.000 C 
ATOM     36  C   UNL     1      -1.584  17.030  21.753  0.00  0.00    +0.000 C 
ATOM     37  C   UNL     1      -1.030  18.152  23.935  0.00  0.00    +0.000 C 
ENDBRANCH  32  35
ENDBRANCH  31  32
ENDBRANCH   1  31
TORSDOF 8
ENDMDL
MODEL 4
REMARK VINA RESULT:      -5.7      1.219      1.523
REMARK  Name = 
REMARK  15 active torsions:
REMARK  status: ('A' for Active; 'I' for Inactive)
REMARK    1  A    between atoms: C_1  and  C_2
REMARK    2  A    between atoms: C_2  and  C_3
REMARK    3  A    between atoms: C_2  and  C_4
REMARK    4  A    between atoms: C_2  and  C_5
REMARK    5  A    between atoms: C_5  and  O_7
REMARK    6  A    between atoms: O_7  and  C_8
REMARK    7  A    between atoms: C_15  and  O_16
REMARK    8  A    between atoms: C_17  and  O_18
REMARK    9  A    between atoms: C_21  and  O_22
REMARK   10  A    between atoms: C_23  and  C_24
REMARK   11  A    between atoms: C_23  and  C_25
REMARK   12  A    between atoms: C_26  and  C_27
REMARK   13  A    between atoms: C_26  and  O_28
REMARK   14  A    between atoms: C_30  and  C_31
REMARK   15  A    between atoms: C_30  and  O_32
REMARK                            x       y       z     vdW  Elec       q    Type
REMARK                         _______ _______ _______ _____ _____    ______ ____
ROOT
ATOM      1  C   UNL     1      -4.076  14.335  21.006  0.00  0.00    +0.000 C 
ATOM      2  C   UNL     1      -5.661  14.212  20.534  0.00  0.00    +0.000 C 
ATOM      3  C   UNL     1      -5.894  13.566  19.078  0.00  0.00    +0.000 C 
ATOM      4  C   UNL     1      -5.253  12.089  19.034  0.00  0.00    +0.000 C 
ATOM      5  C   UNL     1      -3.836  12.259  19.608  0.00  0.00    +0.000 C 
ATOM      6  C   UNL     1      -3.851  12.802  21.173  0.00  0.00    +0.000 C 
ATOM      7  C   UNL     1      -2.609  12.334  21.916  0.00  0.00    +0.000 C 
ATOM      8  C   UNL     1      -1.309  12.892  21.322  0.00  0.00    +0.000 C 
ATOM      9  C   UNL     1      -0.577  11.886  20.426  0.00  0.00    +0.000 C 
ATOM     10  C   UNL     1      -1.398  10.959  19.518  0.00  0.00    +0.000 C 
ATOM     11  C   UNL     1      -0.193  10.306  18.690  0.00  0.00    +0.000 C 
ATOM     12  C   UNL     1       1.150  10.995  19.148  0.00  0.00    +0.000 C 
ATOM     13  C   UNL     1       0.640  12.402  19.518  0.00  0.00    +0.000 C 
ATOM     14  C   UNL     1       0.498  13.123  18.128  0.00  0.00    +0.000 C 
ATOM     15  C   UNL     1       1.484  13.422  20.288  0.00  0.00    +0.000 C 
ATOM     16  C   UNL     1      -2.565  11.692  18.756  0.00  0.00    +0.000 C 
ATOM     17  C   UNL     1      -2.967  10.922  17.482  0.00  0.00    +0.000 C 
ATOM     18  C   UNL     1      -5.191  12.652  22.254  0.00  0.00    +0.000 C 
ATOM     19  C   UNL     1      -6.275  13.866  21.887  0.00  0.00    +0.000 C 
ATOM     20  C   UNL     1      -7.747  13.507  21.858  0.00  0.00    +0.000 C 
ENDROOT
BRANCH   8  21
ATOM     21  O   UNL     1      -0.458  13.161  22.463  0.00  0.00    +0.000 OA
ATOM     22  H   UNL     1       0.465  13.099  22.134  0.00  0.00    +0.000 HD
ENDBRANCH   8  21
BRANCH   9  23
ATOM     23  O   UNL     1       0.029  10.984  21.447  0.00  0.00    +0.000 OA
ATOM     24  H   UNL     1       1.001  11.049  21.386  0.00  0.00    +0.000 HD
ENDBRANCH   9  23
BRANCH  12  25
ATOM     25  O   UNL     1       2.140  10.962  18.134  0.00  0.00    +0.000 OA
ATOM     26  H   UNL     1       2.910  10.507  18.519  0.00  0.00    +0.000 HD
ENDBRANCH  12  25
BRANCH  16  27
ATOM     27  O   UNL     1      -1.993  12.907  18.234  0.00  0.00    +0.000 OA
ATOM     28  H   UNL     1      -2.553  13.671  18.455  0.00  0.00    +0.000 HD
ENDBRANCH  16  27
BRANCH  19  29
ATOM     29  O   UNL     1      -6.210  15.046  22.721  0.00  0.00    +0.000 OA
ATOM     30  H   UNL     1      -6.999  15.027  23.322  0.00  0.00    +0.000 HD
ENDBRANCH  19  29
BRANCH   1  31
ATOM     31  O   UNL     1      -3.708  14.807  22.383  0.00  0.00    +0.000 OA
BRANCH  31  32
ATOM     32  C   UNL     1      -2.947  15.850  22.814  0.00  0.00    +0.000 C 
ATOM     33  O   UNL     1      -2.428  16.658  22.054  0.00  0.00    +0.000 OA
BRANCH  32  35
ATOM     34  C   UNL     1      -1.518  16.300  24.972  0.00  0.00    +0.000 C 
ATOM     35  C   UNL     1      -2.884  15.875  24.398  0.00  0.00    +0.000 C 
ATOM     36  C   UNL     1      -3.163  14.475  24.972  0.00  0.00    +0.000 C 
ATOM     37  C   UNL     1      -3.916  16.875  24.963  0.00  0.00    +0.000 C 
ENDBRANCH  32  35
ENDBRANCH  31  32
ENDBRANCH   1  31
TORSDOF 8
ENDMDL
MODEL 5
REMARK VINA RESULT:      -5.6      5.767      9.507
REMARK  Name = 
REMARK  15 active torsions:
REMARK  status: ('A' for Active; 'I' for Inactive)
REMARK    1  A    between atoms: C_1  and  C_2
REMARK    2  A    between atoms: C_2  and  C_3
REMARK    3  A    between atoms: C_2  and  C_4
REMARK    4  A    between atoms: C_2  and  C_5
REMARK    5  A    between atoms: C_5  and  O_7
REMARK    6  A    between atoms: O_7  and  C_8
REMARK    7  A    between atoms: C_15  and  O_16
REMARK    8  A    between atoms: C_17  and  O_18
REMARK    9  A    between atoms: C_21  and  O_22
REMARK   10  A    between atoms: C_23  and  C_24
REMARK   11  A    between atoms: C_23  and  C_25
REMARK   12  A    between atoms: C_26  and  C_27
REMARK   13  A    between atoms: C_26  and  O_28
REMARK   14  A    between atoms: C_30  and  C_31
REMARK   15  A    between atoms: C_30  and  O_32
REMARK                            x       y       z     vdW  Elec       q    Type
REMARK                         _______ _______ _______ _____ _____    ______ ____
ROOT
ATOM      1  C   UNL     1       5.059  14.477  21.696  0.00  0.00    +0.000 C 
ATOM      2  C   UNL     1       5.007  14.982  23.275  0.00  0.00    +0.000 C 
ATOM      3  C   UNL     1       6.392  14.842  24.084  0.00  0.00    +0.000 C 
ATOM      4  C   UNL     1       7.542  15.686  23.335  0.00  0.00    +0.000 C 
ATOM      5  C   UNL     1       7.441  15.265  21.859  0.00  0.00    +0.000 C 
ATOM      6  C   UNL     1       5.969  15.639  21.197  0.00  0.00    +0.000 C 
ATOM      7  C   UNL     1       6.096  15.860  19.697  0.00  0.00    +0.000 C 
ATOM      8  C   UNL     1       6.556  14.606  18.943  0.00  0.00    +0.000 C 
ATOM      9  C   UNL     1       8.049  14.627  18.595  0.00  0.00    +0.000 C 
ATOM     10  C   UNL     1       9.043  15.217  19.607  0.00  0.00    +0.000 C 
ATOM     11  C   UNL     1      10.405  14.808  18.871  0.00  0.00    +0.000 C 
ATOM     12  C   UNL     1      10.038  13.963  17.590  0.00  0.00    +0.000 C 
ATOM     13  C   UNL     1       8.737  13.282  18.058  0.00  0.00    +0.000 C 
ATOM     14  C   UNL     1       9.241  12.094  18.956  0.00  0.00    +0.000 C 
ATOM     15  C   UNL     1       7.791  12.543  17.107  0.00  0.00    +0.000 C 
ATOM     16  C   UNL     1       8.786  14.753  21.090  0.00  0.00    +0.000 C 
ATOM     17  C   UNL     1      10.068  14.867  21.939  0.00  0.00    +0.000 C 
ATOM     18  C   UNL     1       4.891  16.842  21.811  0.00  0.00    +0.000 C 
ATOM     19  C   UNL     1       4.072  16.174  23.101  0.00  0.00    +0.000 C 
ATOM     20  C   UNL     1       3.883  17.036  24.334  0.00  0.00    +0.000 C 
ENDROOT
BRANCH   8  21
ATOM     21  O   UNL     1       5.817  14.624  17.696  0.00  0.00    +0.000 OA
ATOM     22  H   UNL     1       5.904  13.722  17.317  0.00  0.00    +0.000 HD
ENDBRANCH   8  21
BRANCH   9  23
ATOM     23  O   UNL     1       8.062  15.579  17.447  0.00  0.00    +0.000 OA
ATOM     24  H   UNL     1       8.243  15.081  16.628  0.00  0.00    +0.000 HD
ENDBRANCH   9  23
BRANCH  12  25
ATOM     25  O   UNL     1      11.080  13.076  17.220  0.00  0.00    +0.000 OA
ATOM     26  H   UNL     1      10.670  12.389  16.665  0.00  0.00    +0.000 HD
ENDBRANCH  12  25
BRANCH  16  27
ATOM     27  O   UNL     1       8.566  13.330  21.025  0.00  0.00    +0.000 OA
ATOM     28  H   UNL     1       9.302  12.851  21.443  0.00  0.00    +0.000 HD
ENDBRANCH  16  27
BRANCH  19  29
ATOM     29  O   UNL     1       2.749  15.664  22.815  0.00  0.00    +0.000 OA
ATOM     30  H   UNL     1       2.137  16.443  22.756  0.00  0.00    +0.000 HD
ENDBRANCH  19  29
BRANCH   1  31
ATOM     31  O   UNL     1       3.880  14.655  20.783  0.00  0.00    +0.000 OA
BRANCH  31  32
ATOM     32  C   UNL     1       2.804  13.863  20.521  0.00  0.00    +0.000 C 
ATOM     33  O   UNL     1       2.400  13.007  21.298  0.00  0.00    +0.000 OA
BRANCH  32  35
ATOM     34  C   UNL     1       0.615  14.276  19.130  0.00  0.00    +0.000 C 
ATOM     35  C   UNL     1       2.156  14.248  19.127  0.00  0.00    +0.000 C 
ATOM     36  C   UNL     1       2.555  13.228  18.046  0.00  0.00    +0.000 C 
ATOM     37  C   UNL     1       2.610  15.658  18.692  0.00  0.00    +0.000 C 
ENDBRANCH  32  35
ENDBRANCH  31  32
ENDBRANCH   1  31
TORSDOF 8
ENDMDL
MODEL 6
REMARK VINA RESULT:      -5.5      1.603      4.643
REMARK  Name = 
REMARK  15 active torsions:
REMARK  status: ('A' for Active; 'I' for Inactive)
REMARK    1  A    between atoms: C_1  and  C_2
REMARK    2  A    between atoms: C_2  and  C_3
REMARK    3  A    between atoms: C_2  and  C_4
REMARK    4  A    between atoms: C_2  and  C_5
REMARK    5  A    between atoms: C_5  and  O_7
REMARK    6  A    between atoms: O_7  and  C_8
REMARK    7  A    between atoms: C_15  and  O_16
REMARK    8  A    between atoms: C_17  and  O_18
REMARK    9  A    between atoms: C_21  and  O_22
REMARK   10  A    between atoms: C_23  and  C_24
REMARK   11  A    between atoms: C_23  and  C_25
REMARK   12  A    between atoms: C_26  and  C_27
REMARK   13  A    between atoms: C_26  and  O_28
REMARK   14  A    between atoms: C_30  and  C_31
REMARK   15  A    between atoms: C_30  and  O_32
REMARK                            x       y       z     vdW  Elec       q    Type
REMARK                         _______ _______ _______ _____ _____    ______ ____
ROOT
ATOM      1  C   UNL     1      -2.239  14.730  23.506  0.00  0.00    +0.000 C 
ATOM      2  C   UNL     1      -2.088  15.787  24.775  0.00  0.00    +0.000 C 
ATOM      3  C   UNL     1      -0.581  16.250  25.104  0.00  0.00    +0.000 C 
ATOM      4  C   UNL     1       0.065  16.949  23.805  0.00  0.00    +0.000 C 
ATOM      5  C   UNL     1      -0.231  15.977  22.649  0.00  0.00    +0.000 C 
ATOM      6  C   UNL     1      -1.855  15.764  22.405  0.00  0.00    +0.000 C 
ATOM      7  C   UNL     1      -2.137  15.407  20.953  0.00  0.00    +0.000 C 
ATOM      8  C   UNL     1      -1.501  14.077  20.528  0.00  0.00    +0.000 C 
ATOM      9  C   UNL     1      -0.200  14.259  19.738  0.00  0.00    +0.000 C 
ATOM     10  C   UNL     1       0.770  15.380  20.142  0.00  0.00    +0.000 C 
ATOM     11  C   UNL     1       1.992  14.998  19.181  0.00  0.00    +0.000 C 
ATOM     12  C   UNL     1       1.622  13.668  18.418  0.00  0.00    +0.000 C 
ATOM     13  C   UNL     1       0.724  12.977  19.463  0.00  0.00    +0.000 C 
ATOM     14  C   UNL     1       1.748  12.357  20.481  0.00  0.00    +0.000 C 
ATOM     15  C   UNL     1      -0.142  11.754  19.145  0.00  0.00    +0.000 C 
ATOM     16  C   UNL     1       1.000  15.486  21.696  0.00  0.00    +0.000 C 
ATOM     17  C   UNL     1       2.343  16.173  22.014  0.00  0.00    +0.000 C 
ATOM     18  C   UNL     1      -3.081  16.870  22.916  0.00  0.00    +0.000 C 
ATOM     19  C   UNL     1      -3.353  16.606  24.541  0.00  0.00    +0.000 C 
ATOM     20  C   UNL     1      -3.513  17.822  25.432  0.00  0.00    +0.000 C 
ENDROOT
BRANCH   8  21
ATOM     21  O   UNL     1      -2.468  13.463  19.641  0.00  0.00    +0.000 OA
ATOM     22  H   UNL     1      -2.101  13.555  18.735  0.00  0.00    +0.000 HD
ENDBRANCH   8  21
BRANCH   9  23
ATOM     23  O   UNL     1      -0.730  14.673  18.407  0.00  0.00    +0.000 OA
ATOM     24  H   UNL     1      -1.685  14.854  18.491  0.00  0.00    +0.000 HD
ENDBRANCH   9  23
BRANCH  12  25
ATOM     25  O   UNL     1       2.773  12.934  18.036  0.00  0.00    +0.000 OA
ATOM     26  H   UNL     1       3.523  13.338  18.509  0.00  0.00    +0.000 HD
ENDBRANCH  12  25
BRANCH  16  27
ATOM     27  O   UNL     1       1.210  14.137  22.157  0.00  0.00    +0.000 OA
ATOM     28  H   UNL     1       0.616  13.521  21.695  0.00  0.00    +0.000 HD
ENDBRANCH  16  27
BRANCH  19  29
ATOM     29  O   UNL     1      -4.490  15.772  24.865  0.00  0.00    +0.000 OA
ATOM     30  H   UNL     1      -4.158  15.025  25.429  0.00  0.00    +0.000 HD
ENDBRANCH  19  29
BRANCH   1  31
ATOM     31  O   UNL     1      -3.588  14.301  23.006  0.00  0.00    +0.000 OA
BRANCH  31  32
ATOM     32  C   UNL     1      -4.170  13.076  22.895  0.00  0.00    +0.000 C 
ATOM     33  O   UNL     1      -3.680  12.058  23.368  0.00  0.00    +0.000 OA
BRANCH  32  35
ATOM     34  C   UNL     1      -5.653  12.291  20.874  0.00  0.00    +0.000 C 
ATOM     35  C   UNL     1      -5.552  13.184  22.126  0.00  0.00    +0.000 C 
ATOM     36  C   UNL     1      -5.786  14.623  21.635  0.00  0.00    +0.000 C 
ATOM     37  C   UNL     1      -6.716  12.762  23.049  0.00  0.00    +0.000 C 
ENDBRANCH  32  35
ENDBRANCH  31  32
ENDBRANCH   1  31
TORSDOF 8
ENDMDL
MODEL 7
REMARK VINA RESULT:      -5.5      1.341      1.808
REMARK  Name = 
REMARK  15 active torsions:
REMARK  status: ('A' for Active; 'I' for Inactive)
REMARK    1  A    between atoms: C_1  and  C_2
REMARK    2  A    between atoms: C_2  and  C_3
REMARK    3  A    between atoms: C_2  and  C_4
REMARK    4  A    between atoms: C_2  and  C_5
REMARK    5  A    between atoms: C_5  and  O_7
REMARK    6  A    between atoms: O_7  and  C_8
REMARK    7  A    between atoms: C_15  and  O_16
REMARK    8  A    between atoms: C_17  and  O_18
REMARK    9  A    between atoms: C_21  and  O_22
REMARK   10  A    between atoms: C_23  and  C_24
REMARK   11  A    between atoms: C_23  and  C_25
REMARK   12  A    between atoms: C_26  and  C_27
REMARK   13  A    between atoms: C_26  and  O_28
REMARK   14  A    between atoms: C_30  and  C_31
REMARK   15  A    between atoms: C_30  and  O_32
REMARK                            x       y       z     vdW  Elec       q    Type
REMARK                         _______ _______ _______ _____ _____    ______ ____
ROOT
ATOM      1  C   UNL     1      -2.668  15.117  22.202  0.00  0.00    +0.000 C 
ATOM      2  C   UNL     1      -4.185  14.459  22.071  0.00  0.00    +0.000 C 
ATOM      3  C   UNL     1      -4.513  13.774  20.651  0.00  0.00    +0.000 C 
ATOM      4  C   UNL     1      -3.444  12.605  20.355  0.00  0.00    +0.000 C 
ATOM      5  C   UNL     1      -2.073  13.250  20.626  0.00  0.00    +0.000 C 
ATOM      6  C   UNL     1      -1.913  13.753  22.196  0.00  0.00    +0.000 C 
ATOM      7  C   UNL     1      -0.451  13.738  22.618  0.00  0.00    +0.000 C 
ATOM      8  C   UNL     1       0.417  14.709  21.806  0.00  0.00    +0.000 C 
ATOM      9  C   UNL     1       1.219  14.015  20.699  0.00  0.00    +0.000 C 
ATOM     10  C   UNL     1       0.570  12.863  19.917  0.00  0.00    +0.000 C 
ATOM     11  C   UNL     1       1.702  12.664  18.802  0.00  0.00    +0.000 C 
ATOM     12  C   UNL     1       2.806  13.771  19.017  0.00  0.00    +0.000 C 
ATOM     13  C   UNL     1       1.954  14.917  19.596  0.00  0.00    +0.000 C 
ATOM     14  C   UNL     1       1.269  15.548  18.330  0.00  0.00    +0.000 C 
ATOM     15  C   UNL     1       2.561  16.165  20.246  0.00  0.00    +0.000 C 
ATOM     16  C   UNL     1      -0.915  13.153  19.481  0.00  0.00    +0.000 C 
ATOM     17  C   UNL     1      -1.315  12.294  18.265  0.00  0.00    +0.000 C 
ATOM     18  C   UNL     1      -2.843  13.152  23.522  0.00  0.00    +0.000 C 
ATOM     19  C   UNL     1      -4.323  13.921  23.491  0.00  0.00    +0.000 C 
ATOM     20  C   UNL     1      -5.557  13.080  23.749  0.00  0.00    +0.000 C 
ENDROOT
BRANCH   8  21
ATOM     21  O   UNL     1       1.366  15.252  22.758  0.00  0.00    +0.000 OA
ATOM     22  H   UNL     1       1.248  14.733  23.583  0.00  0.00    +0.000 HD
ENDBRANCH   8  21
BRANCH   9  23
ATOM     23  O   UNL     1       2.306  13.374  21.493  0.00  0.00    +0.000 OA
ATOM     24  H   UNL     1       1.978  12.526  21.847  0.00  0.00    +0.000 HD
ENDBRANCH   9  23
BRANCH  12  25
ATOM     25  O   UNL     1       3.492  14.080  17.816  0.00  0.00    +0.000 OA
ATOM     26  H   UNL     1       4.440  14.091  18.038  0.00  0.00    +0.000 HD
ENDBRANCH  12  25
BRANCH  16  27
ATOM     27  O   UNL     1      -0.915  14.491  18.946  0.00  0.00    +0.000 OA
ATOM     28  H   UNL     1      -1.770  14.926  19.113  0.00  0.00    +0.000 HD
ENDBRANCH  16  27
BRANCH  19  29
ATOM     29  O   UNL     1      -4.467  15.052  24.383  0.00  0.00    +0.000 OA
ATOM     30  H   UNL     1      -4.527  14.694  25.307  0.00  0.00    +0.000 HD
ENDBRANCH  19  29
BRANCH   1  31
ATOM     31  O   UNL     1      -2.175  15.685  23.502  0.00  0.00    +0.000 OA
BRANCH  31  32
ATOM     32  C   UNL     1      -1.707  16.918  23.836  0.00  0.00    +0.000 C 
ATOM     33  O   UNL     1      -1.755  17.879  23.079  0.00  0.00    +0.000 OA
BRANCH  32  35
ATOM     34  C   UNL     1       0.366  17.127  25.436  0.00  0.00    +0.000 C 
ATOM     35  C   UNL     1      -1.157  16.920  25.323  0.00  0.00    +0.000 C 
ATOM     36  C   UNL     1      -1.449  15.573  26.009  0.00  0.00    +0.000 C 
ATOM     37  C   UNL     1      -1.806  18.060  26.137  0.00  0.00    +0.000 C 
ENDBRANCH  32  35
ENDBRANCH  31  32
ENDBRANCH   1  31
TORSDOF 8
ENDMDL
MODEL 8
REMARK VINA RESULT:      -5.5      8.009     12.514
REMARK  Name = 
REMARK  15 active torsions:
REMARK  status: ('A' for Active; 'I' for Inactive)
REMARK    1  A    between atoms: C_1  and  C_2
REMARK    2  A    between atoms: C_2  and  C_3
REMARK    3  A    between atoms: C_2  and  C_4
REMARK    4  A    between atoms: C_2  and  C_5
REMARK    5  A    between atoms: C_5  and  O_7
REMARK    6  A    between atoms: O_7  and  C_8
REMARK    7  A    between atoms: C_15  and  O_16
REMARK    8  A    between atoms: C_17  and  O_18
REMARK    9  A    between atoms: C_21  and  O_22
REMARK   10  A    between atoms: C_23  and  C_24
REMARK   11  A    between atoms: C_23  and  C_25
REMARK   12  A    between atoms: C_26  and  C_27
REMARK   13  A    between atoms: C_26  and  O_28
REMARK   14  A    between atoms: C_30  and  C_31
REMARK   15  A    between atoms: C_30  and  O_32
REMARK                            x       y       z     vdW  Elec       q    Type
REMARK                         _______ _______ _______ _____ _____    ______ ____
ROOT
ATOM      1  C   UNL     1       8.842  15.282  19.200  0.00  0.00    +0.000 C 
ATOM      2  C   UNL     1       9.269  16.636  18.342  0.00  0.00    +0.000 C 
ATOM      3  C   UNL     1       8.473  17.978  18.740  0.00  0.00    +0.000 C 
ATOM      4  C   UNL     1       8.697  18.295  20.304  0.00  0.00    +0.000 C 
ATOM      5  C   UNL     1       8.412  16.963  21.019  0.00  0.00    +0.000 C 
ATOM      6  C   UNL     1       9.452  15.762  20.550  0.00  0.00    +0.000 C 
ATOM      7  C   UNL     1       9.628  14.740  21.664  0.00  0.00    +0.000 C 
ATOM      8  C   UNL     1       8.325  14.012  22.020  0.00  0.00    +0.000 C 
ATOM      9  C   UNL     1       7.651  14.568  23.280  0.00  0.00    +0.000 C 
ATOM     10  C   UNL     1       7.677  16.083  23.534  0.00  0.00    +0.000 C 
ATOM     11  C   UNL     1       6.696  16.130  24.799  0.00  0.00    +0.000 C 
ATOM     12  C   UNL     1       6.157  14.670  25.059  0.00  0.00    +0.000 C 
ATOM     13  C   UNL     1       6.156  14.104  23.626  0.00  0.00    +0.000 C 
ATOM     14  C   UNL     1       4.847  14.701  22.992  0.00  0.00    +0.000 C 
ATOM     15  C   UNL     1       5.974  12.615  23.314  0.00  0.00    +0.000 C 
ATOM     16  C   UNL     1       7.349  16.943  22.257  0.00  0.00    +0.000 C 
ATOM     17  C   UNL     1       6.824  18.339  22.647  0.00  0.00    +0.000 C 
ATOM     18  C   UNL     1      11.004  16.026  19.837  0.00  0.00    +0.000 C 
ATOM     19  C   UNL     1      10.765  16.365  18.221  0.00  0.00    +0.000 C 
ATOM     20  C   UNL     1      11.580  17.489  17.612  0.00  0.00    +0.000 C 
ENDROOT
BRANCH   8  21
ATOM     21  O   UNL     1       8.722  12.647  22.304  0.00  0.00    +0.000 OA
ATOM     22  H   UNL     1       9.292  12.691  23.102  0.00  0.00    +0.000 HD
ENDBRANCH   8  21
BRANCH   9  23
ATOM     23  O   UNL     1       8.516  13.986  24.347  0.00  0.00    +0.000 OA
ATOM     24  H   UNL     1       7.952  13.504  24.980  0.00  0.00    +0.000 HD
ENDBRANCH   9  23
BRANCH  12  25
ATOM     25  O   UNL     1       4.895  14.675  25.705  0.00  0.00    +0.000 OA
ATOM     26  H   UNL     1       4.301  15.199  25.138  0.00  0.00    +0.000 HD
ENDBRANCH  12  25
BRANCH  16  27
ATOM     27  O   UNL     1       6.199  16.324  21.648  0.00  0.00    +0.000 OA
ATOM     28  H   UNL     1       5.504  16.166  22.311  0.00  0.00    +0.000 HD
ENDBRANCH  16  27
BRANCH  19  29
ATOM     29  O   UNL     1      10.944  15.257  17.309  0.00  0.00    +0.000 OA
ATOM     30  H   UNL     1      10.313  14.542  17.583  0.00  0.00    +0.000 HD
ENDBRANCH  19  29
BRANCH   1  31
ATOM     31  O   UNL     1       9.577  13.985  19.024  0.00  0.00    +0.000 OA
BRANCH  31  32
ATOM     32  C   UNL     1       9.217  12.806  18.447  0.00  0.00    +0.000 C 
ATOM     33  O   UNL     1       8.247  12.692  17.709  0.00  0.00    +0.000 OA
BRANCH  32  35
ATOM     34  C   UNL     1      11.171  12.012  20.013  0.00  0.00    +0.000 C 
ATOM     35  C   UNL     1      10.245  11.662  18.832  0.00  0.00    +0.000 C 
ATOM     36  C   UNL     1      11.176  11.352  17.646  0.00  0.00    +0.000 C 
ATOM     37  C   UNL     1       9.493  10.377  19.242  0.00  0.00    +0.000 C 
ENDBRANCH  32  35
ENDBRANCH  31  32
ENDBRANCH   1  31
TORSDOF 8
ENDMDL
MODEL 9
REMARK VINA RESULT:      -5.3      8.638     11.228
REMARK  Name = 
REMARK  15 active torsions:
REMARK  status: ('A' for Active; 'I' for Inactive)
REMARK    1  A    between atoms: C_1  and  C_2
REMARK    2  A    between atoms: C_2  and  C_3
REMARK    3  A    between atoms: C_2  and  C_4
REMARK    4  A    between atoms: C_2  and  C_5
REMARK    5  A    between atoms: C_5  and  O_7
REMARK    6  A    between atoms: O_7  and  C_8
REMARK    7  A    between atoms: C_15  and  O_16
REMARK    8  A    between atoms: C_17  and  O_18
REMARK    9  A    between atoms: C_21  and  O_22
REMARK   10  A    between atoms: C_23  and  C_24
REMARK   11  A    between atoms: C_23  and  C_25
REMARK   12  A    between atoms: C_26  and  C_27
REMARK   13  A    between atoms: C_26  and  O_28
REMARK   14  A    between atoms: C_30  and  C_31
REMARK   15  A    between atoms: C_30  and  O_32
REMARK                            x       y       z     vdW  Elec       q    Type
REMARK                         _______ _______ _______ _____ _____    ______ ____
ROOT
ATOM      1  C   UNL     1       7.508  14.738  22.365  0.00  0.00    +0.000 C 
ATOM      2  C   UNL     1       6.794  13.756  23.496  0.00  0.00    +0.000 C 
ATOM      3  C   UNL     1       6.779  12.188  23.129  0.00  0.00    +0.000 C 
ATOM      4  C   UNL     1       8.289  11.670  22.912  0.00  0.00    +0.000 C 
ATOM      5  C   UNL     1       8.925  12.700  21.962  0.00  0.00    +0.000 C 
ATOM      6  C   UNL     1       8.957  14.222  22.614  0.00  0.00    +0.000 C 
ATOM      7  C   UNL     1      10.115  15.027  22.042  0.00  0.00    +0.000 C 
ATOM      8  C   UNL     1       9.998  15.252  20.529  0.00  0.00    +0.000 C 
ATOM      9  C   UNL     1      10.874  14.298  19.709  0.00  0.00    +0.000 C 
ATOM     10  C   UNL     1      11.026  12.840  20.172  0.00  0.00    +0.000 C 
ATOM     11  C   UNL     1      11.822  12.269  18.905  0.00  0.00    +0.000 C 
ATOM     12  C   UNL     1      11.949  13.427  17.840  0.00  0.00    +0.000 C 
ATOM     13  C   UNL     1      10.658  14.220  18.122  0.00  0.00    +0.000 C 
ATOM     14  C   UNL     1       9.542  13.387  17.394  0.00  0.00    +0.000 C 
ATOM     15  C   UNL     1      10.393  15.617  17.552  0.00  0.00    +0.000 C 
ATOM     16  C   UNL     1       9.669  12.172  20.609  0.00  0.00    +0.000 C 
ATOM     17  C   UNL     1       9.746  10.636  20.502  0.00  0.00    +0.000 C 
ATOM     18  C   UNL     1       8.867  14.571  24.305  0.00  0.00    +0.000 C 
ATOM     19  C   UNL     1       7.263  14.480  24.754  0.00  0.00    +0.000 C 
ATOM     20  C   UNL     1       6.939  13.784  26.061  0.00  0.00    +0.000 C 
ENDROOT
BRANCH   8  21
ATOM     21  O   UNL     1      10.493  16.597  20.309  0.00  0.00    +0.000 OA
ATOM     22  H   UNL     1      11.383  16.495  19.907  0.00  0.00    +0.000 HD
ENDBRANCH   8  21
BRANCH   9  23
ATOM     23  O   UNL     1      12.222  14.904  19.909  0.00  0.00    +0.000 OA
ATOM     24  H   UNL     1      12.204  15.451  20.717  0.00  0.00    +0.000 HD
ENDBRANCH   9  23
BRANCH  12  25
ATOM     25  O   UNL     1      12.069  12.925  16.520  0.00  0.00    +0.000 OA
ATOM     26  H   UNL     1      11.498  13.484  15.963  0.00  0.00    +0.000 HD
ENDBRANCH  12  25
BRANCH  16  27
ATOM     27  O   UNL     1       8.711  12.520  19.590  0.00  0.00    +0.000 OA
ATOM     28  H   UNL     1       9.050  12.287  18.709  0.00  0.00    +0.000 HD
ENDBRANCH  16  27
BRANCH  19  29
ATOM     29  O   UNL     1       6.555  15.739  24.833  0.00  0.00    +0.000 OA
ATOM     30  H   UNL     1       7.193  16.416  25.179  0.00  0.00    +0.000 HD
ENDBRANCH  19  29
BRANCH   1  31
ATOM     31  O   UNL     1       7.702  16.205  22.620  0.00  0.00    +0.000 OA
BRANCH  31  32
ATOM     32  C   UNL     1       7.499  17.299  21.836  0.00  0.00    +0.000 C 
ATOM     33  O   UNL     1       8.331  18.186  21.697  0.00  0.00    +0.000 OA
BRANCH  32  35
ATOM     34  C   UNL     1       4.980  16.565  21.977  0.00  0.00    +0.000 C 
ATOM     35  C   UNL     1       6.085  17.216  21.122  0.00  0.00    +0.000 C 
ATOM     36  C   UNL     1       6.177  16.370  19.840  0.00  0.00    +0.000 C 
ATOM     37  C   UNL     1       5.577  18.630  20.767  0.00  0.00    +0.000 C 
ENDBRANCH  32  35
ENDBRANCH  31  32
ENDBRANCH   1  31
TORSDOF 8
ENDMDL
