MODEL 1
REMARK VINA RESULT:      -9.2      0.000      0.000
REMARK  Name = 
REMARK  7 active torsions:
REMARK  status: ('A' for Active; 'I' for Inactive)
REMARK    1  A    between atoms: C_1  and  C_2
REMARK    2  A    between atoms: N_4  and  C_5
REMARK    3  A    between atoms: C_9  and  C_10
REMARK    4  A    between atoms: C_13  and  C_14
REMARK    5  A    between atoms: C_14  and  C_15
REMARK    6  A    between atoms: C_19  and  C_20
REMARK    7  A    between atoms: N_22  and  C_23
REMARK                            x       y       z     vdW  Elec       q    Type
REMARK                         _______ _______ _______ _____ _____    ______ ____
ROOT
ATOM      1  C   UNL     1       1.193   9.294  19.259  0.00  0.00    +0.000 A 
ATOM      2  C   UNL     1       1.116   8.674  20.517  0.00  0.00    +0.000 A 
ATOM      3  C   UNL     1       1.707   7.428  20.748  0.00  0.00    +0.000 A 
ATOM      4  C   UNL     1       2.403   6.777  19.726  0.00  0.00    +0.000 A 
ATOM      5  C   UNL     1       2.485   7.375  18.468  0.00  0.00    +0.000 A 
ATOM      6  C   UNL     1       1.887   8.612  18.242  0.00  0.00    +0.000 A 
ENDROOT
BRANCH   1  11
ATOM      7  C   UNL     1      -1.416  11.919  18.348  0.00  0.00    +0.000 A 
ATOM      8  C   UNL     1      -0.607  13.048  18.224  0.00  0.00    +0.000 A 
ATOM      9  C   UNL     1       0.755  12.976  18.488  0.00  0.00    +0.000 A 
ATOM     10  C   UNL     1       1.323  11.765  18.867  0.00  0.00    +0.000 A 
ATOM     11  C   UNL     1       0.549  10.597  18.981  0.00  0.00    +0.000 A 
ATOM     12  C   UNL     1      -0.838  10.707  18.752  0.00  0.00    +0.000 A 
BRANCH   7  16
ATOM     13  C   UNL     1      -4.877  11.674  16.878  0.00  0.00    +0.000 C 
ATOM     14  C   UNL     1      -3.387  11.471  16.906  0.00  0.00    +0.000 C 
ATOM     15  O   UNL     1      -2.820  10.926  15.964  0.00  0.00    +0.000 OA
ATOM     16  N   UNL     1      -2.800  11.942  18.069  0.00  0.00    +0.000 N 
ATOM     17  H   UNL     1      -3.415  12.202  18.829  0.00  0.00    +0.000 HD
ENDBRANCH   7  16
ENDBRANCH   1  11
BRANCH   4  18
ATOM     18  C   UNL     1       3.034   5.434  19.962  0.00  0.00    +0.000 C 
BRANCH  18  19
ATOM     19  C   UNL     1       2.176   4.267  19.616  0.00  0.00    +0.000 A 
ATOM     20  O   UNL     1       0.985   4.067  20.255  0.00  0.00    +0.000 OA
ATOM     21  C   UNL     1       0.462   2.973  19.638  0.00  0.00    +0.000 A 
ATOM     22  N   UNL     1       1.203   2.454  18.678  0.00  0.00    +0.000 NA
ATOM     23  C   UNL     1       2.321   3.267  18.669  0.00  0.00    +0.000 A 
BRANCH  23  24
ATOM     24  C   UNL     1       3.491   3.150  17.814  0.00  0.00    +0.000 C 
ATOM     25  O   UNL     1       4.086   2.084  17.750  0.00  0.00    +0.000 OA
ATOM     26  N   UNL     1       3.875   4.317  17.170  0.00  0.00    +0.000 N 
ATOM     27  H   UNL     1       3.365   5.154  17.427  0.00  0.00    +0.000 HD
BRANCH  26  28
ATOM     28  C   UNL     1       5.005   4.425  16.329  0.00  0.00    +0.000 A 
ATOM     29  C   UNL     1       6.278   4.765  16.812  0.00  0.00    +0.000 A 
ATOM     30  C   UNL     1       7.368   4.905  15.954  0.00  0.00    +0.000 A 
ATOM     31  C   UNL     1       7.204   4.694  14.591  0.00  0.00    +0.000 A 
ATOM     32  C   UNL     1       5.949   4.336  14.095  0.00  0.00    +0.000 A 
ATOM     33  C   UNL     1       4.856   4.192  14.960  0.00  0.00    +0.000 A 
ENDBRANCH  26  28
ENDBRANCH  23  24
ENDBRANCH  18  19
ENDBRANCH   4  18
TORSDOF 6
ENDMDL
MODEL 2
REMARK VINA RESULT:      -8.9      1.072      1.073
REMARK  Name = 
REMARK  7 active torsions:
REMARK  status: ('A' for Active; 'I' for Inactive)
REMARK    1  A    between atoms: C_1  and  C_2
REMARK    2  A    between atoms: N_4  and  C_5
REMARK    3  A    between atoms: C_9  and  C_10
REMARK    4  A    between atoms: C_13  and  C_14
REMARK    5  A    between atoms: C_14  and  C_15
REMARK    6  A    between atoms: C_19  and  C_20
REMARK    7  A    between atoms: N_22  and  C_23
REMARK                            x       y       z     vdW  Elec       q    Type
REMARK                         _______ _______ _______ _____ _____    ______ ____
ROOT
ATOM      1  C   UNL     1       1.184   9.340  19.313  0.00  0.00    +0.000 A 
ATOM      2  C   UNL     1       1.093   8.696  20.558  0.00  0.00    +0.000 A 
ATOM      3  C   UNL     1       1.673   7.442  20.771  0.00  0.00    +0.000 A 
ATOM      4  C   UNL     1       2.373   6.805  19.742  0.00  0.00    +0.000 A 
ATOM      5  C   UNL     1       2.470   7.427  18.496  0.00  0.00    +0.000 A 
ATOM      6  C   UNL     1       1.882   8.673  18.289  0.00  0.00    +0.000 A 
ENDROOT
BRANCH   1  11
ATOM      7  C   UNL     1      -1.424  12.009  18.540  0.00  0.00    +0.000 A 
ATOM      8  C   UNL     1      -0.601  13.115  18.331  0.00  0.00    +0.000 A 
ATOM      9  C   UNL     1       0.776  13.015  18.495  0.00  0.00    +0.000 A 
ATOM     10  C   UNL     1       1.342  11.798  18.858  0.00  0.00    +0.000 A 
ATOM     11  C   UNL     1       0.552  10.652  19.055  0.00  0.00    +0.000 A 
ATOM     12  C   UNL     1      -0.846  10.792  18.927  0.00  0.00    +0.000 A 
BRANCH   7  16
ATOM     13  C   UNL     1      -5.169  12.250  18.882  0.00  0.00    +0.000 C 
ATOM     14  C   UNL     1      -3.747  12.302  19.368  0.00  0.00    +0.000 C 
ATOM     15  O   UNL     1      -3.504  12.549  20.545  0.00  0.00    +0.000 OA
ATOM     16  N   UNL     1      -2.824  12.061  18.363  0.00  0.00    +0.000 N 
ATOM     17  H   UNL     1      -3.164  12.051  17.410  0.00  0.00    +0.000 HD
ENDBRANCH   7  16
ENDBRANCH   1  11
BRANCH   4  18
ATOM     18  C   UNL     1       2.992   5.454  19.957  0.00  0.00    +0.000 C 
BRANCH  18  19
ATOM     19  C   UNL     1       2.131   4.300  19.576  0.00  0.00    +0.000 A 
ATOM     20  O   UNL     1       0.922   4.106  20.181  0.00  0.00    +0.000 OA
ATOM     21  C   UNL     1       0.404   3.025  19.539  0.00  0.00    +0.000 A 
ATOM     22  N   UNL     1       1.165   2.508  18.593  0.00  0.00    +0.000 NA
ATOM     23  C   UNL     1       2.291   3.309  18.622  0.00  0.00    +0.000 A 
BRANCH  23  24
ATOM     24  C   UNL     1       3.481   3.188  17.797  0.00  0.00    +0.000 C 
ATOM     25  O   UNL     1       4.083   2.124  17.760  0.00  0.00    +0.000 OA
ATOM     26  N   UNL     1       3.875   4.350  17.149  0.00  0.00    +0.000 N 
ATOM     27  H   UNL     1       3.354   5.187  17.384  0.00  0.00    +0.000 HD
BRANCH  26  28
ATOM     28  C   UNL     1       5.024   4.454  16.334  0.00  0.00    +0.000 A 
ATOM     29  C   UNL     1       6.292   4.760  16.850  0.00  0.00    +0.000 A 
ATOM     30  C   UNL     1       7.402   4.898  16.018  0.00  0.00    +0.000 A 
ATOM     31  C   UNL     1       7.264   4.718  14.647  0.00  0.00    +0.000 A 
ATOM     32  C   UNL     1       6.013   4.394  14.118  0.00  0.00    +0.000 A 
ATOM     33  C   UNL     1       4.899   4.253  14.957  0.00  0.00    +0.000 A 
ENDBRANCH  26  28
ENDBRANCH  23  24
ENDBRANCH  18  19
ENDBRANCH   4  18
TORSDOF 6
ENDMDL
MODEL 3
REMARK VINA RESULT:      -8.9      1.156      1.693
REMARK  Name = 
REMARK  7 active torsions:
REMARK  status: ('A' for Active; 'I' for Inactive)
REMARK    1  A    between atoms: C_1  and  C_2
REMARK    2  A    between atoms: N_4  and  C_5
REMARK    3  A    between atoms: C_9  and  C_10
REMARK    4  A    between atoms: C_13  and  C_14
REMARK    5  A    between atoms: C_14  and  C_15
REMARK    6  A    between atoms: C_19  and  C_20
REMARK    7  A    between atoms: N_22  and  C_23
REMARK                            x       y       z     vdW  Elec       q    Type
REMARK                         _______ _______ _______ _____ _____    ______ ____
ROOT
ATOM      1  C   UNL     1       1.176   9.399  19.203  0.00  0.00    +0.000 A 
ATOM      2  C   UNL     1       1.859   8.725  18.178  0.00  0.00    +0.000 A 
ATOM      3  C   UNL     1       2.461   7.483  18.401  0.00  0.00    +0.000 A 
ATOM      4  C   UNL     1       2.382   6.877  19.658  0.00  0.00    +0.000 A 
ATOM      5  C   UNL     1       1.712   7.534  20.692  0.00  0.00    +0.000 A 
ATOM      6  C   UNL     1       1.122   8.775  20.464  0.00  0.00    +0.000 A 
ENDROOT
BRANCH   1  11
ATOM      7  C   UNL     1      -1.415  12.137  18.643  0.00  0.00    +0.000 A 
ATOM      8  C   UNL     1      -0.582  13.225  18.381  0.00  0.00    +0.000 A 
ATOM      9  C   UNL     1       0.800  13.090  18.442  0.00  0.00    +0.000 A 
ATOM     10  C   UNL     1       1.361  11.856  18.753  0.00  0.00    +0.000 A 
ATOM     11  C   UNL     1       0.559  10.728  19.001  0.00  0.00    +0.000 A 
ATOM     12  C   UNL     1      -0.840  10.903  18.977  0.00  0.00    +0.000 A 
BRANCH   7  16
ATOM     13  C   UNL     1      -5.119  12.447  19.265  0.00  0.00    +0.000 C 
ATOM     14  C   UNL     1      -3.664  12.453  19.646  0.00  0.00    +0.000 C 
ATOM     15  O   UNL     1      -3.331  12.659  20.810  0.00  0.00    +0.000 OA
ATOM     16  N   UNL     1      -2.822  12.224  18.570  0.00  0.00    +0.000 N 
ATOM     17  H   UNL     1      -3.231  12.251  17.645  0.00  0.00    +0.000 HD
ENDBRANCH   7  16
ENDBRANCH   1  11
BRANCH   4  18
ATOM     18  C   UNL     1       3.033   5.547  19.911  0.00  0.00    +0.000 C 
BRANCH  18  19
ATOM     19  C   UNL     1       2.188   4.364  19.592  0.00  0.00    +0.000 A 
ATOM     20  O   UNL     1       1.013   4.149  20.255  0.00  0.00    +0.000 OA
ATOM     21  C   UNL     1       0.497   3.042  19.658  0.00  0.00    +0.000 A 
ATOM     22  N   UNL     1       1.227   2.527  18.687  0.00  0.00    +0.000 NA
ATOM     23  C   UNL     1       2.331   3.358  18.650  0.00  0.00    +0.000 A 
BRANCH  23  24
ATOM     24  C   UNL     1       3.485   3.253  17.772  0.00  0.00    +0.000 C 
ATOM     25  O   UNL     1       4.075   2.186  17.678  0.00  0.00    +0.000 OA
ATOM     26  N   UNL     1       3.863   4.431  17.145  0.00  0.00    +0.000 N 
ATOM     27  H   UNL     1       3.362   5.264  17.427  0.00  0.00    +0.000 HD
BRANCH  26  28
ATOM     28  C   UNL     1       4.979   4.551  16.287  0.00  0.00    +0.000 A 
ATOM     29  C   UNL     1       4.915   4.259  14.916  0.00  0.00    +0.000 A 
ATOM     30  C   UNL     1       6.042   4.347  14.100  0.00  0.00    +0.000 A 
ATOM     31  C   UNL     1       7.258   4.741  14.643  0.00  0.00    +0.000 A 
ATOM     32  C   UNL     1       7.337   5.053  16.002  0.00  0.00    +0.000 A 
ATOM     33  C   UNL     1       6.202   4.968  16.819  0.00  0.00    +0.000 A 
ENDBRANCH  26  28
ENDBRANCH  23  24
ENDBRANCH  18  19
ENDBRANCH   4  18
TORSDOF 6
ENDMDL
MODEL 4
REMARK VINA RESULT:      -8.8      3.739     10.615
REMARK  Name = 
REMARK  7 active torsions:
REMARK  status: ('A' for Active; 'I' for Inactive)
REMARK    1  A    between atoms: C_1  and  C_2
REMARK    2  A    between atoms: N_4  and  C_5
REMARK    3  A    between atoms: C_9  and  C_10
REMARK    4  A    between atoms: C_13  and  C_14
REMARK    5  A    between atoms: C_14  and  C_15
REMARK    6  A    between atoms: C_19  and  C_20
REMARK    7  A    between atoms: N_22  and  C_23
REMARK                            x       y       z     vdW  Elec       q    Type
REMARK                         _______ _______ _______ _____ _____    ______ ____
ROOT
ATOM      1  C   UNL     1       2.535   7.390  18.875  0.00  0.00    +0.000 A 
ATOM      2  C   UNL     1       2.248   8.323  17.866  0.00  0.00    +0.000 A 
ATOM      3  C   UNL     1       1.423   9.425  18.111  0.00  0.00    +0.000 A 
ATOM      4  C   UNL     1       0.873   9.626  19.381  0.00  0.00    +0.000 A 
ATOM      5  C   UNL     1       1.144   8.706  20.395  0.00  0.00    +0.000 A 
ATOM      6  C   UNL     1       1.960   7.607  20.141  0.00  0.00    +0.000 A 
ENDROOT
BRANCH   1  11
ATOM      7  C   UNL     1       4.619   4.732  17.109  0.00  0.00    +0.000 A 
ATOM      8  C   UNL     1       4.783   3.810  18.143  0.00  0.00    +0.000 A 
ATOM      9  C   UNL     1       4.277   4.069  19.411  0.00  0.00    +0.000 A 
ATOM     10  C   UNL     1       3.588   5.253  19.651  0.00  0.00    +0.000 A 
ATOM     11  C   UNL     1       3.379   6.199  18.632  0.00  0.00    +0.000 A 
ATOM     12  C   UNL     1       3.943   5.932  17.367  0.00  0.00    +0.000 A 
BRANCH   7  16
ATOM     13  C   UNL     1       6.617   4.339  13.938  0.00  0.00    +0.000 C 
ATOM     14  C   UNL     1       6.422   4.603  15.406  0.00  0.00    +0.000 C 
ATOM     15  O   UNL     1       7.384   4.865  16.121  0.00  0.00    +0.000 OA
ATOM     16  N   UNL     1       5.098   4.499  15.802  0.00  0.00    +0.000 N 
ATOM     17  H   UNL     1       4.444   4.101  15.140  0.00  0.00    +0.000 HD
ENDBRANCH   7  16
ENDBRANCH   1  11
BRANCH   4  18
ATOM     18  C   UNL     1      -0.022  10.802  19.652  0.00  0.00    +0.000 C 
BRANCH  18  19
ATOM     19  C   UNL     1       0.635  11.945  20.344  0.00  0.00    +0.000 A 
ATOM     20  O   UNL     1       1.797  12.476  19.859  0.00  0.00    +0.000 OA
ATOM     21  C   UNL     1       2.050  13.522  20.691  0.00  0.00    +0.000 A 
ATOM     22  N   UNL     1       1.173  13.705  21.659  0.00  0.00    +0.000 NA
ATOM     23  C   UNL     1       0.266  12.681  21.458  0.00  0.00    +0.000 A 
BRANCH  23  24
ATOM     24  C   UNL     1      -0.915  12.381  22.250  0.00  0.00    +0.000 C 
ATOM     25  O   UNL     1      -0.871  11.486  23.082  0.00  0.00    +0.000 OA
ATOM     26  N   UNL     1      -2.044  13.123  21.937  0.00  0.00    +0.000 N 
ATOM     27  H   UNL     1      -1.965  13.733  21.132  0.00  0.00    +0.000 HD
BRANCH  26  28
ATOM     28  C   UNL     1      -3.301  12.958  22.559  0.00  0.00    +0.000 A 
ATOM     29  C   UNL     1      -4.511  13.022  21.852  0.00  0.00    +0.000 A 
ATOM     30  C   UNL     1      -5.740  12.896  22.498  0.00  0.00    +0.000 A 
ATOM     31  C   UNL     1      -5.779  12.690  23.871  0.00  0.00    +0.000 A 
ATOM     32  C   UNL     1      -4.585  12.604  24.589  0.00  0.00    +0.000 A 
ATOM     33  C   UNL     1      -3.351  12.727  23.937  0.00  0.00    +0.000 A 
ENDBRANCH  26  28
ENDBRANCH  23  24
ENDBRANCH  18  19
ENDBRANCH   4  18
TORSDOF 6
ENDMDL
MODEL 5
REMARK VINA RESULT:      -8.8      2.345      3.169
REMARK  Name = 
REMARK  7 active torsions:
REMARK  status: ('A' for Active; 'I' for Inactive)
REMARK    1  A    between atoms: C_1  and  C_2
REMARK    2  A    between atoms: N_4  and  C_5
REMARK    3  A    between atoms: C_9  and  C_10
REMARK    4  A    between atoms: C_13  and  C_14
REMARK    5  A    between atoms: C_14  and  C_15
REMARK    6  A    between atoms: C_19  and  C_20
REMARK    7  A    between atoms: N_22  and  C_23
REMARK                            x       y       z     vdW  Elec       q    Type
REMARK                         _______ _______ _______ _____ _____    ______ ____
ROOT
ATOM      1  C   UNL     1       1.770   8.950  18.652  0.00  0.00    +0.000 A 
ATOM      2  C   UNL     1       1.689   7.957  19.641  0.00  0.00    +0.000 A 
ATOM      3  C   UNL     1       2.453   6.789  19.560  0.00  0.00    +0.000 A 
ATOM      4  C   UNL     1       3.329   6.592  18.490  0.00  0.00    +0.000 A 
ATOM      5  C   UNL     1       3.420   7.566  17.494  0.00  0.00    +0.000 A 
ATOM      6  C   UNL     1       2.650   8.723  17.576  0.00  0.00    +0.000 A 
ENDROOT
BRANCH   1  11
ATOM      7  C   UNL     1      -1.206  11.323  18.454  0.00  0.00    +0.000 A 
ATOM      8  C   UNL     1      -0.557  12.553  18.557  0.00  0.00    +0.000 A 
ATOM      9  C   UNL     1       0.818  12.615  18.746  0.00  0.00    +0.000 A 
ATOM     10  C   UNL     1       1.559  11.441  18.820  0.00  0.00    +0.000 A 
ATOM     11  C   UNL     1       0.949  10.180  18.698  0.00  0.00    +0.000 A 
ATOM     12  C   UNL     1      -0.453  10.144  18.553  0.00  0.00    +0.000 A 
BRANCH   7  16
ATOM     13  C   UNL     1      -4.713  11.103  17.092  0.00  0.00    +0.000 C 
ATOM     14  C   UNL     1      -3.214  11.176  17.000  0.00  0.00    +0.000 C 
ATOM     15  O   UNL     1      -2.661  11.184  15.904  0.00  0.00    +0.000 OA
ATOM     16  N   UNL     1      -2.598  11.214  18.240  0.00  0.00    +0.000 N 
ATOM     17  H   UNL     1      -3.170  11.020  19.051  0.00  0.00    +0.000 HD
ENDBRANCH   7  16
ENDBRANCH   1  11
BRANCH   4  18
ATOM     18  C   UNL     1       4.148   5.336  18.389  0.00  0.00    +0.000 C 
BRANCH  18  19
ATOM     19  C   UNL     1       5.606   5.516  18.628  0.00  0.00    +0.000 A 
ATOM     20  O   UNL     1       6.105   5.534  19.900  0.00  0.00    +0.000 OA
ATOM     21  C   UNL     1       7.449   5.642  19.723  0.00  0.00    +0.000 A 
ATOM     22  N   UNL     1       7.855   5.701  18.469  0.00  0.00    +0.000 NA
ATOM     23  C   UNL     1       6.673   5.642  17.753  0.00  0.00    +0.000 A 
BRANCH  23  24
ATOM     24  C   UNL     1       6.512   5.687  16.310  0.00  0.00    +0.000 C 
ATOM     25  O   UNL     1       5.881   6.603  15.802  0.00  0.00    +0.000 OA
ATOM     26  N   UNL     1       7.059   4.616  15.618  0.00  0.00    +0.000 N 
ATOM     27  H   UNL     1       7.432   3.866  16.186  0.00  0.00    +0.000 HD
BRANCH  26  28
ATOM     28  C   UNL     1       6.976   4.450  14.217  0.00  0.00    +0.000 A 
ATOM     29  C   UNL     1       7.772   5.178  13.321  0.00  0.00    +0.000 A 
ATOM     30  C   UNL     1       7.642   5.024  11.941  0.00  0.00    +0.000 A 
ATOM     31  C   UNL     1       6.713   4.124  11.432  0.00  0.00    +0.000 A 
ATOM     32  C   UNL     1       5.925   3.378  12.311  0.00  0.00    +0.000 A 
ATOM     33  C   UNL     1       6.060   3.532  13.697  0.00  0.00    +0.000 A 
ENDBRANCH  26  28
ENDBRANCH  23  24
ENDBRANCH  18  19
ENDBRANCH   4  18
TORSDOF 6
ENDMDL
MODEL 6
REMARK VINA RESULT:      -8.8      2.155      3.164
REMARK  Name = 
REMARK  7 active torsions:
REMARK  status: ('A' for Active; 'I' for Inactive)
REMARK    1  A    between atoms: C_1  and  C_2
REMARK    2  A    between atoms: N_4  and  C_5
REMARK    3  A    between atoms: C_9  and  C_10
REMARK    4  A    between atoms: C_13  and  C_14
REMARK    5  A    between atoms: C_14  and  C_15
REMARK    6  A    between atoms: C_19  and  C_20
REMARK    7  A    between atoms: N_22  and  C_23
REMARK                            x       y       z     vdW  Elec       q    Type
REMARK                         _______ _______ _______ _____ _____    ______ ____
ROOT
ATOM      1  C   UNL     1       1.431   9.162  19.394  0.00  0.00    +0.000 A 
ATOM      2  C   UNL     1       1.088   8.658  20.660  0.00  0.00    +0.000 A 
ATOM      3  C   UNL     1       1.437   7.360  21.043  0.00  0.00    +0.000 A 
ATOM      4  C   UNL     1       2.152   6.535  20.170  0.00  0.00    +0.000 A 
ATOM      5  C   UNL     1       2.498   7.016  18.906  0.00  0.00    +0.000 A 
ATOM      6  C   UNL     1       2.139   8.308  18.528  0.00  0.00    +0.000 A 
ENDROOT
BRANCH   1  11
ATOM      7  C   UNL     1       1.644  12.765  18.171  0.00  0.00    +0.000 A 
ATOM      8  C   UNL     1       0.321  13.170  18.345  0.00  0.00    +0.000 A 
ATOM      9  C   UNL     1      -0.641  12.275  18.797  0.00  0.00    +0.000 A 
ATOM     10  C   UNL     1      -0.281  10.965  19.093  0.00  0.00    +0.000 A 
ATOM     11  C   UNL     1       1.045  10.520  18.954  0.00  0.00    +0.000 A 
ATOM     12  C   UNL     1       1.992  11.436  18.450  0.00  0.00    +0.000 A 
BRANCH   7  16
ATOM     13  C   UNL     1       4.388  15.321  17.801  0.00  0.00    +0.000 C 
ATOM     14  C   UNL     1       3.418  14.458  18.560  0.00  0.00    +0.000 C 
ATOM     15  O   UNL     1       3.371  14.511  19.785  0.00  0.00    +0.000 OA
ATOM     16  N   UNL     1       2.657  13.646  17.734  0.00  0.00    +0.000 N 
ATOM     17  H   UNL     1       2.931  13.581  16.763  0.00  0.00    +0.000 HD
ENDBRANCH   7  16
ENDBRANCH   1  11
BRANCH   4  18
ATOM     18  C   UNL     1       2.525   5.135  20.569  0.00  0.00    +0.000 C 
BRANCH  18  19
ATOM     19  C   UNL     1       1.884   4.061  19.761  0.00  0.00    +0.000 A 
ATOM     20  O   UNL     1       0.605   3.661  20.026  0.00  0.00    +0.000 OA
ATOM     21  C   UNL     1       0.344   2.738  19.062  0.00  0.00    +0.000 A 
ATOM     22  N   UNL     1       1.330   2.505  18.216  0.00  0.00    +0.000 NA
ATOM     23  C   UNL     1       2.336   3.337  18.670  0.00  0.00    +0.000 A 
BRANCH  23  24
ATOM     24  C   UNL     1       3.674   3.483  18.122  0.00  0.00    +0.000 C 
ATOM     25  O   UNL     1       4.622   2.971  18.701  0.00  0.00    +0.000 OA
ATOM     26  N   UNL     1       3.766   4.269  16.982  0.00  0.00    +0.000 N 
ATOM     27  H   UNL     1       2.915   4.737  16.697  0.00  0.00    +0.000 HD
BRANCH  26  28
ATOM     28  C   UNL     1       4.978   4.568  16.320  0.00  0.00    +0.000 A 
ATOM     29  C   UNL     1       5.332   3.988  15.093  0.00  0.00    +0.000 A 
ATOM     30  C   UNL     1       6.553   4.269  14.480  0.00  0.00    +0.000 A 
ATOM     31  C   UNL     1       7.440   5.151  15.084  0.00  0.00    +0.000 A 
ATOM     32  C   UNL     1       7.096   5.753  16.296  0.00  0.00    +0.000 A 
ATOM     33  C   UNL     1       5.867   5.471  16.908  0.00  0.00    +0.000 A 
ENDBRANCH  26  28
ENDBRANCH  23  24
ENDBRANCH  18  19
ENDBRANCH   4  18
TORSDOF 6
ENDMDL
MODEL 7
REMARK VINA RESULT:      -8.7      3.705     10.509
REMARK  Name = 
REMARK  7 active torsions:
REMARK  status: ('A' for Active; 'I' for Inactive)
REMARK    1  A    between atoms: C_1  and  C_2
REMARK    2  A    between atoms: N_4  and  C_5
REMARK    3  A    between atoms: C_9  and  C_10
REMARK    4  A    between atoms: C_13  and  C_14
REMARK    5  A    between atoms: C_14  and  C_15
REMARK    6  A    between atoms: C_19  and  C_20
REMARK    7  A    between atoms: N_22  and  C_23
REMARK                            x       y       z     vdW  Elec       q    Type
REMARK                         _______ _______ _______ _____ _____    ______ ____
ROOT
ATOM      1  C   UNL     1       2.535   7.410  18.785  0.00  0.00    +0.000 A 
ATOM      2  C   UNL     1       1.942   7.703  20.024  0.00  0.00    +0.000 A 
ATOM      3  C   UNL     1       1.144   8.839  20.195  0.00  0.00    +0.000 A 
ATOM      4  C   UNL     1       0.911   9.705  19.123  0.00  0.00    +0.000 A 
ATOM      5  C   UNL     1       1.496   9.433  17.886  0.00  0.00    +0.000 A 
ATOM      6  C   UNL     1       2.296   8.304  17.725  0.00  0.00    +0.000 A 
ENDROOT
BRANCH   1  11
ATOM      7  C   UNL     1       4.762   4.794  17.135  0.00  0.00    +0.000 A 
ATOM      8  C   UNL     1       4.872   3.865  18.170  0.00  0.00    +0.000 A 
ATOM      9  C   UNL     1       4.282   4.107  19.405  0.00  0.00    +0.000 A 
ATOM     10  C   UNL     1       3.564   5.280  19.610  0.00  0.00    +0.000 A 
ATOM     11  C   UNL     1       3.408   6.232  18.587  0.00  0.00    +0.000 A 
ATOM     12  C   UNL     1       4.055   5.983  17.359  0.00  0.00    +0.000 A 
BRANCH   7  16
ATOM     13  C   UNL     1       6.846   4.737  13.996  0.00  0.00    +0.000 C 
ATOM     14  C   UNL     1       6.530   5.106  15.419  0.00  0.00    +0.000 C 
ATOM     15  O   UNL     1       7.311   5.796  16.067  0.00  0.00    +0.000 OA
ATOM     16  N   UNL     1       5.327   4.579  15.859  0.00  0.00    +0.000 N 
ATOM     17  H   UNL     1       4.881   3.884  15.275  0.00  0.00    +0.000 HD
ENDBRANCH   7  16
ENDBRANCH   1  11
BRANCH   4  18
ATOM     18  C   UNL     1       0.063  10.933  19.300  0.00  0.00    +0.000 C 
BRANCH  18  19
ATOM     19  C   UNL     1       0.669  11.998  20.145  0.00  0.00    +0.000 A 
ATOM     20  O   UNL     1       1.857  12.573  19.791  0.00  0.00    +0.000 OA
ATOM     21  C   UNL     1       2.052  13.529  20.739  0.00  0.00    +0.000 A 
ATOM     22  N   UNL     1       1.113  13.615  21.662  0.00  0.00    +0.000 NA
ATOM     23  C   UNL     1       0.226  12.618  21.302  0.00  0.00    +0.000 A 
BRANCH  23  24
ATOM     24  C   UNL     1      -1.002  12.242  21.982  0.00  0.00    +0.000 C 
ATOM     25  O   UNL     1      -1.143  11.094  22.381  0.00  0.00    +0.000 OA
ATOM     26  N   UNL     1      -1.963  13.238  22.066  0.00  0.00    +0.000 N 
ATOM     27  H   UNL     1      -1.757  14.097  21.570  0.00  0.00    +0.000 HD
BRANCH  26  28
ATOM     28  C   UNL     1      -3.238  13.065  22.651  0.00  0.00    +0.000 A 
ATOM     29  C   UNL     1      -3.418  12.856  24.026  0.00  0.00    +0.000 A 
ATOM     30  C   UNL     1      -4.684  12.646  24.571  0.00  0.00    +0.000 A 
ATOM     31  C   UNL     1      -5.801  12.655  23.744  0.00  0.00    +0.000 A 
ATOM     32  C   UNL     1      -5.642  12.880  22.375  0.00  0.00    +0.000 A 
ATOM     33  C   UNL     1      -4.369  13.094  21.830  0.00  0.00    +0.000 A 
ENDBRANCH  26  28
ENDBRANCH  23  24
ENDBRANCH  18  19
ENDBRANCH   4  18
TORSDOF 6
ENDMDL
MODEL 8
REMARK VINA RESULT:      -8.7      3.270      9.511
REMARK  Name = 
REMARK  7 active torsions:
REMARK  status: ('A' for Active; 'I' for Inactive)
REMARK    1  A    between atoms: C_1  and  C_2
REMARK    2  A    between atoms: N_4  and  C_5
REMARK    3  A    between atoms: C_9  and  C_10
REMARK    4  A    between atoms: C_13  and  C_14
REMARK    5  A    between atoms: C_14  and  C_15
REMARK    6  A    between atoms: C_19  and  C_20
REMARK    7  A    between atoms: N_22  and  C_23
REMARK                            x       y       z     vdW  Elec       q    Type
REMARK                         _______ _______ _______ _____ _____    ______ ____
ROOT
ATOM      1  C   UNL     1       0.567  10.087  20.979  0.00  0.00    +0.000 A 
ATOM      2  C   UNL     1       0.924  11.432  20.785  0.00  0.00    +0.000 A 
ATOM      3  C   UNL     1       0.315  12.456  21.516  0.00  0.00    +0.000 A 
ATOM      4  C   UNL     1      -0.662  12.158  22.470  0.00  0.00    +0.000 A 
ATOM      5  C   UNL     1      -1.033  10.828  22.673  0.00  0.00    +0.000 A 
ATOM      6  C   UNL     1      -0.428   9.813  21.936  0.00  0.00    +0.000 A 
ENDROOT
BRANCH   1  11
ATOM      7  C   UNL     1       2.180   6.757  20.067  0.00  0.00    +0.000 A 
ATOM      8  C   UNL     1       2.539   7.003  18.742  0.00  0.00    +0.000 A 
ATOM      9  C   UNL     1       2.213   8.208  18.132  0.00  0.00    +0.000 A 
ATOM     10  C   UNL     1       1.534   9.186  18.851  0.00  0.00    +0.000 A 
ATOM     11  C   UNL     1       1.174   8.989  20.196  0.00  0.00    +0.000 A 
ATOM     12  C   UNL     1       1.476   7.740  20.777  0.00  0.00    +0.000 A 
BRANCH   7  16
ATOM     13  C   UNL     1       2.315   3.316  21.598  0.00  0.00    +0.000 C 
ATOM     14  C   UNL     1       1.717   4.421  20.773  0.00  0.00    +0.000 C 
ATOM     15  O   UNL     1       0.638   4.259  20.211  0.00  0.00    +0.000 OA
ATOM     16  N   UNL     1       2.511   5.556  20.733  0.00  0.00    +0.000 N 
ATOM     17  H   UNL     1       3.452   5.479  21.094  0.00  0.00    +0.000 HD
ENDBRANCH   7  16
ENDBRANCH   1  11
BRANCH   4  18
ATOM     18  C   UNL     1      -1.328  13.253  23.254  0.00  0.00    +0.000 C 
BRANCH  18  19
ATOM     19  C   UNL     1      -1.812  14.402  22.441  0.00  0.00    +0.000 A 
ATOM     20  O   UNL     1      -1.551  15.686  22.828  0.00  0.00    +0.000 OA
ATOM     21  C   UNL     1      -2.073  16.443  21.825  0.00  0.00    +0.000 A 
ATOM     22  N   UNL     1      -2.645  15.771  20.845  0.00  0.00    +0.000 NA
ATOM     23  C   UNL     1      -2.502  14.454  21.241  0.00  0.00    +0.000 A 
BRANCH  23  24
ATOM     24  C   UNL     1      -2.969  13.267  20.544  0.00  0.00    +0.000 C 
ATOM     25  O   UNL     1      -3.842  12.575  21.050  0.00  0.00    +0.000 OA
ATOM     26  N   UNL     1      -2.318  12.984  19.352  0.00  0.00    +0.000 N 
ATOM     27  H   UNL     1      -1.524  13.572  19.130  0.00  0.00    +0.000 HD
BRANCH  26  28
ATOM     28  C   UNL     1      -2.593  11.857  18.546  0.00  0.00    +0.000 A 
ATOM     29  C   UNL     1      -1.612  10.916  18.200  0.00  0.00    +0.000 A 
ATOM     30  C   UNL     1      -1.901   9.835  17.368  0.00  0.00    +0.000 A 
ATOM     31  C   UNL     1      -3.189   9.670  16.874  0.00  0.00    +0.000 A 
ATOM     32  C   UNL     1      -4.183  10.587  17.223  0.00  0.00    +0.000 A 
ATOM     33  C   UNL     1      -3.891  11.670  18.062  0.00  0.00    +0.000 A 
ENDBRANCH  26  28
ENDBRANCH  23  24
ENDBRANCH  18  19
ENDBRANCH   4  18
TORSDOF 6
ENDMDL
MODEL 9
REMARK VINA RESULT:      -8.6      2.114     10.164
REMARK  Name = 
REMARK  7 active torsions:
REMARK  status: ('A' for Active; 'I' for Inactive)
REMARK    1  A    between atoms: C_1  and  C_2
REMARK    2  A    between atoms: N_4  and  C_5
REMARK    3  A    between atoms: C_9  and  C_10
REMARK    4  A    between atoms: C_13  and  C_14
REMARK    5  A    between atoms: C_14  and  C_15
REMARK    6  A    between atoms: C_19  and  C_20
REMARK    7  A    between atoms: N_22  and  C_23
REMARK                            x       y       z     vdW  Elec       q    Type
REMARK                         _______ _______ _______ _____ _____    ______ ____
ROOT
ATOM      1  C   UNL     1       2.220   7.198  19.363  0.00  0.00    +0.000 A 
ATOM      2  C   UNL     1       2.022   8.294  18.507  0.00  0.00    +0.000 A 
ATOM      3  C   UNL     1       1.369   9.449  18.948  0.00  0.00    +0.000 A 
ATOM      4  C   UNL     1       0.908   9.540  20.264  0.00  0.00    +0.000 A 
ATOM      5  C   UNL     1       1.091   8.459  21.128  0.00  0.00    +0.000 A 
ATOM      6  C   UNL     1       1.735   7.309  20.680  0.00  0.00    +0.000 A 
ENDROOT
BRANCH   1  11
ATOM      7  C   UNL     1       4.224   4.716  17.276  0.00  0.00    +0.000 A 
ATOM      8  C   UNL     1       3.930   3.528  17.944  0.00  0.00    +0.000 A 
ATOM      9  C   UNL     1       3.141   3.534  19.088  0.00  0.00    +0.000 A 
ATOM     10  C   UNL     1       2.628   4.735  19.567  0.00  0.00    +0.000 A 
ATOM     11  C   UNL     1       2.879   5.953  18.912  0.00  0.00    +0.000 A 
ATOM     12  C   UNL     1       3.720   5.924  17.779  0.00  0.00    +0.000 A 
BRANCH   7  16
ATOM     13  C   UNL     1       6.931   4.756  14.655  0.00  0.00    +0.000 C 
ATOM     14  C   UNL     1       6.381   4.632  16.050  0.00  0.00    +0.000 C 
ATOM     15  O   UNL     1       7.136   4.432  16.997  0.00  0.00    +0.000 OA
ATOM     16  N   UNL     1       5.002   4.753  16.099  0.00  0.00    +0.000 N 
ATOM     17  H   UNL     1       4.501   4.735  15.220  0.00  0.00    +0.000 HD
ENDBRANCH   7  16
ENDBRANCH   1  11
BRANCH   4  18
ATOM     18  C   UNL     1       0.197  10.774  20.744  0.00  0.00    +0.000 C 
BRANCH  18  19
ATOM     19  C   UNL     1       0.141  11.889  19.760  0.00  0.00    +0.000 A 
ATOM     20  O   UNL     1       1.240  12.667  19.528  0.00  0.00    +0.000 OA
ATOM     21  C   UNL     1       0.840  13.512  18.539  0.00  0.00    +0.000 A 
ATOM     22  N   UNL     1      -0.403  13.355  18.125  0.00  0.00    +0.000 NA
ATOM     23  C   UNL     1      -0.871  12.325  18.920  0.00  0.00    +0.000 A 
BRANCH  23  24
ATOM     24  C   UNL     1      -2.201  11.740  18.912  0.00  0.00    +0.000 C 
ATOM     25  O   UNL     1      -2.343  10.571  18.581  0.00  0.00    +0.000 OA
ATOM     26  N   UNL     1      -3.234  12.608  19.235  0.00  0.00    +0.000 N 
ATOM     27  H   UNL     1      -2.975  13.580  19.353  0.00  0.00    +0.000 HD
BRANCH  26  28
ATOM     28  C   UNL     1      -4.600  12.248  19.244  0.00  0.00    +0.000 A 
ATOM     29  C   UNL     1      -5.344  12.136  20.428  0.00  0.00    +0.000 A 
ATOM     30  C   UNL     1      -6.681  11.739  20.412  0.00  0.00    +0.000 A 
ATOM     31  C   UNL     1      -7.302  11.456  19.202  0.00  0.00    +0.000 A 
ATOM     32  C   UNL     1      -6.582  11.581  18.013  0.00  0.00    +0.000 A 
ATOM     33  C   UNL     1      -5.240  11.983  18.031  0.00  0.00    +0.000 A 
ENDBRANCH  26  28
ENDBRANCH  23  24
ENDBRANCH  18  19
ENDBRANCH   4  18
TORSDOF 6
ENDMDL
