MODEL 1
REMARK VINA RESULT:      -7.7      0.000      0.000
REMARK  Name = 
REMARK  7 active torsions:
REMARK  status: ('A' for Active; 'I' for Inactive)
REMARK    1  A    between atoms: C_1  and  C_2
REMARK    2  A    between atoms: C_2  and  O_3
REMARK    3  A    between atoms: O_3  and  C_4
REMARK    4  A    between atoms: C_4  and  C_6
REMARK    5  A    between atoms: C_7  and  C_8
REMARK    6  A    between atoms: N_16  and  C_17
REMARK    7  A    between atoms: C_22  and  C_23
REMARK                            x       y       z     vdW  Elec       q    Type
REMARK                         _______ _______ _______ _____ _____    ______ ____
ROOT
ATOM      1  C   UNL     1       2.821   6.213  18.585  0.00  0.00    +0.000 A 
ATOM      2  C   UNL     1       2.345   5.766  19.854  0.00  0.00    +0.000 A 
ATOM      3  N   UNL     1       1.724   6.774  20.511  0.00  0.00    +0.000 NA
ATOM      4  N   UNL     1       1.789   7.830  19.664  0.00  0.00    +0.000 N 
ATOM      5  C   UNL     1       1.262   9.093  19.958  0.00  0.00    +0.000 A 
ATOM      6  O   UNL     1       0.752   9.329  21.044  0.00  0.00    +0.000 OA
ATOM      7  N   UNL     1       1.374   9.918  18.845  0.00  0.00    +0.000 N 
ATOM      8  N   UNL     1       2.045   9.604  17.684  0.00  0.00    +0.000 NA
ATOM      9  N   UNL     1       2.561   8.475  17.543  0.00  0.00    +0.000 NA
ATOM     10  C   UNL     1       2.420   7.534  18.495  0.00  0.00    +0.000 A 
ENDROOT
BRANCH   7  11
ATOM     11  C   UNL     1       0.880  11.246  18.839  0.00  0.00    +0.000 A 
ATOM     12  C   UNL     1       1.741  12.286  19.229  0.00  0.00    +0.000 A 
ATOM     13  C   UNL     1       1.349  13.619  19.100  0.00  0.00    +0.000 A 
ATOM     14  C   UNL     1       0.085  13.928  18.609  0.00  0.00    +0.000 A 
ATOM     15  C   UNL     1      -0.793  12.904  18.260  0.00  0.00    +0.000 A 
ATOM     16  C   UNL     1      -0.416  11.551  18.373  0.00  0.00    +0.000 A 
BRANCH  16  17
ATOM     17  C   UNL     1      -1.466  10.511  18.058  0.00  0.00    +0.000 C 
ATOM     18  F   UNL     1      -1.132   9.608  17.094  0.00  0.00    +0.000 F 
ATOM     19  F   UNL     1      -1.771   9.753  19.151  0.00  0.00    +0.000 F 
ATOM     20  F   UNL     1      -2.643  11.069  17.659  0.00  0.00    +0.000 F 
ENDBRANCH  16  17
ENDBRANCH   7  11
BRANCH   2  21
ATOM     21  C   UNL     1       2.532   4.402  20.490  0.00  0.00    +0.000 C 
ATOM     22  F   UNL     1       3.746   3.848  20.249  0.00  0.00    +0.000 F 
ATOM     23  F   UNL     1       2.423   4.462  21.844  0.00  0.00    +0.000 F 
ATOM     24  F   UNL     1       1.603   3.509  20.057  0.00  0.00    +0.000 F 
ENDBRANCH   2  21
BRANCH   1  25
ATOM     25  C   UNL     1       3.615   5.508  17.607  0.00  0.00    +0.000 C 
ATOM     26  O   UNL     1       3.250   4.489  17.047  0.00  0.00    +0.000 OA
BRANCH  25  27
ATOM     27  O   UNL     1       4.859   6.053  17.508  0.00  0.00    +0.000 OA
BRANCH  27  29
ATOM     28  C   UNL     1       6.483   5.435  19.137  0.00  0.00    +0.000 C 
ATOM     29  C   UNL     1       5.944   5.149  17.745  0.00  0.00    +0.000 C 
ENDBRANCH  27  29
ENDBRANCH  25  27
ENDBRANCH   1  25
TORSDOF 6
ENDMDL
MODEL 2
REMARK VINA RESULT:      -7.7      0.796      1.451
REMARK  Name = 
REMARK  7 active torsions:
REMARK  status: ('A' for Active; 'I' for Inactive)
REMARK    1  A    between atoms: C_1  and  C_2
REMARK    2  A    between atoms: C_2  and  O_3
REMARK    3  A    between atoms: O_3  and  C_4
REMARK    4  A    between atoms: C_4  and  C_6
REMARK    5  A    between atoms: C_7  and  C_8
REMARK    6  A    between atoms: N_16  and  C_17
REMARK    7  A    between atoms: C_22  and  C_23
REMARK                            x       y       z     vdW  Elec       q    Type
REMARK                         _______ _______ _______ _____ _____    ______ ____
ROOT
ATOM      1  C   UNL     1       2.765   6.260  18.666  0.00  0.00    +0.000 A 
ATOM      2  C   UNL     1       2.303   5.841  19.949  0.00  0.00    +0.000 A 
ATOM      3  N   UNL     1       1.696   6.865  20.594  0.00  0.00    +0.000 NA
ATOM      4  N   UNL     1       1.756   7.903  19.726  0.00  0.00    +0.000 N 
ATOM      5  C   UNL     1       1.240   9.175  20.002  0.00  0.00    +0.000 A 
ATOM      6  O   UNL     1       0.745   9.436  21.090  0.00  0.00    +0.000 OA
ATOM      7  N   UNL     1       1.342   9.978  18.872  0.00  0.00    +0.000 N 
ATOM      8  N   UNL     1       1.996   9.637  17.709  0.00  0.00    +0.000 NA
ATOM      9  N   UNL     1       2.503   8.503  17.583  0.00  0.00    +0.000 NA
ATOM     10  C   UNL     1       2.370   7.581  18.555  0.00  0.00    +0.000 A 
ENDROOT
BRANCH   7  11
ATOM     11  C   UNL     1       0.855  11.308  18.847  0.00  0.00    +0.000 A 
ATOM     12  C   UNL     1       1.718  12.348  19.232  0.00  0.00    +0.000 A 
ATOM     13  C   UNL     1       1.334  13.681  19.084  0.00  0.00    +0.000 A 
ATOM     14  C   UNL     1       0.076  13.992  18.578  0.00  0.00    +0.000 A 
ATOM     15  C   UNL     1      -0.805  12.968  18.235  0.00  0.00    +0.000 A 
ATOM     16  C   UNL     1      -0.435  11.614  18.367  0.00  0.00    +0.000 A 
BRANCH  16  17
ATOM     17  C   UNL     1      -1.489  10.576  18.055  0.00  0.00    +0.000 C 
ATOM     18  F   UNL     1      -1.165   9.682  17.081  0.00  0.00    +0.000 F 
ATOM     19  F   UNL     1      -1.781   9.810  19.146  0.00  0.00    +0.000 F 
ATOM     20  F   UNL     1      -2.670  11.137  17.674  0.00  0.00    +0.000 F 
ENDBRANCH  16  17
ENDBRANCH   7  11
BRANCH   2  21
ATOM     21  C   UNL     1       2.490   4.488  20.609  0.00  0.00    +0.000 C 
ATOM     22  F   UNL     1       2.417   4.525  21.962  0.00  0.00    +0.000 F 
ATOM     23  F   UNL     1       1.533   3.604  20.219  0.00  0.00    +0.000 F 
ATOM     24  F   UNL     1       3.692   3.935  20.298  0.00  0.00    +0.000 F 
ENDBRANCH   2  21
BRANCH   1  25
ATOM     25  C   UNL     1       3.542   5.532  17.691  0.00  0.00    +0.000 C 
ATOM     26  O   UNL     1       4.602   5.930  17.238  0.00  0.00    +0.000 OA
BRANCH  25  27
ATOM     27  O   UNL     1       2.868   4.432  17.256  0.00  0.00    +0.000 OA
BRANCH  27  29
ATOM     28  C   UNL     1       2.770   2.091  17.683  0.00  0.00    +0.000 C 
ATOM     29  C   UNL     1       3.642   3.230  17.181  0.00  0.00    +0.000 C 
ENDBRANCH  27  29
ENDBRANCH  25  27
ENDBRANCH   1  25
TORSDOF 6
ENDMDL
MODEL 3
REMARK VINA RESULT:      -7.6      0.806      1.483
REMARK  Name = 
REMARK  7 active torsions:
REMARK  status: ('A' for Active; 'I' for Inactive)
REMARK    1  A    between atoms: C_1  and  C_2
REMARK    2  A    between atoms: C_2  and  O_3
REMARK    3  A    between atoms: O_3  and  C_4
REMARK    4  A    between atoms: C_4  and  C_6
REMARK    5  A    between atoms: C_7  and  C_8
REMARK    6  A    between atoms: N_16  and  C_17
REMARK    7  A    between atoms: C_22  and  C_23
REMARK                            x       y       z     vdW  Elec       q    Type
REMARK                         _______ _______ _______ _____ _____    ______ ____
ROOT
ATOM      1  C   UNL     1       2.730   6.220  18.748  0.00  0.00    +0.000 A 
ATOM      2  C   UNL     1       2.237   5.810  20.022  0.00  0.00    +0.000 A 
ATOM      3  N   UNL     1       1.628   6.842  20.652  0.00  0.00    +0.000 NA
ATOM      4  N   UNL     1       1.717   7.878  19.783  0.00  0.00    +0.000 N 
ATOM      5  C   UNL     1       1.210   9.156  20.044  0.00  0.00    +0.000 A 
ATOM      6  O   UNL     1       0.695   9.425  21.120  0.00  0.00    +0.000 OA
ATOM      7  N   UNL     1       1.345   9.954  18.914  0.00  0.00    +0.000 N 
ATOM      8  N   UNL     1       2.018   9.603  17.766  0.00  0.00    +0.000 NA
ATOM      9  N   UNL     1       2.516   8.462  17.654  0.00  0.00    +0.000 NA
ATOM     10  C   UNL     1       2.352   7.545  18.626  0.00  0.00    +0.000 A 
ENDROOT
BRANCH   7  11
ATOM     11  C   UNL     1       0.872  11.289  18.875  0.00  0.00    +0.000 A 
ATOM     12  C   UNL     1       1.749  12.323  19.244  0.00  0.00    +0.000 A 
ATOM     13  C   UNL     1       1.380  13.660  19.082  0.00  0.00    +0.000 A 
ATOM     14  C   UNL     1       0.124  13.979  18.578  0.00  0.00    +0.000 A 
ATOM     15  C   UNL     1      -0.770  12.962  18.249  0.00  0.00    +0.000 A 
ATOM     16  C   UNL     1      -0.415  11.605  18.396  0.00  0.00    +0.000 A 
BRANCH  16  17
ATOM     17  C   UNL     1      -1.482  10.576  18.100  0.00  0.00    +0.000 C 
ATOM     18  F   UNL     1      -2.674  11.070  17.665  0.00  0.00    +0.000 F 
ATOM     19  F   UNL     1      -1.090   9.709  17.121  0.00  0.00    +0.000 F 
ATOM     20  F   UNL     1      -1.768   9.801  19.182  0.00  0.00    +0.000 F 
ENDBRANCH  16  17
ENDBRANCH   7  11
BRANCH   2  21
ATOM     21  C   UNL     1       2.396   4.457  20.690  0.00  0.00    +0.000 C 
ATOM     22  F   UNL     1       3.527   3.801  20.334  0.00  0.00    +0.000 F 
ATOM     23  F   UNL     1       2.454   4.571  22.044  0.00  0.00    +0.000 F 
ATOM     24  F   UNL     1       1.358   3.627  20.407  0.00  0.00    +0.000 F 
ENDBRANCH   2  21
BRANCH   1  25
ATOM     25  C   UNL     1       3.520   5.480  17.792  0.00  0.00    +0.000 C 
ATOM     26  O   UNL     1       4.648   5.799  17.457  0.00  0.00    +0.000 OA
BRANCH  25  27
ATOM     27  O   UNL     1       2.787   4.482  17.226  0.00  0.00    +0.000 OA
BRANCH  27  29
ATOM     28  C   UNL     1       2.566   2.163  17.724  0.00  0.00    +0.000 C 
ATOM     29  C   UNL     1       3.460   3.224  17.103  0.00  0.00    +0.000 C 
ENDBRANCH  27  29
ENDBRANCH  25  27
ENDBRANCH   1  25
TORSDOF 6
ENDMDL
MODEL 4
REMARK VINA RESULT:      -7.6      2.512      6.801
REMARK  Name = 
REMARK  7 active torsions:
REMARK  status: ('A' for Active; 'I' for Inactive)
REMARK    1  A    between atoms: C_1  and  C_2
REMARK    2  A    between atoms: C_2  and  O_3
REMARK    3  A    between atoms: O_3  and  C_4
REMARK    4  A    between atoms: C_4  and  C_6
REMARK    5  A    between atoms: C_7  and  C_8
REMARK    6  A    between atoms: N_16  and  C_17
REMARK    7  A    between atoms: C_22  and  C_23
REMARK                            x       y       z     vdW  Elec       q    Type
REMARK                         _______ _______ _______ _____ _____    ______ ____
ROOT
ATOM      1  C   UNL     1       0.689   9.520  19.865  0.00  0.00    +0.000 A 
ATOM      2  C   UNL     1       0.786   9.002  21.191  0.00  0.00    +0.000 A 
ATOM      3  N   UNL     1       1.587   7.910  21.217  0.00  0.00    +0.000 NA
ATOM      4  N   UNL     1       2.003   7.756  19.937  0.00  0.00    +0.000 N 
ATOM      5  C   UNL     1       2.856   6.728  19.518  0.00  0.00    +0.000 A 
ATOM      6  O   UNL     1       3.235   5.864  20.294  0.00  0.00    +0.000 OA
ATOM      7  N   UNL     1       3.196   6.917  18.183  0.00  0.00    +0.000 N 
ATOM      8  N   UNL     1       2.654   7.870  17.350  0.00  0.00    +0.000 NA
ATOM      9  N   UNL     1       1.830   8.697  17.794  0.00  0.00    +0.000 NA
ATOM     10  C   UNL     1       1.505   8.706  19.100  0.00  0.00    +0.000 A 
ENDROOT
BRANCH   7  11
ATOM     11  C   UNL     1       4.088   6.051  17.504  0.00  0.00    +0.000 A 
ATOM     12  C   UNL     1       5.344   6.549  17.116  0.00  0.00    +0.000 A 
ATOM     13  C   UNL     1       6.311   5.698  16.579  0.00  0.00    +0.000 A 
ATOM     14  C   UNL     1       6.026   4.349  16.396  0.00  0.00    +0.000 A 
ATOM     15  C   UNL     1       4.769   3.853  16.736  0.00  0.00    +0.000 A 
ATOM     16  C   UNL     1       3.780   4.692  17.289  0.00  0.00    +0.000 A 
BRANCH  16  17
ATOM     17  C   UNL     1       2.419   4.085  17.541  0.00  0.00    +0.000 C 
ATOM     18  F   UNL     1       2.116   2.987  16.795  0.00  0.00    +0.000 F 
ATOM     19  F   UNL     1       2.283   3.672  18.835  0.00  0.00    +0.000 F 
ATOM     20  F   UNL     1       1.409   4.973  17.332  0.00  0.00    +0.000 F 
ENDBRANCH  16  17
ENDBRANCH   7  11
BRANCH   2  21
ATOM     21  C   UNL     1       0.069   9.489  22.435  0.00  0.00    +0.000 C 
ATOM     22  F   UNL     1      -0.328  10.784  22.366  0.00  0.00    +0.000 F 
ATOM     23  F   UNL     1      -1.065   8.776  22.671  0.00  0.00    +0.000 F 
ATOM     24  F   UNL     1       0.845   9.377  23.544  0.00  0.00    +0.000 F 
ENDBRANCH   2  21
BRANCH   1  25
ATOM     25  C   UNL     1      -0.124  10.604  19.364  0.00  0.00    +0.000 C 
ATOM     26  O   UNL     1       0.214  11.774  19.401  0.00  0.00    +0.000 OA
BRANCH  25  27
ATOM     27  O   UNL     1      -1.351  10.154  18.985  0.00  0.00    +0.000 OA
BRANCH  27  29
ATOM     28  C   UNL     1      -3.050   9.781  17.357  0.00  0.00    +0.000 C 
ATOM     29  C   UNL     1      -1.589  10.140  17.573  0.00  0.00    +0.000 C 
ENDBRANCH  27  29
ENDBRANCH  25  27
ENDBRANCH   1  25
TORSDOF 6
ENDMDL
MODEL 5
REMARK VINA RESULT:      -7.5      1.950      3.028
REMARK  Name = 
REMARK  7 active torsions:
REMARK  status: ('A' for Active; 'I' for Inactive)
REMARK    1  A    between atoms: C_1  and  C_2
REMARK    2  A    between atoms: C_2  and  O_3
REMARK    3  A    between atoms: O_3  and  C_4
REMARK    4  A    between atoms: C_4  and  C_6
REMARK    5  A    between atoms: C_7  and  C_8
REMARK    6  A    between atoms: N_16  and  C_17
REMARK    7  A    between atoms: C_22  and  C_23
REMARK                            x       y       z     vdW  Elec       q    Type
REMARK                         _______ _______ _______ _____ _____    ______ ____
ROOT
ATOM      1  C   UNL     1       2.287   6.021  19.801  0.00  0.00    +0.000 A 
ATOM      2  C   UNL     1       3.085   5.977  18.618  0.00  0.00    +0.000 A 
ATOM      3  N   UNL     1       3.021   7.157  17.958  0.00  0.00    +0.000 NA
ATOM      4  N   UNL     1       2.215   7.936  18.719  0.00  0.00    +0.000 N 
ATOM      5  C   UNL     1       1.876   9.254  18.392  0.00  0.00    +0.000 A 
ATOM      6  O   UNL     1       2.255   9.765  17.347  0.00  0.00    +0.000 OA
ATOM      7  N   UNL     1       1.144   9.821  19.429  0.00  0.00    +0.000 N 
ATOM      8  N   UNL     1       0.680   9.149  20.537  0.00  0.00    +0.000 NA
ATOM      9  N   UNL     1       0.963   7.943  20.705  0.00  0.00    +0.000 NA
ATOM     10  C   UNL     1       1.769   7.303  19.838  0.00  0.00    +0.000 A 
ENDROOT
BRANCH   7  11
ATOM     11  C   UNL     1       0.705  11.167  19.391  0.00  0.00    +0.000 A 
ATOM     12  C   UNL     1       1.500  12.151  20.003  0.00  0.00    +0.000 A 
ATOM     13  C   UNL     1       1.187  13.504  19.866  0.00  0.00    +0.000 A 
ATOM     14  C   UNL     1       0.063  13.889  19.143  0.00  0.00    +0.000 A 
ATOM     15  C   UNL     1      -0.758  12.920  18.569  0.00  0.00    +0.000 A 
ATOM     16  C   UNL     1      -0.456  11.547  18.687  0.00  0.00    +0.000 A 
BRANCH  16  17
ATOM     17  C   UNL     1      -1.452  10.569  18.109  0.00  0.00    +0.000 C 
ATOM     18  F   UNL     1      -2.012   9.703  18.999  0.00  0.00    +0.000 F 
ATOM     19  F   UNL     1      -2.512  11.208  17.534  0.00  0.00    +0.000 F 
ATOM     20  F   UNL     1      -0.910   9.799  17.125  0.00  0.00    +0.000 F 
ENDBRANCH  16  17
ENDBRANCH   7  11
BRANCH   2  21
ATOM     21  C   UNL     1       3.861   4.798  18.063  0.00  0.00    +0.000 C 
ATOM     22  F   UNL     1       4.369   3.979  19.017  0.00  0.00    +0.000 F 
ATOM     23  F   UNL     1       3.077   4.005  17.284  0.00  0.00    +0.000 F 
ATOM     24  F   UNL     1       4.908   5.198  17.295  0.00  0.00    +0.000 F 
ENDBRANCH   2  21
BRANCH   1  25
ATOM     25  C   UNL     1       1.991   4.967  20.743  0.00  0.00    +0.000 C 
ATOM     26  O   UNL     1       2.695   4.699  21.700  0.00  0.00    +0.000 OA
BRANCH  25  27
ATOM     27  O   UNL     1       0.913   4.241  20.336  0.00  0.00    +0.000 OA
BRANCH  27  29
ATOM     28  C   UNL     1       0.753   2.408  18.824  0.00  0.00    +0.000 C 
ATOM     29  C   UNL     1       1.128   2.829  20.235  0.00  0.00    +0.000 C 
ENDBRANCH  27  29
ENDBRANCH  25  27
ENDBRANCH   1  25
TORSDOF 6
ENDMDL
MODEL 6
REMARK VINA RESULT:      -7.5      2.513      6.843
REMARK  Name = 
REMARK  7 active torsions:
REMARK  status: ('A' for Active; 'I' for Inactive)
REMARK    1  A    between atoms: C_1  and  C_2
REMARK    2  A    between atoms: C_2  and  O_3
REMARK    3  A    between atoms: O_3  and  C_4
REMARK    4  A    between atoms: C_4  and  C_6
REMARK    5  A    between atoms: C_7  and  C_8
REMARK    6  A    between atoms: N_16  and  C_17
REMARK    7  A    between atoms: C_22  and  C_23
REMARK                            x       y       z     vdW  Elec       q    Type
REMARK                         _______ _______ _______ _____ _____    ______ ____
ROOT
ATOM      1  C   UNL     1       0.649   9.607  19.979  0.00  0.00    +0.000 A 
ATOM      2  C   UNL     1       0.763   9.099  21.308  0.00  0.00    +0.000 A 
ATOM      3  N   UNL     1       1.540   7.991  21.329  0.00  0.00    +0.000 NA
ATOM      4  N   UNL     1       1.925   7.814  20.041  0.00  0.00    +0.000 N 
ATOM      5  C   UNL     1       2.746   6.764  19.614  0.00  0.00    +0.000 A 
ATOM      6  O   UNL     1       3.123   5.899  20.392  0.00  0.00    +0.000 OA
ATOM      7  N   UNL     1       3.061   6.932  18.271  0.00  0.00    +0.000 N 
ATOM      8  N   UNL     1       2.523   7.888  17.439  0.00  0.00    +0.000 NA
ATOM      9  N   UNL     1       1.727   8.738  17.892  0.00  0.00    +0.000 NA
ATOM     10  C   UNL     1       1.431   8.767  19.205  0.00  0.00    +0.000 A 
ENDROOT
BRANCH   7  11
ATOM     11  C   UNL     1       3.919   6.040  17.582  0.00  0.00    +0.000 A 
ATOM     12  C   UNL     1       5.181   6.502  17.172  0.00  0.00    +0.000 A 
ATOM     13  C   UNL     1       6.117   5.623  16.624  0.00  0.00    +0.000 A 
ATOM     14  C   UNL     1       5.793   4.282  16.451  0.00  0.00    +0.000 A 
ATOM     15  C   UNL     1       4.529   3.821  16.813  0.00  0.00    +0.000 A 
ATOM     16  C   UNL     1       3.572   4.689  17.378  0.00  0.00    +0.000 A 
BRANCH  16  17
ATOM     17  C   UNL     1       2.200   4.118  17.654  0.00  0.00    +0.000 C 
ATOM     18  F   UNL     1       1.913   3.878  18.964  0.00  0.00    +0.000 F 
ATOM     19  F   UNL     1       1.210   4.958  17.232  0.00  0.00    +0.000 F 
ATOM     20  F   UNL     1       1.987   2.943  17.001  0.00  0.00    +0.000 F 
ENDBRANCH  16  17
ENDBRANCH   7  11
BRANCH   2  21
ATOM     21  C   UNL     1       0.084   9.615  22.562  0.00  0.00    +0.000 C 
ATOM     22  F   UNL     1      -1.120   9.041  22.808  0.00  0.00    +0.000 F 
ATOM     23  F   UNL     1       0.833   9.374  23.672  0.00  0.00    +0.000 F 
ATOM     24  F   UNL     1      -0.127  10.956  22.509  0.00  0.00    +0.000 F 
ENDBRANCH   2  21
BRANCH   1  25
ATOM     25  C   UNL     1      -0.150  10.703  19.484  0.00  0.00    +0.000 C 
ATOM     26  O   UNL     1       0.207  11.868  19.517  0.00  0.00    +0.000 OA
BRANCH  25  27
ATOM     27  O   UNL     1      -1.389  10.273  19.117  0.00  0.00    +0.000 OA
BRANCH  27  29
ATOM     28  C   UNL     1      -2.688   9.863  17.163  0.00  0.00    +0.000 C 
ATOM     29  C   UNL     1      -1.944  10.918  17.965  0.00  0.00    +0.000 C 
ENDBRANCH  27  29
ENDBRANCH  25  27
ENDBRANCH   1  25
TORSDOF 6
ENDMDL
MODEL 7
REMARK VINA RESULT:      -7.3      2.342      6.755
REMARK  Name = 
REMARK  7 active torsions:
REMARK  status: ('A' for Active; 'I' for Inactive)
REMARK    1  A    between atoms: C_1  and  C_2
REMARK    2  A    between atoms: C_2  and  O_3
REMARK    3  A    between atoms: O_3  and  C_4
REMARK    4  A    between atoms: C_4  and  C_6
REMARK    5  A    between atoms: C_7  and  C_8
REMARK    6  A    between atoms: N_16  and  C_17
REMARK    7  A    between atoms: C_22  and  C_23
REMARK                            x       y       z     vdW  Elec       q    Type
REMARK                         _______ _______ _______ _____ _____    ______ ____
ROOT
ATOM      1  C   UNL     1       0.637   9.534  19.820  0.00  0.00    +0.000 A 
ATOM      2  C   UNL     1       0.726   9.004  21.142  0.00  0.00    +0.000 A 
ATOM      3  N   UNL     1       1.541   7.923  21.166  0.00  0.00    +0.000 NA
ATOM      4  N   UNL     1       1.973   7.787  19.889  0.00  0.00    +0.000 N 
ATOM      5  C   UNL     1       2.845   6.775  19.469  0.00  0.00    +0.000 A 
ATOM      6  O   UNL     1       3.227   5.908  20.242  0.00  0.00    +0.000 OA
ATOM      7  N   UNL     1       3.197   6.982  18.140  0.00  0.00    +0.000 N 
ATOM      8  N   UNL     1       2.652   7.935  17.310  0.00  0.00    +0.000 NA
ATOM      9  N   UNL     1       1.812   8.748  17.754  0.00  0.00    +0.000 NA
ATOM     10  C   UNL     1       1.472   8.739  19.056  0.00  0.00    +0.000 A 
ENDROOT
BRANCH   7  11
ATOM     11  C   UNL     1       4.108   6.135  17.463  0.00  0.00    +0.000 A 
ATOM     12  C   UNL     1       5.352   6.661  17.073  0.00  0.00    +0.000 A 
ATOM     13  C   UNL     1       6.338   5.830  16.537  0.00  0.00    +0.000 A 
ATOM     14  C   UNL     1       6.084   4.475  16.357  0.00  0.00    +0.000 A 
ATOM     15  C   UNL     1       4.838   3.951  16.699  0.00  0.00    +0.000 A 
ATOM     16  C   UNL     1       3.831   4.769  17.251  0.00  0.00    +0.000 A 
BRANCH  16  17
ATOM     17  C   UNL     1       2.484   4.131  17.505  0.00  0.00    +0.000 C 
ATOM     18  F   UNL     1       1.407   4.950  17.359  0.00  0.00    +0.000 F 
ATOM     19  F   UNL     1       2.249   3.092  16.652  0.00  0.00    +0.000 F 
ATOM     20  F   UNL     1       2.390   3.605  18.758  0.00  0.00    +0.000 F 
ENDBRANCH  16  17
ENDBRANCH   7  11
BRANCH   2  21
ATOM     21  C   UNL     1      -0.012   9.469  22.383  0.00  0.00    +0.000 C 
ATOM     22  F   UNL     1      -1.050   8.671  22.733  0.00  0.00    +0.000 F 
ATOM     23  F   UNL     1       0.806   9.497  23.469  0.00  0.00    +0.000 F 
ATOM     24  F   UNL     1      -0.515  10.722  22.233  0.00  0.00    +0.000 F 
ENDBRANCH   2  21
BRANCH   1  25
ATOM     25  C   UNL     1      -0.185  10.611  19.321  0.00  0.00    +0.000 C 
ATOM     26  O   UNL     1      -1.375  10.499  19.083  0.00  0.00    +0.000 OA
BRANCH  25  27
ATOM     27  O   UNL     1       0.572  11.704  19.026  0.00  0.00    +0.000 OA
BRANCH  27  29
ATOM     28  C   UNL     1       1.445  13.076  20.766  0.00  0.00    +0.000 C 
ATOM     29  C   UNL     1       0.288  12.873  19.801  0.00  0.00    +0.000 C 
ENDBRANCH  27  29
ENDBRANCH  25  27
ENDBRANCH   1  25
TORSDOF 6
ENDMDL
MODEL 8
REMARK VINA RESULT:      -7.3      2.130      7.293
REMARK  Name = 
REMARK  7 active torsions:
REMARK  status: ('A' for Active; 'I' for Inactive)
REMARK    1  A    between atoms: C_1  and  C_2
REMARK    2  A    between atoms: C_2  and  O_3
REMARK    3  A    between atoms: O_3  and  C_4
REMARK    4  A    between atoms: C_4  and  C_6
REMARK    5  A    between atoms: C_7  and  C_8
REMARK    6  A    between atoms: N_16  and  C_17
REMARK    7  A    between atoms: C_22  and  C_23
REMARK                            x       y       z     vdW  Elec       q    Type
REMARK                         _______ _______ _______ _____ _____    ______ ____
ROOT
ATOM      1  C   UNL     1       0.334   9.436  20.495  0.00  0.00    +0.000 A 
ATOM      2  C   UNL     1       0.122  10.333  19.406  0.00  0.00    +0.000 A 
ATOM      3  N   UNL     1       0.885   9.982  18.345  0.00  0.00    +0.000 NA
ATOM      4  N   UNL     1       1.551   8.873  18.750  0.00  0.00    +0.000 N 
ATOM      5  C   UNL     1       2.464   8.180  17.947  0.00  0.00    +0.000 A 
ATOM      6  O   UNL     1       2.756   8.581  16.830  0.00  0.00    +0.000 OA
ATOM      7  N   UNL     1       2.877   7.023  18.599  0.00  0.00    +0.000 N 
ATOM      8  N   UNL     1       2.569   6.687  19.898  0.00  0.00    +0.000 NA
ATOM      9  N   UNL     1       1.809   7.415  20.571  0.00  0.00    +0.000 NA
ATOM     10  C   UNL     1       1.238   8.502  20.022  0.00  0.00    +0.000 A 
ENDROOT
BRANCH   7  11
ATOM     11  C   UNL     1       3.769   6.100  18.000  0.00  0.00    +0.000 A 
ATOM     12  C   UNL     1       5.088   6.510  17.742  0.00  0.00    +0.000 A 
ATOM     13  C   UNL     1       6.041   5.596  17.292  0.00  0.00    +0.000 A 
ATOM     14  C   UNL     1       5.683   4.271  17.066  0.00  0.00    +0.000 A 
ATOM     15  C   UNL     1       4.367   3.863  17.276  0.00  0.00    +0.000 A 
ATOM     16  C   UNL     1       3.390   4.767  17.740  0.00  0.00    +0.000 A 
BRANCH  16  17
ATOM     17  C   UNL     1       1.972   4.255  17.851  0.00  0.00    +0.000 C 
ATOM     18  F   UNL     1       1.019   5.022  17.253  0.00  0.00    +0.000 F 
ATOM     19  F   UNL     1       1.834   3.023  17.280  0.00  0.00    +0.000 F 
ATOM     20  F   UNL     1       1.577   4.105  19.145  0.00  0.00    +0.000 F 
ENDBRANCH  16  17
ENDBRANCH   7  11
BRANCH   2  21
ATOM     21  C   UNL     1      -0.752  11.573  19.378  0.00  0.00    +0.000 C 
ATOM     22  F   UNL     1      -1.952  11.410  19.990  0.00  0.00    +0.000 F 
ATOM     23  F   UNL     1      -0.159  12.618  20.015  0.00  0.00    +0.000 F 
ATOM     24  F   UNL     1      -1.014  11.979  18.108  0.00  0.00    +0.000 F 
ENDBRANCH   2  21
BRANCH   1  25
ATOM     25  C   UNL     1      -0.193   9.489  21.839  0.00  0.00    +0.000 C 
ATOM     26  O   UNL     1      -0.807   8.575  22.361  0.00  0.00    +0.000 OA
BRANCH  25  27
ATOM     27  O   UNL     1      -0.033  10.731  22.374  0.00  0.00    +0.000 OA
BRANCH  27  29
ATOM     28  C   UNL     1      -1.148  12.740  23.001  0.00  0.00    +0.000 C 
ATOM     29  C   UNL     1      -1.152  11.225  23.119  0.00  0.00    +0.000 C 
ENDBRANCH  27  29
ENDBRANCH  25  27
ENDBRANCH   1  25
TORSDOF 6
ENDMDL
MODEL 9
REMARK VINA RESULT:      -7.2      0.979      1.147
REMARK  Name = 
REMARK  7 active torsions:
REMARK  status: ('A' for Active; 'I' for Inactive)
REMARK    1  A    between atoms: C_1  and  C_2
REMARK    2  A    between atoms: C_2  and  O_3
REMARK    3  A    between atoms: O_3  and  C_4
REMARK    4  A    between atoms: C_4  and  C_6
REMARK    5  A    between atoms: C_7  and  C_8
REMARK    6  A    between atoms: N_16  and  C_17
REMARK    7  A    between atoms: C_22  and  C_23
REMARK                            x       y       z     vdW  Elec       q    Type
REMARK                         _______ _______ _______ _____ _____    ______ ____
ROOT
ATOM      1  C   UNL     1       3.511   6.595  18.115  0.00  0.00    +0.000 A 
ATOM      2  C   UNL     1       3.034   5.842  19.229  0.00  0.00    +0.000 A 
ATOM      3  N   UNL     1       2.177   6.581  19.972  0.00  0.00    +0.000 NA
ATOM      4  N   UNL     1       2.100   7.770  19.327  0.00  0.00    +0.000 N 
ATOM      5  C   UNL     1       1.313   8.842  19.768  0.00  0.00    +0.000 A 
ATOM      6  O   UNL     1       0.683   8.776  20.814  0.00  0.00    +0.000 OA
ATOM      7  N   UNL     1       1.348   9.866  18.829  0.00  0.00    +0.000 N 
ATOM      8  N   UNL     1       2.156   9.899  17.715  0.00  0.00    +0.000 NA
ATOM      9  N   UNL     1       2.893   8.927  17.445  0.00  0.00    +0.000 NA
ATOM     10  C   UNL     1       2.866   7.816  18.204  0.00  0.00    +0.000 A 
ENDROOT
BRANCH   7  11
ATOM     11  C   UNL     1       0.603  11.061  18.990  0.00  0.00    +0.000 A 
ATOM     12  C   UNL     1       1.160  12.101  19.754  0.00  0.00    +0.000 A 
ATOM     13  C   UNL     1       0.534  13.347  19.820  0.00  0.00    +0.000 A 
ATOM     14  C   UNL     1      -0.666  13.559  19.150  0.00  0.00    +0.000 A 
ATOM     15  C   UNL     1      -1.249  12.521  18.426  0.00  0.00    +0.000 A 
ATOM     16  C   UNL     1      -0.630  11.257  18.337  0.00  0.00    +0.000 A 
BRANCH  16  17
ATOM     17  C   UNL     1      -1.382  10.169  17.605  0.00  0.00    +0.000 C 
ATOM     18  F   UNL     1      -0.619   9.156  17.110  0.00  0.00    +0.000 F 
ATOM     19  F   UNL     1      -2.293   9.554  18.414  0.00  0.00    +0.000 F 
ATOM     20  F   UNL     1      -2.096  10.653  16.552  0.00  0.00    +0.000 F 
ENDBRANCH  16  17
ENDBRANCH   7  11
BRANCH   2  21
ATOM     21  C   UNL     1       3.436   4.439  19.644  0.00  0.00    +0.000 C 
ATOM     22  F   UNL     1       3.076   3.481  18.754  0.00  0.00    +0.000 F 
ATOM     23  F   UNL     1       4.785   4.323  19.775  0.00  0.00    +0.000 F 
ATOM     24  F   UNL     1       2.889   4.087  20.837  0.00  0.00    +0.000 F 
ENDBRANCH   2  21
BRANCH   1  25
ATOM     25  C   UNL     1       4.503   6.239  17.128  0.00  0.00    +0.000 C 
ATOM     26  O   UNL     1       4.395   5.286  16.375  0.00  0.00    +0.000 OA
BRANCH  25  27
ATOM     27  O   UNL     1       5.613   7.017  17.253  0.00  0.00    +0.000 OA
BRANCH  27  29
ATOM     28  C   UNL     1       7.574   6.305  18.402  0.00  0.00    +0.000 C 
ATOM     29  C   UNL     1       6.860   6.339  17.061  0.00  0.00    +0.000 C 
ENDBRANCH  27  29
ENDBRANCH  25  27
ENDBRANCH   1  25
TORSDOF 6
ENDMDL
