MODEL 1
REMARK VINA RESULT:      -8.0      0.000      0.000
REMARK  Name = 
REMARK  5 active torsions:
REMARK  status: ('A' for Active; 'I' for Inactive)
REMARK    1  A    between atoms: C_2  and  C_3
REMARK    2  A    between atoms: C_3  and  O_4
REMARK    3  A    between atoms: O_4  and  C_5
REMARK    4  A    between atoms: C_5  and  C_7
REMARK    5  A    between atoms: N_14  and  C_15
REMARK                            x       y       z     vdW  Elec       q    Type
REMARK                         _______ _______ _______ _____ _____    ______ ____
ROOT
ATOM      1  O   UNL     1       4.640   7.068  15.824  0.00  0.00    +0.000 OA
ATOM      2  C   UNL     1       5.108   6.698  16.897  0.00  0.00    +0.000 C 
ATOM      3  N   UNL     1       4.348   6.151  17.908  0.00  0.00    +0.000 N 
ATOM      4  H   UNL     1       4.808   5.888  18.771  0.00  0.00    +0.000 HD
ENDROOT
BRANCH   3   5
ATOM      5  C   UNL     1       2.897   6.053  17.843  0.00  0.00    +0.000 C 
ATOM      6  C   UNL     1       2.235   7.156  18.686  0.00  0.00    +0.000 C 
ATOM      7  C   UNL     1       2.339   6.837  20.175  0.00  0.00    +0.000 C 
ATOM      8  C   UNL     1       1.560   5.563  20.489  0.00  0.00    +0.000 C 
ATOM      9  C   UNL     1       1.870   4.434  19.539  0.00  0.00    +0.000 A 
ATOM     10  C   UNL     1       1.490   3.130  19.896  0.00  0.00    +0.000 A 
ATOM     11  C   UNL     1       1.726   2.061  19.035  0.00  0.00    +0.000 A 
ATOM     12  C   UNL     1       2.336   2.280  17.804  0.00  0.00    +0.000 A 
ATOM     13  C   UNL     1       2.705   3.572  17.430  0.00  0.00    +0.000 A 
ATOM     14  C   UNL     1       2.469   4.664  18.284  0.00  0.00    +0.000 A 
ENDBRANCH   3   5
BRANCH   2  15
ATOM     15  C   UNL     1       6.609   6.720  17.190  0.00  0.00    +0.000 C 
BRANCH  15  16
ATOM     16  O   UNL     1       7.405   6.365  16.054  0.00  0.00    +0.000 OA
BRANCH  16  17
ATOM     17  C   UNL     1       7.541   5.034  15.857  0.00  0.00    +0.000 C 
ATOM     18  O   UNL     1       7.921   4.223  16.686  0.00  0.00    +0.000 OA
BRANCH  17  19
ATOM     19  C   UNL     1       7.042   4.631  14.533  0.00  0.00    +0.000 A 
ATOM     20  C   UNL     1       5.900   3.820  14.497  0.00  0.00    +0.000 A 
ATOM     21  C   UNL     1       5.397   3.388  13.272  0.00  0.00    +0.000 A 
ATOM     22  C   UNL     1       6.056   3.779  12.121  0.00  0.00    +0.000 A 
ATOM     23  N   UNL     1       7.165   4.551  12.120  0.00  0.00    +0.000 NA
ATOM     24  C   UNL     1       7.641   4.955  13.325  0.00  0.00    +0.000 A 
ATOM     25 CL   UNL     1       9.108   5.840  13.162  0.00  0.00    +0.000 Cl
ENDBRANCH  17  19
ENDBRANCH  16  17
ENDBRANCH  15  16
ENDBRANCH   2  15
TORSDOF 5
ENDMDL
MODEL 2
REMARK VINA RESULT:      -7.8      1.352      1.611
REMARK  Name = 
REMARK  5 active torsions:
REMARK  status: ('A' for Active; 'I' for Inactive)
REMARK    1  A    between atoms: C_2  and  C_3
REMARK    2  A    between atoms: C_3  and  O_4
REMARK    3  A    between atoms: O_4  and  C_5
REMARK    4  A    between atoms: C_5  and  C_7
REMARK    5  A    between atoms: N_14  and  C_15
REMARK                            x       y       z     vdW  Elec       q    Type
REMARK                         _______ _______ _______ _____ _____    ______ ____
ROOT
ATOM      1  O   UNL     1       4.588   6.918  15.971  0.00  0.00    +0.000 OA
ATOM      2  C   UNL     1       5.040   6.676  17.087  0.00  0.00    +0.000 C 
ATOM      3  N   UNL     1       4.268   6.225  18.137  0.00  0.00    +0.000 N 
ATOM      4  H   UNL     1       4.715   6.067  19.032  0.00  0.00    +0.000 HD
ENDROOT
BRANCH   3   5
ATOM      5  C   UNL     1       2.821   6.091  18.055  0.00  0.00    +0.000 C 
ATOM      6  C   UNL     1       2.123   7.375  18.530  0.00  0.00    +0.000 C 
ATOM      7  C   UNL     1       2.175   7.489  20.051  0.00  0.00    +0.000 C 
ATOM      8  C   UNL     1       1.393   6.344  20.686  0.00  0.00    +0.000 C 
ATOM      9  C   UNL     1       1.743   4.998  20.103  0.00  0.00    +0.000 A 
ATOM     10  C   UNL     1       1.358   3.842  20.800  0.00  0.00    +0.000 A 
ATOM     11  C   UNL     1       1.632   2.577  20.283  0.00  0.00    +0.000 A 
ATOM     12  C   UNL     1       2.284   2.451  19.061  0.00  0.00    +0.000 A 
ATOM     13  C   UNL     1       2.658   3.591  18.351  0.00  0.00    +0.000 A 
ATOM     14  C   UNL     1       2.386   4.875  18.855  0.00  0.00    +0.000 A 
ENDBRANCH   3   5
BRANCH   2  15
ATOM     15  C   UNL     1       6.534   6.761  17.406  0.00  0.00    +0.000 C 
BRANCH  15  16
ATOM     16  O   UNL     1       7.363   6.445  16.282  0.00  0.00    +0.000 OA
BRANCH  16  17
ATOM     17  C   UNL     1       7.573   5.123  16.094  0.00  0.00    +0.000 C 
ATOM     18  O   UNL     1       7.984   4.336  16.933  0.00  0.00    +0.000 OA
BRANCH  17  19
ATOM     19  C   UNL     1       7.117   4.688  14.765  0.00  0.00    +0.000 A 
ATOM     20  C   UNL     1       7.872   5.102  13.659  0.00  0.00    +0.000 A 
ATOM     21  C   UNL     1       7.474   4.739  12.374  0.00  0.00    +0.000 A 
ATOM     22  C   UNL     1       6.329   3.976  12.237  0.00  0.00    +0.000 A 
ATOM     23  N   UNL     1       5.572   3.569  13.280  0.00  0.00    +0.000 NA
ATOM     24  C   UNL     1       5.975   3.939  14.522  0.00  0.00    +0.000 A 
ATOM     25 CL   UNL     1       4.857   3.433  15.728  0.00  0.00    +0.000 Cl
ENDBRANCH  17  19
ENDBRANCH  16  17
ENDBRANCH  15  16
ENDBRANCH   2  15
TORSDOF 5
ENDMDL
MODEL 3
REMARK VINA RESULT:      -7.4      4.622      8.175
REMARK  Name = 
REMARK  5 active torsions:
REMARK  status: ('A' for Active; 'I' for Inactive)
REMARK    1  A    between atoms: C_2  and  C_3
REMARK    2  A    between atoms: C_3  and  O_4
REMARK    3  A    between atoms: O_4  and  C_5
REMARK    4  A    between atoms: C_5  and  C_7
REMARK    5  A    between atoms: N_14  and  C_15
REMARK                            x       y       z     vdW  Elec       q    Type
REMARK                         _______ _______ _______ _____ _____    ______ ____
ROOT
ATOM      1  O   UNL     1       2.223   7.868  20.025  0.00  0.00    +0.000 OA
ATOM      2  C   UNL     1       2.288   7.912  18.800  0.00  0.00    +0.000 C 
ATOM      3  N   UNL     1       2.953   6.973  18.041  0.00  0.00    +0.000 N 
ATOM      4  H   UNL     1       2.976   7.092  17.035  0.00  0.00    +0.000 HD
ENDROOT
BRANCH   3   5
ATOM      5  C   UNL     1       3.732   5.891  18.625  0.00  0.00    +0.000 C 
ATOM      6  C   UNL     1       5.075   5.725  17.895  0.00  0.00    +0.000 C 
ATOM      7  C   UNL     1       4.876   5.050  16.540  0.00  0.00    +0.000 C 
ATOM      8  C   UNL     1       4.345   3.634  16.738  0.00  0.00    +0.000 C 
ATOM      9  C   UNL     1       3.182   3.570  17.696  0.00  0.00    +0.000 A 
ATOM     10  C   UNL     1       2.393   2.409  17.720  0.00  0.00    +0.000 A 
ATOM     11  C   UNL     1       1.328   2.292  18.612  0.00  0.00    +0.000 A 
ATOM     12  C   UNL     1       1.044   3.328  19.495  0.00  0.00    +0.000 A 
ATOM     13  C   UNL     1       1.828   4.481  19.492  0.00  0.00    +0.000 A 
ATOM     14  C   UNL     1       2.910   4.614  18.603  0.00  0.00    +0.000 A 
ENDBRANCH   3   5
BRANCH   2  15
ATOM     15  C   UNL     1       1.554   8.971  17.975  0.00  0.00    +0.000 C 
BRANCH  15  16
ATOM     16  O   UNL     1       1.268  10.159  18.721  0.00  0.00    +0.000 OA
BRANCH  16  17
ATOM     17  C   UNL     1      -0.029  10.302  19.074  0.00  0.00    +0.000 C 
ATOM     18  O   UNL     1      -0.984  10.299  18.311  0.00  0.00    +0.000 OA
BRANCH  17  19
ATOM     19  C   UNL     1      -0.190  10.334  20.535  0.00  0.00    +0.000 A 
ATOM     20  C   UNL     1      -0.392   9.108  21.185  0.00  0.00    +0.000 A 
ATOM     21  C   UNL     1      -0.575   9.080  22.566  0.00  0.00    +0.000 A 
ATOM     22  C   UNL     1      -0.553  10.280  23.253  0.00  0.00    +0.000 A 
ATOM     23  N   UNL     1      -0.372  11.479  22.656  0.00  0.00    +0.000 NA
ATOM     24  C   UNL     1      -0.202  11.484  21.310  0.00  0.00    +0.000 A 
ATOM     25 CL   UNL     1      -0.087  13.086  20.692  0.00  0.00    +0.000 Cl
ENDBRANCH  17  19
ENDBRANCH  16  17
ENDBRANCH  15  16
ENDBRANCH   2  15
TORSDOF 5
ENDMDL
MODEL 4
REMARK VINA RESULT:      -7.4      5.248      8.123
REMARK  Name = 
REMARK  5 active torsions:
REMARK  status: ('A' for Active; 'I' for Inactive)
REMARK    1  A    between atoms: C_2  and  C_3
REMARK    2  A    between atoms: C_3  and  O_4
REMARK    3  A    between atoms: O_4  and  C_5
REMARK    4  A    between atoms: C_5  and  C_7
REMARK    5  A    between atoms: N_14  and  C_15
REMARK                            x       y       z     vdW  Elec       q    Type
REMARK                         _______ _______ _______ _____ _____    ______ ____
ROOT
ATOM      1  O   UNL     1       2.029   7.839  20.452  0.00  0.00    +0.000 OA
ATOM      2  C   UNL     1       2.104   7.939  19.231  0.00  0.00    +0.000 C 
ATOM      3  N   UNL     1       2.760   7.026  18.433  0.00  0.00    +0.000 N 
ATOM      4  H   UNL     1       2.792   7.191  17.434  0.00  0.00    +0.000 HD
ENDROOT
BRANCH   3   5
ATOM      5  C   UNL     1       3.520   5.908  18.971  0.00  0.00    +0.000 C 
ATOM      6  C   UNL     1       4.851   5.737  18.221  0.00  0.00    +0.000 C 
ATOM      7  C   UNL     1       4.623   5.113  16.847  0.00  0.00    +0.000 C 
ATOM      8  C   UNL     1       4.061   3.703  17.002  0.00  0.00    +0.000 C 
ATOM      9  C   UNL     1       2.907   3.633  17.970  0.00  0.00    +0.000 A 
ATOM     10  C   UNL     1       2.091   2.490  17.964  0.00  0.00    +0.000 A 
ATOM     11  C   UNL     1       1.033   2.367  18.863  0.00  0.00    +0.000 A 
ATOM     12  C   UNL     1       0.783   3.379  19.784  0.00  0.00    +0.000 A 
ATOM     13  C   UNL     1       1.594   4.513  19.811  0.00  0.00    +0.000 A 
ATOM     14  C   UNL     1       2.669   4.651  18.915  0.00  0.00    +0.000 A 
ENDBRANCH   3   5
BRANCH   2  15
ATOM     15  C   UNL     1       1.390   9.045  18.451  0.00  0.00    +0.000 C 
BRANCH  15  16
ATOM     16  O   UNL     1       0.326   9.652  19.192  0.00  0.00    +0.000 OA
BRANCH  16  17
ATOM     17  C   UNL     1      -0.059  10.864  18.731  0.00  0.00    +0.000 C 
ATOM     18  O   UNL     1       0.658  11.844  18.605  0.00  0.00    +0.000 OA
BRANCH  17  19
ATOM     19  C   UNL     1      -1.451  10.842  18.257  0.00  0.00    +0.000 A 
ATOM     20  C   UNL     1      -1.752   9.987  17.188  0.00  0.00    +0.000 A 
ATOM     21  C   UNL     1      -3.049   9.943  16.681  0.00  0.00    +0.000 A 
ATOM     22  C   UNL     1      -4.004  10.759  17.258  0.00  0.00    +0.000 A 
ATOM     23  N   UNL     1      -3.745  11.603  18.282  0.00  0.00    +0.000 NA
ATOM     24  C   UNL     1      -2.474  11.634  18.756  0.00  0.00    +0.000 A 
ATOM     25 CL   UNL     1      -2.284  12.826  19.983  0.00  0.00    +0.000 Cl
ENDBRANCH  17  19
ENDBRANCH  16  17
ENDBRANCH  15  16
ENDBRANCH   2  15
TORSDOF 5
ENDMDL
MODEL 5
REMARK VINA RESULT:      -7.2      4.947      8.455
REMARK  Name = 
REMARK  5 active torsions:
REMARK  status: ('A' for Active; 'I' for Inactive)
REMARK    1  A    between atoms: C_2  and  C_3
REMARK    2  A    between atoms: C_3  and  O_4
REMARK    3  A    between atoms: O_4  and  C_5
REMARK    4  A    between atoms: C_5  and  C_7
REMARK    5  A    between atoms: N_14  and  C_15
REMARK                            x       y       z     vdW  Elec       q    Type
REMARK                         _______ _______ _______ _____ _____    ______ ____
ROOT
ATOM      1  O   UNL     1       2.089   7.844  20.197  0.00  0.00    +0.000 OA
ATOM      2  C   UNL     1       2.184   7.941  18.977  0.00  0.00    +0.000 C 
ATOM      3  N   UNL     1       2.875   7.040  18.196  0.00  0.00    +0.000 N 
ATOM      4  H   UNL     1       2.922   7.202  17.197  0.00  0.00    +0.000 HD
ENDROOT
BRANCH   3   5
ATOM      5  C   UNL     1       3.650   5.941  18.753  0.00  0.00    +0.000 C 
ATOM      6  C   UNL     1       4.992   5.787  18.017  0.00  0.00    +0.000 C 
ATOM      7  C   UNL     1       4.788   5.146  16.647  0.00  0.00    +0.000 C 
ATOM      8  C   UNL     1       4.251   3.727  16.812  0.00  0.00    +0.000 C 
ATOM      9  C   UNL     1       3.088   3.646  17.769  0.00  0.00    +0.000 A 
ATOM     10  C   UNL     1       2.294   2.488  17.767  0.00  0.00    +0.000 A 
ATOM     11  C   UNL     1       1.230   2.355  18.657  0.00  0.00    +0.000 A 
ATOM     12  C   UNL     1       0.952   3.371  19.565  0.00  0.00    +0.000 A 
ATOM     13  C   UNL     1       1.742   4.520  19.588  0.00  0.00    +0.000 A 
ATOM     14  C   UNL     1       2.823   4.669  18.702  0.00  0.00    +0.000 A 
ENDBRANCH   3   5
BRANCH   2  15
ATOM     15  C   UNL     1       1.460   9.028  18.180  0.00  0.00    +0.000 C 
BRANCH  15  16
ATOM     16  O   UNL     1       0.384   9.630  18.907  0.00  0.00    +0.000 OA
BRANCH  16  17
ATOM     17  C   UNL     1       0.696  10.801  19.506  0.00  0.00    +0.000 C 
ATOM     18  O   UNL     1       1.442  11.658  19.057  0.00  0.00    +0.000 OA
BRANCH  17  19
ATOM     19  C   UNL     1      -0.083  11.003  20.737  0.00  0.00    +0.000 A 
ATOM     20  C   UNL     1       0.186  10.148  21.815  0.00  0.00    +0.000 A 
ATOM     21  C   UNL     1      -0.537  10.278  22.998  0.00  0.00    +0.000 A 
ATOM     22  C   UNL     1      -1.512  11.256  23.063  0.00  0.00    +0.000 A 
ATOM     23  N   UNL     1      -1.804  12.089  22.040  0.00  0.00    +0.000 NA
ATOM     24  C   UNL     1      -1.091  11.941  20.895  0.00  0.00    +0.000 A 
ATOM     25 CL   UNL     1      -1.649  13.002  19.660  0.00  0.00    +0.000 Cl
ENDBRANCH  17  19
ENDBRANCH  16  17
ENDBRANCH  15  16
ENDBRANCH   2  15
TORSDOF 5
ENDMDL
MODEL 6
REMARK VINA RESULT:      -7.2      5.004      8.550
REMARK  Name = 
REMARK  5 active torsions:
REMARK  status: ('A' for Active; 'I' for Inactive)
REMARK    1  A    between atoms: C_2  and  C_3
REMARK    2  A    between atoms: C_3  and  O_4
REMARK    3  A    between atoms: O_4  and  C_5
REMARK    4  A    between atoms: C_5  and  C_7
REMARK    5  A    between atoms: N_14  and  C_15
REMARK                            x       y       z     vdW  Elec       q    Type
REMARK                         _______ _______ _______ _____ _____    ______ ____
ROOT
ATOM      1  O   UNL     1       2.055   7.862  20.227  0.00  0.00    +0.000 OA
ATOM      2  C   UNL     1       2.115   7.982  19.007  0.00  0.00    +0.000 C 
ATOM      3  N   UNL     1       2.813   7.116  18.192  0.00  0.00    +0.000 N 
ATOM      4  H   UNL     1       2.829   7.296  17.196  0.00  0.00    +0.000 HD
ENDROOT
BRANCH   3   5
ATOM      5  C   UNL     1       3.634   6.032  18.710  0.00  0.00    +0.000 C 
ATOM      6  C   UNL     1       4.965   5.939  17.946  0.00  0.00    +0.000 C 
ATOM      7  C   UNL     1       4.756   5.321  16.566  0.00  0.00    +0.000 C 
ATOM      8  C   UNL     1       4.269   3.882  16.708  0.00  0.00    +0.000 C 
ATOM      9  C   UNL     1       3.129   3.742  17.684  0.00  0.00    +0.000 A 
ATOM     10  C   UNL     1       2.373   2.558  17.670  0.00  0.00    +0.000 A 
ATOM     11  C   UNL     1       1.331   2.370  18.577  0.00  0.00    +0.000 A 
ATOM     12  C   UNL     1       1.037   3.356  19.513  0.00  0.00    +0.000 A 
ATOM     13  C   UNL     1       1.789   4.530  19.548  0.00  0.00    +0.000 A 
ATOM     14  C   UNL     1       2.848   4.734  18.645  0.00  0.00    +0.000 A 
ENDBRANCH   3   5
BRANCH   2  15
ATOM     15  C   UNL     1       1.339   9.061  18.248  0.00  0.00    +0.000 C 
BRANCH  15  16
ATOM     16  O   UNL     1       1.081  10.225  19.040  0.00  0.00    +0.000 OA
BRANCH  16  17
ATOM     17  C   UNL     1      -0.229  10.479  19.254  0.00  0.00    +0.000 C 
ATOM     18  O   UNL     1      -1.160  10.054  18.587  0.00  0.00    +0.000 OA
BRANCH  17  19
ATOM     19  C   UNL     1      -0.436  11.242  20.494  0.00  0.00    +0.000 A 
ATOM     20  C   UNL     1      -0.536  12.635  20.383  0.00  0.00    +0.000 A 
ATOM     21  C   UNL     1      -0.708  13.411  21.527  0.00  0.00    +0.000 A 
ATOM     22  C   UNL     1      -0.770  12.766  22.749  0.00  0.00    +0.000 A 
ATOM     23  N   UNL     1      -0.666  11.427  22.894  0.00  0.00    +0.000 NA
ATOM     24  C   UNL     1      -0.493  10.692  21.766  0.00  0.00    +0.000 A 
ATOM     25 CL   UNL     1      -0.277   9.023  22.126  0.00  0.00    +0.000 Cl
ENDBRANCH  17  19
ENDBRANCH  16  17
ENDBRANCH  15  16
ENDBRANCH   2  15
TORSDOF 5
ENDMDL
MODEL 7
REMARK VINA RESULT:      -7.1      4.647      7.067
REMARK  Name = 
REMARK  5 active torsions:
REMARK  status: ('A' for Active; 'I' for Inactive)
REMARK    1  A    between atoms: C_2  and  C_3
REMARK    2  A    between atoms: C_3  and  O_4
REMARK    3  A    between atoms: O_4  and  C_5
REMARK    4  A    between atoms: C_5  and  C_7
REMARK    5  A    between atoms: N_14  and  C_15
REMARK                            x       y       z     vdW  Elec       q    Type
REMARK                         _______ _______ _______ _____ _____    ______ ____
ROOT
ATOM      1  O   UNL     1       2.238   9.409  17.380  0.00  0.00    +0.000 OA
ATOM      2  C   UNL     1       1.681   9.094  18.427  0.00  0.00    +0.000 C 
ATOM      3  N   UNL     1       0.621   9.794  18.964  0.00  0.00    +0.000 N 
ATOM      4  H   UNL     1       0.229   9.479  19.843  0.00  0.00    +0.000 HD
ENDROOT
BRANCH   3   5
ATOM      5  C   UNL     1       0.126  11.039  18.395  0.00  0.00    +0.000 C 
ATOM      6  C   UNL     1       0.451  12.229  19.312  0.00  0.00    +0.000 C 
ATOM      7  C   UNL     1      -0.472  12.244  20.528  0.00  0.00    +0.000 C 
ATOM      8  C   UNL     1      -1.915  12.458  20.083  0.00  0.00    +0.000 C 
ATOM      9  C   UNL     1      -2.320  11.553  18.946  0.00  0.00    +0.000 A 
ATOM     10  C   UNL     1      -3.686  11.404  18.657  0.00  0.00    +0.000 A 
ATOM     11  C   UNL     1      -4.105  10.606  17.595  0.00  0.00    +0.000 A 
ATOM     12  C   UNL     1      -3.166   9.953  16.803  0.00  0.00    +0.000 A 
ATOM     13  C   UNL     1      -1.805  10.104  17.069  0.00  0.00    +0.000 A 
ATOM     14  C   UNL     1      -1.364  10.911  18.133  0.00  0.00    +0.000 A 
ENDBRANCH   3   5
BRANCH   2  15
ATOM     15  C   UNL     1       2.045   7.827  19.203  0.00  0.00    +0.000 C 
BRANCH  15  16
ATOM     16  O   UNL     1       2.574   6.793  18.366  0.00  0.00    +0.000 OA
BRANCH  16  17
ATOM     17  C   UNL     1       3.173   5.781  19.034  0.00  0.00    +0.000 C 
ATOM     18  O   UNL     1       4.155   5.880  19.754  0.00  0.00    +0.000 OA
BRANCH  17  19
ATOM     19  C   UNL     1       2.417   4.527  18.904  0.00  0.00    +0.000 A 
ATOM     20  C   UNL     1       1.456   4.251  19.887  0.00  0.00    +0.000 A 
ATOM     21  C   UNL     1       0.726   3.066  19.827  0.00  0.00    +0.000 A 
ATOM     22  C   UNL     1       0.985   2.191  18.788  0.00  0.00    +0.000 A 
ATOM     23  N   UNL     1       1.911   2.420  17.831  0.00  0.00    +0.000 NA
ATOM     24  C   UNL     1       2.614   3.578  17.912  0.00  0.00    +0.000 A 
ATOM     25 CL   UNL     1       3.819   3.674  16.687  0.00  0.00    +0.000 Cl
ENDBRANCH  17  19
ENDBRANCH  16  17
ENDBRANCH  15  16
ENDBRANCH   2  15
TORSDOF 5
ENDMDL
MODEL 8
REMARK VINA RESULT:      -7.1      4.964      7.061
REMARK  Name = 
REMARK  5 active torsions:
REMARK  status: ('A' for Active; 'I' for Inactive)
REMARK    1  A    between atoms: C_2  and  C_3
REMARK    2  A    between atoms: C_3  and  O_4
REMARK    3  A    between atoms: O_4  and  C_5
REMARK    4  A    between atoms: C_5  and  C_7
REMARK    5  A    between atoms: N_14  and  C_15
REMARK                            x       y       z     vdW  Elec       q    Type
REMARK                         _______ _______ _______ _____ _____    ______ ____
ROOT
ATOM      1  O   UNL     1       8.538   7.303  18.907  0.00  0.00    +0.000 OA
ATOM      2  C   UNL     1       7.933   7.799  17.961  0.00  0.00    +0.000 C 
ATOM      3  N   UNL     1       7.148   7.069  17.095  0.00  0.00    +0.000 N 
ATOM      4  H   UNL     1       6.697   7.552  16.327  0.00  0.00    +0.000 HD
ENDROOT
BRANCH   3   5
ATOM      5  C   UNL     1       7.043   5.619  17.155  0.00  0.00    +0.000 C 
ATOM      6  C   UNL     1       7.356   4.989  15.787  0.00  0.00    +0.000 C 
ATOM      7  C   UNL     1       6.190   5.183  14.821  0.00  0.00    +0.000 C 
ATOM      8  C   UNL     1       4.959   4.443  15.336  0.00  0.00    +0.000 C 
ATOM      9  C   UNL     1       4.675   4.716  16.791  0.00  0.00    +0.000 A 
ATOM     10  C   UNL     1       3.413   4.377  17.306  0.00  0.00    +0.000 A 
ATOM     11  C   UNL     1       3.117   4.580  18.652  0.00  0.00    +0.000 A 
ATOM     12  C   UNL     1       4.080   5.114  19.503  0.00  0.00    +0.000 A 
ATOM     13  C   UNL     1       5.342   5.441  19.008  0.00  0.00    +0.000 A 
ATOM     14  C   UNL     1       5.660   5.238  17.654  0.00  0.00    +0.000 A 
ENDBRANCH   3   5
BRANCH   2  15
ATOM     15  C   UNL     1       7.912   9.307  17.698  0.00  0.00    +0.000 C 
BRANCH  15  16
ATOM     16  O   UNL     1       9.183   9.929  17.917  0.00  0.00    +0.000 OA
BRANCH  16  17
ATOM     17  C   UNL     1       9.233  10.739  18.999  0.00  0.00    +0.000 C 
ATOM     18  O   UNL     1       9.163  10.381  20.165  0.00  0.00    +0.000 OA
BRANCH  17  19
ATOM     19  C   UNL     1       9.520  12.130  18.619  0.00  0.00    +0.000 A 
ATOM     20  C   UNL     1       8.424  12.979  18.412  0.00  0.00    +0.000 A 
ATOM     21  C   UNL     1       8.636  14.301  18.027  0.00  0.00    +0.000 A 
ATOM     22  C   UNL     1       9.939  14.731  17.857  0.00  0.00    +0.000 A 
ATOM     23  N   UNL     1      11.017  13.936  18.037  0.00  0.00    +0.000 NA
ATOM     24  C   UNL     1      10.787  12.651  18.405  0.00  0.00    +0.000 A 
ATOM     25 CL   UNL     1      12.249  11.746  18.494  0.00  0.00    +0.000 Cl
ENDBRANCH  17  19
ENDBRANCH  16  17
ENDBRANCH  15  16
ENDBRANCH   2  15
TORSDOF 5
ENDMDL
MODEL 9
REMARK VINA RESULT:      -7.0      5.228      8.315
REMARK  Name = 
REMARK  5 active torsions:
REMARK  status: ('A' for Active; 'I' for Inactive)
REMARK    1  A    between atoms: C_2  and  C_3
REMARK    2  A    between atoms: C_3  and  O_4
REMARK    3  A    between atoms: O_4  and  C_5
REMARK    4  A    between atoms: C_5  and  C_7
REMARK    5  A    between atoms: N_14  and  C_15
REMARK                            x       y       z     vdW  Elec       q    Type
REMARK                         _______ _______ _______ _____ _____    ______ ____
ROOT
ATOM      1  O   UNL     1       2.280   8.607  17.088  0.00  0.00    +0.000 OA
ATOM      2  C   UNL     1       2.176   8.245  18.256  0.00  0.00    +0.000 C 
ATOM      3  N   UNL     1       2.624   7.025  18.715  0.00  0.00    +0.000 N 
ATOM      4  H   UNL     1       2.483   6.793  19.691  0.00  0.00    +0.000 HD
ENDROOT
BRANCH   3   5
ATOM      5  C   UNL     1       3.173   6.002  17.836  0.00  0.00    +0.000 C 
ATOM      6  C   UNL     1       2.598   4.618  18.180  0.00  0.00    +0.000 C 
ATOM      7  C   UNL     1       3.229   4.070  19.457  0.00  0.00    +0.000 C 
ATOM      8  C   UNL     1       4.723   3.847  19.244  0.00  0.00    +0.000 C 
ATOM      9  C   UNL     1       5.410   5.031  18.612  0.00  0.00    +0.000 A 
ATOM     10  C   UNL     1       6.812   5.100  18.659  0.00  0.00    +0.000 A 
ATOM     11  C   UNL     1       7.492   6.159  18.059  0.00  0.00    +0.000 A 
ATOM     12  C   UNL     1       6.782   7.155  17.397  0.00  0.00    +0.000 A 
ATOM     13  C   UNL     1       5.390   7.090  17.329  0.00  0.00    +0.000 A 
ATOM     14  C   UNL     1       4.689   6.027  17.924  0.00  0.00    +0.000 A 
ENDBRANCH   3   5
BRANCH   2  15
ATOM     15  C   UNL     1       1.618   9.154  19.353  0.00  0.00    +0.000 C 
BRANCH  15  16
ATOM     16  O   UNL     1       0.746  10.170  18.845  0.00  0.00    +0.000 OA
BRANCH  16  17
ATOM     17  C   UNL     1      -0.456  10.237  19.460  0.00  0.00    +0.000 C 
ATOM     18  O   UNL     1      -0.648  10.193  20.666  0.00  0.00    +0.000 OA
BRANCH  17  19
ATOM     19  C   UNL     1      -1.538  10.508  18.502  0.00  0.00    +0.000 A 
ATOM     20  C   UNL     1      -1.535   9.777  17.306  0.00  0.00    +0.000 A 
ATOM     21  C   UNL     1      -2.522  10.009  16.350  0.00  0.00    +0.000 A 
ATOM     22  C   UNL     1      -3.480  10.969  16.621  0.00  0.00    +0.000 A 
ATOM     23  N   UNL     1      -3.506  11.699  17.758  0.00  0.00    +0.000 NA
ATOM     24  C   UNL     1      -2.532  11.461  18.672  0.00  0.00    +0.000 A 
ATOM     25 CL   UNL     1      -2.643  12.535  20.011  0.00  0.00    +0.000 Cl
ENDBRANCH  17  19
ENDBRANCH  16  17
ENDBRANCH  15  16
ENDBRANCH   2  15
TORSDOF 5
ENDMDL
