MODEL 1
REMARK VINA RESULT:      -5.5      0.000      0.000
REMARK  Name = 
REMARK  11 active torsions:
REMARK  status: ('A' for Active; 'I' for Inactive)
REMARK    1  A    between atoms: C_2  and  C_3
REMARK    2  A    between atoms: C_3  and  C_4
REMARK    3  A    between atoms: C_4  and  C_5
REMARK    4  A    between atoms: C_5  and  C_6
REMARK    5  A    between atoms: C_6  and  C_7
REMARK    6  A    between atoms: C_7  and  C_8
REMARK    7  A    between atoms: C_8  and  C_9
REMARK    8  A    between atoms: C_9  and  C_10
REMARK    9  A    between atoms: C_10  and  C_11
REMARK   10  A    between atoms: C_11  and  O_12
REMARK   11  A    between atoms: O_12  and  S_13
REMARK                            x       y       z     vdW  Elec       q    Type
REMARK                         _______ _______ _______ _____ _____    ______ ____
ROOT
ATOM      1  C   UNL     1       3.999   5.478  19.545  0.00  0.00    +0.000 C 
ENDROOT
BRANCH   1   2
ATOM      2  C   UNL     1       2.661   6.198  19.621  0.00  0.00    +0.000 C 
BRANCH   2   3
ATOM      3  C   UNL     1       1.678   5.476  20.550  0.00  0.00    +0.000 C 
BRANCH   3   4
ATOM      4  C   UNL     1       2.258   4.176  21.085  0.00  0.00    +0.000 C 
BRANCH   4   5
ATOM      5  C   UNL     1       1.273   3.013  20.930  0.00  0.00    +0.000 C 
BRANCH   5   6
ATOM      6  C   UNL     1       0.900   2.792  19.484  0.00  0.00    +0.000 C 
BRANCH   6   8
ATOM      7  C   UNL     1       3.134   1.850  18.036  0.00  0.00    +0.000 C 
ATOM      8  C   UNL     1       2.102   2.285  18.705  0.00  0.00    +0.000 C 
ENDBRANCH   6   8
ENDBRANCH   5   6
ENDBRANCH   4   5
ENDBRANCH   3   4
ENDBRANCH   2   3
ENDBRANCH   1   2
BRANCH   1   9
ATOM      9  C   UNL     1       4.490   5.320  18.102  0.00  0.00    +0.000 C 
BRANCH   9  10
ATOM     10  C   UNL     1       5.823   4.573  18.009  0.00  0.00    +0.000 C 
BRANCH  10  11
ATOM     11  C   UNL     1       6.925   5.401  17.342  0.00  0.00    +0.000 C 
BRANCH  11  12
ATOM     12  O   UNL     1       7.438   4.658  16.254  0.00  0.00    +0.000 OA
BRANCH  12  13
ATOM     13  S   UNL     1       6.855   4.969  14.763  0.00  0.00    +0.000 S 
ATOM     14  O   UNL     1       8.031   5.439  14.026  0.00  0.00    +0.000 OA
ATOM     15  O   UNL     1       6.359   3.670  14.325  0.00  0.00    +0.000 OA
ATOM     16  O   UNL     1       5.835   5.980  15.002  0.00  0.00    +0.000 OA
ENDBRANCH  12  13
ENDBRANCH  11  12
ENDBRANCH  10  11
ENDBRANCH   9  10
ENDBRANCH   1   9
TORSDOF 11
ENDMDL
MODEL 2
REMARK VINA RESULT:      -5.4      1.125      2.535
REMARK  Name = 
REMARK  11 active torsions:
REMARK  status: ('A' for Active; 'I' for Inactive)
REMARK    1  A    between atoms: C_2  and  C_3
REMARK    2  A    between atoms: C_3  and  C_4
REMARK    3  A    between atoms: C_4  and  C_5
REMARK    4  A    between atoms: C_5  and  C_6
REMARK    5  A    between atoms: C_6  and  C_7
REMARK    6  A    between atoms: C_7  and  C_8
REMARK    7  A    between atoms: C_8  and  C_9
REMARK    8  A    between atoms: C_9  and  C_10
REMARK    9  A    between atoms: C_10  and  C_11
REMARK   10  A    between atoms: C_11  and  O_12
REMARK   11  A    between atoms: O_12  and  S_13
REMARK                            x       y       z     vdW  Elec       q    Type
REMARK                         _______ _______ _______ _____ _____    ______ ____
ROOT
ATOM      1  C   UNL     1       5.031   4.592  18.655  0.00  0.00    +0.000 C 
ENDROOT
BRANCH   1   2
ATOM      2  C   UNL     1       4.142   3.361  18.555  0.00  0.00    +0.000 C 
BRANCH   2   3
ATOM      3  C   UNL     1       3.197   3.437  17.350  0.00  0.00    +0.000 C 
BRANCH   3   4
ATOM      4  C   UNL     1       1.740   3.517  17.779  0.00  0.00    +0.000 C 
BRANCH   4   5
ATOM      5  C   UNL     1       1.388   2.419  18.786  0.00  0.00    +0.000 C 
BRANCH   5   6
ATOM      6  C   UNL     1       0.603   2.969  19.953  0.00  0.00    +0.000 C 
BRANCH   6   8
ATOM      7  C   UNL     1       1.693   5.439  20.780  0.00  0.00    +0.000 C 
ATOM      8  C   UNL     1       1.190   4.299  20.398  0.00  0.00    +0.000 C 
ENDBRANCH   6   8
ENDBRANCH   5   6
ENDBRANCH   4   5
ENDBRANCH   3   4
ENDBRANCH   2   3
ENDBRANCH   1   2
BRANCH   1   9
ATOM      9  C   UNL     1       4.234   5.894  18.511  0.00  0.00    +0.000 C 
BRANCH   9  10
ATOM     10  C   UNL     1       4.677   6.729  17.307  0.00  0.00    +0.000 C 
BRANCH  10  11
ATOM     11  C   UNL     1       6.176   6.607  17.016  0.00  0.00    +0.000 C 
BRANCH  11  12
ATOM     12  O   UNL     1       6.336   6.331  15.638  0.00  0.00    +0.000 OA
BRANCH  12  13
ATOM     13  S   UNL     1       7.006   4.907  15.209  0.00  0.00    +0.000 S 
ATOM     14  O   UNL     1       7.720   5.224  13.969  0.00  0.00    +0.000 OA
ATOM     15  O   UNL     1       7.877   4.599  16.336  0.00  0.00    +0.000 OA
ATOM     16  O   UNL     1       5.856   4.028  15.047  0.00  0.00    +0.000 OA
ENDBRANCH  12  13
ENDBRANCH  11  12
ENDBRANCH  10  11
ENDBRANCH   9  10
ENDBRANCH   1   9
TORSDOF 11
ENDMDL
MODEL 3
REMARK VINA RESULT:      -5.3      1.075      1.528
REMARK  Name = 
REMARK  11 active torsions:
REMARK  status: ('A' for Active; 'I' for Inactive)
REMARK    1  A    between atoms: C_2  and  C_3
REMARK    2  A    between atoms: C_3  and  C_4
REMARK    3  A    between atoms: C_4  and  C_5
REMARK    4  A    between atoms: C_5  and  C_6
REMARK    5  A    between atoms: C_6  and  C_7
REMARK    6  A    between atoms: C_7  and  C_8
REMARK    7  A    between atoms: C_8  and  C_9
REMARK    8  A    between atoms: C_9  and  C_10
REMARK    9  A    between atoms: C_10  and  C_11
REMARK   10  A    between atoms: C_11  and  O_12
REMARK   11  A    between atoms: O_12  and  S_13
REMARK                            x       y       z     vdW  Elec       q    Type
REMARK                         _______ _______ _______ _____ _____    ______ ____
ROOT
ATOM      1  C   UNL     1       4.156   5.452  19.658  0.00  0.00    +0.000 C 
ENDROOT
BRANCH   1   2
ATOM      2  C   UNL     1       2.733   5.980  19.551  0.00  0.00    +0.000 C 
BRANCH   2   3
ATOM      3  C   UNL     1       1.837   5.431  20.667  0.00  0.00    +0.000 C 
BRANCH   3   4
ATOM      4  C   UNL     1       0.997   4.256  20.188  0.00  0.00    +0.000 C 
BRANCH   4   5
ATOM      5  C   UNL     1       1.609   2.917  20.608  0.00  0.00    +0.000 C 
BRANCH   5   6
ATOM      6  C   UNL     1       1.589   1.920  19.475  0.00  0.00    +0.000 C 
BRANCH   6   8
ATOM      7  C   UNL     1       2.459   3.147  17.085  0.00  0.00    +0.000 C 
ATOM      8  C   UNL     1       2.057   2.581  18.188  0.00  0.00    +0.000 C 
ENDBRANCH   6   8
ENDBRANCH   5   6
ENDBRANCH   4   5
ENDBRANCH   3   4
ENDBRANCH   2   3
ENDBRANCH   1   2
BRANCH   1   9
ATOM      9  C   UNL     1       4.852   5.385  18.294  0.00  0.00    +0.000 C 
BRANCH   9  10
ATOM     10  C   UNL     1       4.631   6.646  17.454  0.00  0.00    +0.000 C 
BRANCH  10  11
ATOM     11  C   UNL     1       5.040   6.466  15.990  0.00  0.00    +0.000 C 
BRANCH  11  12
ATOM     12  O   UNL     1       6.446   6.323  15.940  0.00  0.00    +0.000 OA
BRANCH  12  13
ATOM     13  S   UNL     1       7.060   4.927  15.362  0.00  0.00    +0.000 S 
ATOM     14  O   UNL     1       7.887   4.432  16.465  0.00  0.00    +0.000 OA
ATOM     15  O   UNL     1       5.871   4.126  15.103  0.00  0.00    +0.000 OA
ATOM     16  O   UNL     1       7.801   5.348  14.180  0.00  0.00    +0.000 OA
ENDBRANCH  12  13
ENDBRANCH  11  12
ENDBRANCH  10  11
ENDBRANCH   9  10
ENDBRANCH   1   9
TORSDOF 11
ENDMDL
MODEL 4
REMARK VINA RESULT:      -5.3      1.316      1.974
REMARK  Name = 
REMARK  11 active torsions:
REMARK  status: ('A' for Active; 'I' for Inactive)
REMARK    1  A    between atoms: C_2  and  C_3
REMARK    2  A    between atoms: C_3  and  C_4
REMARK    3  A    between atoms: C_4  and  C_5
REMARK    4  A    between atoms: C_5  and  C_6
REMARK    5  A    between atoms: C_6  and  C_7
REMARK    6  A    between atoms: C_7  and  C_8
REMARK    7  A    between atoms: C_8  and  C_9
REMARK    8  A    between atoms: C_9  and  C_10
REMARK    9  A    between atoms: C_10  and  C_11
REMARK   10  A    between atoms: C_11  and  O_12
REMARK   11  A    between atoms: O_12  and  S_13
REMARK                            x       y       z     vdW  Elec       q    Type
REMARK                         _______ _______ _______ _____ _____    ______ ____
ROOT
ATOM      1  C   UNL     1       4.191   4.790  18.237  0.00  0.00    +0.000 C 
ENDROOT
BRANCH   1   2
ATOM      2  C   UNL     1       2.870   5.545  18.256  0.00  0.00    +0.000 C 
BRANCH   2   3
ATOM      3  C   UNL     1       1.710   4.677  17.754  0.00  0.00    +0.000 C 
BRANCH   3   4
ATOM      4  C   UNL     1       1.277   3.657  18.795  0.00  0.00    +0.000 C 
BRANCH   4   5
ATOM      5  C   UNL     1       1.190   4.279  20.192  0.00  0.00    +0.000 C 
BRANCH   5   6
ATOM      6  C   UNL     1       1.568   3.286  21.264  0.00  0.00    +0.000 C 
BRANCH   6   8
ATOM      7  C   UNL     1       4.079   2.133  20.679  0.00  0.00    +0.000 C 
ATOM      8  C   UNL     1       2.919   2.665  20.949  0.00  0.00    +0.000 C 
ENDBRANCH   6   8
ENDBRANCH   5   6
ENDBRANCH   4   5
ENDBRANCH   3   4
ENDBRANCH   2   3
ENDBRANCH   1   2
BRANCH   1   9
ATOM      9  C   UNL     1       5.240   5.436  19.147  0.00  0.00    +0.000 C 
BRANCH   9  10
ATOM     10  C   UNL     1       6.564   5.705  18.427  0.00  0.00    +0.000 C 
BRANCH  10  11
ATOM     11  C   UNL     1       6.981   4.559  17.500  0.00  0.00    +0.000 C 
BRANCH  11  12
ATOM     12  O   UNL     1       7.607   5.118  16.362  0.00  0.00    +0.000 OA
BRANCH  12  13
ATOM     13  S   UNL     1       6.809   5.070  14.940  0.00  0.00    +0.000 S 
ATOM     14  O   UNL     1       5.701   6.008  15.136  0.00  0.00    +0.000 OA
ATOM     15  O   UNL     1       7.812   5.524  13.984  0.00  0.00    +0.000 OA
ATOM     16  O   UNL     1       6.417   3.673  14.820  0.00  0.00    +0.000 OA
ENDBRANCH  12  13
ENDBRANCH  11  12
ENDBRANCH  10  11
ENDBRANCH   9  10
ENDBRANCH   1   9
TORSDOF 11
ENDMDL
MODEL 5
REMARK VINA RESULT:      -5.2      5.474      6.971
REMARK  Name = 
REMARK  11 active torsions:
REMARK  status: ('A' for Active; 'I' for Inactive)
REMARK    1  A    between atoms: C_2  and  C_3
REMARK    2  A    between atoms: C_3  and  C_4
REMARK    3  A    between atoms: C_4  and  C_5
REMARK    4  A    between atoms: C_5  and  C_6
REMARK    5  A    between atoms: C_6  and  C_7
REMARK    6  A    between atoms: C_7  and  C_8
REMARK    7  A    between atoms: C_8  and  C_9
REMARK    8  A    between atoms: C_9  and  C_10
REMARK    9  A    between atoms: C_10  and  C_11
REMARK   10  A    between atoms: C_11  and  O_12
REMARK   11  A    between atoms: O_12  and  S_13
REMARK                            x       y       z     vdW  Elec       q    Type
REMARK                         _______ _______ _______ _____ _____    ______ ____
ROOT
ATOM      1  C   UNL     1       5.262   5.476  15.517  0.00  0.00    +0.000 C 
ENDROOT
BRANCH   1   2
ATOM      2  C   UNL     1       6.649   4.996  15.117  0.00  0.00    +0.000 C 
BRANCH   2   3
ATOM      3  C   UNL     1       6.592   3.990  13.961  0.00  0.00    +0.000 C 
BRANCH   3   4
ATOM      4  C   UNL     1       5.207   3.926  13.337  0.00  0.00    +0.000 C 
BRANCH   4   5
ATOM      5  C   UNL     1       5.276   3.591  11.845  0.00  0.00    +0.000 C 
BRANCH   5   6
ATOM      6  C   UNL     1       4.005   2.934  11.365  0.00  0.00    +0.000 C 
BRANCH   6   8
ATOM      7  C   UNL     1       2.856   4.449   9.276  0.00  0.00    +0.000 C 
ATOM      8  C   UNL     1       3.387   3.749  10.241  0.00  0.00    +0.000 C 
ENDBRANCH   6   8
ENDBRANCH   5   6
ENDBRANCH   4   5
ENDBRANCH   3   4
ENDBRANCH   2   3
ENDBRANCH   1   2
BRANCH   1   9
ATOM      9  C   UNL     1       4.944   5.167  16.984  0.00  0.00    +0.000 C 
BRANCH   9  10
ATOM     10  C   UNL     1       4.632   3.687  17.222  0.00  0.00    +0.000 C 
BRANCH  10  11
ATOM     11  C   UNL     1       4.134   3.404  18.642  0.00  0.00    +0.000 C 
BRANCH  11  12
ATOM     12  O   UNL     1       2.855   2.809  18.551  0.00  0.00    +0.000 OA
BRANCH  12  13
ATOM     13  S   UNL     1       1.545   3.769  18.699  0.00  0.00    +0.000 S 
ATOM     14  O   UNL     1       2.048   4.926  19.444  0.00  0.00    +0.000 OA
ATOM     15  O   UNL     1       1.192   4.061  17.315  0.00  0.00    +0.000 OA
ATOM     16  O   UNL     1       0.596   2.937  19.425  0.00  0.00    +0.000 OA
ENDBRANCH  12  13
ENDBRANCH  11  12
ENDBRANCH  10  11
ENDBRANCH   9  10
ENDBRANCH   1   9
TORSDOF 11
ENDMDL
MODEL 6
REMARK VINA RESULT:      -5.2      0.902      2.742
REMARK  Name = 
REMARK  11 active torsions:
REMARK  status: ('A' for Active; 'I' for Inactive)
REMARK    1  A    between atoms: C_2  and  C_3
REMARK    2  A    between atoms: C_3  and  C_4
REMARK    3  A    between atoms: C_4  and  C_5
REMARK    4  A    between atoms: C_5  and  C_6
REMARK    5  A    between atoms: C_6  and  C_7
REMARK    6  A    between atoms: C_7  and  C_8
REMARK    7  A    between atoms: C_8  and  C_9
REMARK    8  A    between atoms: C_9  and  C_10
REMARK    9  A    between atoms: C_10  and  C_11
REMARK   10  A    between atoms: C_11  and  O_12
REMARK   11  A    between atoms: O_12  and  S_13
REMARK                            x       y       z     vdW  Elec       q    Type
REMARK                         _______ _______ _______ _____ _____    ______ ____
ROOT
ATOM      1  C   UNL     1       3.633   3.491  17.378  0.00  0.00    +0.000 C 
ENDROOT
BRANCH   1   2
ATOM      2  C   UNL     1       2.137   3.465  17.656  0.00  0.00    +0.000 C 
BRANCH   2   3
ATOM      3  C   UNL     1       1.732   2.232  18.473  0.00  0.00    +0.000 C 
BRANCH   3   4
ATOM      4  C   UNL     1       1.498   2.577  19.936  0.00  0.00    +0.000 C 
BRANCH   4   5
ATOM      5  C   UNL     1       0.931   3.989  20.099  0.00  0.00    +0.000 C 
BRANCH   5   6
ATOM      6  C   UNL     1       1.820   4.846  20.967  0.00  0.00    +0.000 C 
BRANCH   6   8
ATOM      7  C   UNL     1       2.277   7.341  19.725  0.00  0.00    +0.000 C 
ATOM      8  C   UNL     1       2.066   6.189  20.299  0.00  0.00    +0.000 C 
ENDBRANCH   6   8
ENDBRANCH   5   6
ENDBRANCH   4   5
ENDBRANCH   3   4
ENDBRANCH   2   3
ENDBRANCH   1   2
BRANCH   1   9
ATOM      9  C   UNL     1       4.368   4.506  18.260  0.00  0.00    +0.000 C 
BRANCH   9  10
ATOM     10  C   UNL     1       5.890   4.361  18.186  0.00  0.00    +0.000 C 
BRANCH  10  11
ATOM     11  C   UNL     1       6.578   5.591  17.587  0.00  0.00    +0.000 C 
BRANCH  11  12
ATOM     12  O   UNL     1       7.420   5.158  16.537  0.00  0.00    +0.000 OA
BRANCH  12  13
ATOM     13  S   UNL     1       6.808   5.111  15.026  0.00  0.00    +0.000 S 
ATOM     14  O   UNL     1       6.355   3.725  14.881  0.00  0.00    +0.000 OA
ATOM     15  O   UNL     1       5.727   6.088  15.078  0.00  0.00    +0.000 OA
ATOM     16  O   UNL     1       7.943   5.477  14.190  0.00  0.00    +0.000 OA
ENDBRANCH  12  13
ENDBRANCH  11  12
ENDBRANCH  10  11
ENDBRANCH   9  10
ENDBRANCH   1   9
TORSDOF 11
ENDMDL
MODEL 7
REMARK VINA RESULT:      -5.2      1.873      3.183
REMARK  Name = 
REMARK  11 active torsions:
REMARK  status: ('A' for Active; 'I' for Inactive)
REMARK    1  A    between atoms: C_2  and  C_3
REMARK    2  A    between atoms: C_3  and  C_4
REMARK    3  A    between atoms: C_4  and  C_5
REMARK    4  A    between atoms: C_5  and  C_6
REMARK    5  A    between atoms: C_6  and  C_7
REMARK    6  A    between atoms: C_7  and  C_8
REMARK    7  A    between atoms: C_8  and  C_9
REMARK    8  A    between atoms: C_9  and  C_10
REMARK    9  A    between atoms: C_10  and  C_11
REMARK   10  A    between atoms: C_11  and  O_12
REMARK   11  A    between atoms: O_12  and  S_13
REMARK                            x       y       z     vdW  Elec       q    Type
REMARK                         _______ _______ _______ _____ _____    ______ ____
ROOT
ATOM      1  C   UNL     1       4.682   3.838  18.436  0.00  0.00    +0.000 C 
ENDROOT
BRANCH   1   2
ATOM      2  C   UNL     1       4.104   2.534  18.967  0.00  0.00    +0.000 C 
BRANCH   2   3
ATOM      3  C   UNL     1       3.041   1.958  18.025  0.00  0.00    +0.000 C 
BRANCH   3   4
ATOM      4  C   UNL     1       1.632   2.256  18.515  0.00  0.00    +0.000 C 
BRANCH   4   5
ATOM      5  C   UNL     1       1.595   2.470  20.030  0.00  0.00    +0.000 C 
BRANCH   5   6
ATOM      6  C   UNL     1       0.769   3.678  20.399  0.00  0.00    +0.000 C 
BRANCH   6   8
ATOM      7  C   UNL     1       2.310   6.028  20.132  0.00  0.00    +0.000 C 
ATOM      8  C   UNL     1       1.598   4.943  20.255  0.00  0.00    +0.000 C 
ENDBRANCH   6   8
ENDBRANCH   5   6
ENDBRANCH   4   5
ENDBRANCH   3   4
ENDBRANCH   2   3
ENDBRANCH   1   2
BRANCH   1   9
ATOM      9  C   UNL     1       4.531   3.962  16.916  0.00  0.00    +0.000 C 
BRANCH   9  10
ATOM     10  C   UNL     1       5.875   3.945  16.184  0.00  0.00    +0.000 C 
BRANCH  10  11
ATOM     11  C   UNL     1       6.192   5.272  15.490  0.00  0.00    +0.000 C 
BRANCH  11  12
ATOM     12  O   UNL     1       7.313   5.849  16.131  0.00  0.00    +0.000 OA
BRANCH  12  13
ATOM     13  S   UNL     1       7.051   6.853  17.389  0.00  0.00    +0.000 S 
ATOM     14  O   UNL     1       7.902   8.007  17.090  0.00  0.00    +0.000 OA
ATOM     15  O   UNL     1       5.622   7.128  17.299  0.00  0.00    +0.000 OA
ATOM     16  O   UNL     1       7.465   6.066  18.542  0.00  0.00    +0.000 OA
ENDBRANCH  12  13
ENDBRANCH  11  12
ENDBRANCH  10  11
ENDBRANCH   9  10
ENDBRANCH   1   9
TORSDOF 11
ENDMDL
MODEL 8
REMARK VINA RESULT:      -5.2      1.097      2.824
REMARK  Name = 
REMARK  11 active torsions:
REMARK  status: ('A' for Active; 'I' for Inactive)
REMARK    1  A    between atoms: C_2  and  C_3
REMARK    2  A    between atoms: C_3  and  C_4
REMARK    3  A    between atoms: C_4  and  C_5
REMARK    4  A    between atoms: C_5  and  C_6
REMARK    5  A    between atoms: C_6  and  C_7
REMARK    6  A    between atoms: C_7  and  C_8
REMARK    7  A    between atoms: C_8  and  C_9
REMARK    8  A    between atoms: C_9  and  C_10
REMARK    9  A    between atoms: C_10  and  C_11
REMARK   10  A    between atoms: C_11  and  O_12
REMARK   11  A    between atoms: O_12  and  S_13
REMARK                            x       y       z     vdW  Elec       q    Type
REMARK                         _______ _______ _______ _____ _____    ______ ____
ROOT
ATOM      1  C   UNL     1       3.579   3.751  17.041  0.00  0.00    +0.000 C 
ENDROOT
BRANCH   1   2
ATOM      2  C   UNL     1       2.941   2.411  17.375  0.00  0.00    +0.000 C 
BRANCH   2   3
ATOM      3  C   UNL     1       3.359   1.911  18.763  0.00  0.00    +0.000 C 
BRANCH   3   4
ATOM      4  C   UNL     1       2.254   2.107  19.790  0.00  0.00    +0.000 C 
BRANCH   4   5
ATOM      5  C   UNL     1       2.822   2.444  21.171  0.00  0.00    +0.000 C 
BRANCH   5   6
ATOM      6  C   UNL     1       2.098   3.610  21.799  0.00  0.00    +0.000 C 
BRANCH   6   8
ATOM      7  C   UNL     1       2.090   5.814  20.033  0.00  0.00    +0.000 C 
ATOM      8  C   UNL     1       2.093   4.796  20.848  0.00  0.00    +0.000 C 
ENDBRANCH   6   8
ENDBRANCH   5   6
ENDBRANCH   4   5
ENDBRANCH   3   4
ENDBRANCH   2   3
ENDBRANCH   1   2
BRANCH   1   9
ATOM      9  C   UNL     1       4.636   4.161  18.073  0.00  0.00    +0.000 C 
BRANCH   9  10
ATOM     10  C   UNL     1       5.218   5.551  17.802  0.00  0.00    +0.000 C 
BRANCH  10  11
ATOM     11  C   UNL     1       5.029   6.005  16.353  0.00  0.00    +0.000 C 
BRANCH  11  12
ATOM     12  O   UNL     1       6.307   6.205  15.782  0.00  0.00    +0.000 OA
BRANCH  12  13
ATOM     13  S   UNL     1       7.077   4.917  15.143  0.00  0.00    +0.000 S 
ATOM     14  O   UNL     1       5.987   4.088  14.623  0.00  0.00    +0.000 OA
ATOM     15  O   UNL     1       7.916   5.514  14.111  0.00  0.00    +0.000 OA
ATOM     16  O   UNL     1       7.790   4.351  16.280  0.00  0.00    +0.000 OA
ENDBRANCH  12  13
ENDBRANCH  11  12
ENDBRANCH  10  11
ENDBRANCH   9  10
ENDBRANCH   1   9
TORSDOF 11
ENDMDL
MODEL 9
REMARK VINA RESULT:      -5.1      2.208      3.648
REMARK  Name = 
REMARK  11 active torsions:
REMARK  status: ('A' for Active; 'I' for Inactive)
REMARK    1  A    between atoms: C_2  and  C_3
REMARK    2  A    between atoms: C_3  and  C_4
REMARK    3  A    between atoms: C_4  and  C_5
REMARK    4  A    between atoms: C_5  and  C_6
REMARK    5  A    between atoms: C_6  and  C_7
REMARK    6  A    between atoms: C_7  and  C_8
REMARK    7  A    between atoms: C_8  and  C_9
REMARK    8  A    between atoms: C_9  and  C_10
REMARK    9  A    between atoms: C_10  and  C_11
REMARK   10  A    between atoms: C_11  and  O_12
REMARK   11  A    between atoms: O_12  and  S_13
REMARK                            x       y       z     vdW  Elec       q    Type
REMARK                         _______ _______ _______ _____ _____    ______ ____
ROOT
ATOM      1  C   UNL     1       3.894   3.644  17.082  0.00  0.00    +0.000 C 
ENDROOT
BRANCH   1   2
ATOM      2  C   UNL     1       3.463   2.360  17.777  0.00  0.00    +0.000 C 
BRANCH   2   3
ATOM      3  C   UNL     1       1.956   2.341  18.055  0.00  0.00    +0.000 C 
BRANCH   3   4
ATOM      4  C   UNL     1       1.655   2.037  19.514  0.00  0.00    +0.000 C 
BRANCH   4   5
ATOM      5  C   UNL     1       2.797   2.483  20.431  0.00  0.00    +0.000 C 
BRANCH   5   6
ATOM      6  C   UNL     1       2.292   3.333  21.571  0.00  0.00    +0.000 C 
BRANCH   6   8
ATOM      7  C   UNL     1       1.616   5.911  20.638  0.00  0.00    +0.000 C 
ATOM      8  C   UNL     1       1.928   4.720  21.069  0.00  0.00    +0.000 C 
ENDBRANCH   6   8
ENDBRANCH   5   6
ENDBRANCH   4   5
ENDBRANCH   3   4
ENDBRANCH   2   3
ENDBRANCH   1   2
BRANCH   1   9
ATOM      9  C   UNL     1       2.968   4.819  17.413  0.00  0.00    +0.000 C 
BRANCH   9  10
ATOM     10  C   UNL     1       3.730   6.053  17.903  0.00  0.00    +0.000 C 
BRANCH  10  11
ATOM     11  C   UNL     1       4.947   5.699  18.762  0.00  0.00    +0.000 C 
BRANCH  11  12
ATOM     12  O   UNL     1       6.110   6.106  18.067  0.00  0.00    +0.000 OA
BRANCH  12  13
ATOM     13  S   UNL     1       7.563   5.745  18.715  0.00  0.00    +0.000 S 
ATOM     14  O   UNL     1       8.294   7.013  18.646  0.00  0.00    +0.000 OA
ATOM     15  O   UNL     1       7.224   5.327  20.070  0.00  0.00    +0.000 OA
ATOM     16  O   UNL     1       8.070   4.695  17.844  0.00  0.00    +0.000 OA
ENDBRANCH  12  13
ENDBRANCH  11  12
ENDBRANCH  10  11
ENDBRANCH   9  10
ENDBRANCH   1   9
TORSDOF 11
ENDMDL
