MODEL 1
REMARK VINA RESULT:      -6.6      0.000      0.000
REMARK  Name = 
REMARK  6 active torsions:
REMARK  status: ('A' for Active; 'I' for Inactive)
REMARK    1  A    between atoms: C_1  and  O_2
REMARK    2  A    between atoms: O_2  and  C_3
REMARK    3  A    between atoms: C_5  and  N_6
REMARK    4  A    between atoms: C_7  and  C_8
REMARK    5  A    between atoms: C_14  and  C_15
REMARK    6  A    between atoms: C_17  and  C_18
REMARK                            x       y       z     vdW  Elec       q    Type
REMARK                         _______ _______ _______ _____ _____    ______ ____
ROOT
ATOM      1  C   UNL     1       5.983   3.858  13.992  0.00  0.00    +0.000 A 
ATOM      2  N   UNL     1       5.146   3.501  15.027  0.00  0.00    +0.000 N 
ATOM      3  C   UNL     1       5.379   4.282  16.139  0.00  0.00    +0.000 A 
ATOM      4  C   UNL     1       6.429   5.125  15.807  0.00  0.00    +0.000 A 
ATOM      5  C   UNL     1       6.809   4.857  14.471  0.00  0.00    +0.000 A 
ATOM      6  H   UNL     1       4.489   2.737  15.004  0.00  0.00    +0.000 HD
ENDROOT
BRANCH   1   8
ATOM      7  C   UNL     1       4.866   3.445  11.954  0.00  0.00    +0.000 C 
ATOM      8  O   UNL     1       5.997   3.259  12.796  0.00  0.00    +0.000 OA
ENDBRANCH   1   8
BRANCH   3   9
ATOM      9  N   UNL     1       4.751   4.113  17.327  0.00  0.00    +0.000 NA
ATOM     10  C   UNL     1       3.537   3.667  17.381  0.00  0.00    +0.000 C 
BRANCH  10  11
ATOM     11  C   UNL     1       2.848   3.528  18.685  0.00  0.00    +0.000 A 
ATOM     12  C   UNL     1       3.498   2.908  19.760  0.00  0.00    +0.000 A 
ATOM     13  C   UNL     1       2.845   2.768  20.985  0.00  0.00    +0.000 A 
ATOM     14  C   UNL     1       1.544   3.245  21.139  0.00  0.00    +0.000 A 
ATOM     15  C   UNL     1       0.899   3.873  20.072  0.00  0.00    +0.000 A 
ATOM     16  C   UNL     1       1.549   4.020  18.843  0.00  0.00    +0.000 A 
ENDBRANCH  10  11
ENDBRANCH   3   9
BRANCH   4  17
ATOM     17  C   UNL     1       7.025   6.068  16.698  0.00  0.00    +0.000 C 
ATOM     18  N   UNL     1       7.508   6.819  17.442  0.00  0.00    +0.000 NA
ENDBRANCH   4  17
BRANCH   5  19
ATOM     19  C   UNL     1       7.858   5.484  13.730  0.00  0.00    +0.000 C 
ATOM     20  N   UNL     1       8.721   5.978  13.133  0.00  0.00    +0.000 NA
ENDBRANCH   5  19
TORSDOF 5
ENDMDL
MODEL 2
REMARK VINA RESULT:      -6.5      0.238      1.133
REMARK  Name = 
REMARK  6 active torsions:
REMARK  status: ('A' for Active; 'I' for Inactive)
REMARK    1  A    between atoms: C_1  and  O_2
REMARK    2  A    between atoms: O_2  and  C_3
REMARK    3  A    between atoms: C_5  and  N_6
REMARK    4  A    between atoms: C_7  and  C_8
REMARK    5  A    between atoms: C_14  and  C_15
REMARK    6  A    between atoms: C_17  and  C_18
REMARK                            x       y       z     vdW  Elec       q    Type
REMARK                         _______ _______ _______ _____ _____    ______ ____
ROOT
ATOM      1  C   UNL     1       5.946   3.904  13.972  0.00  0.00    +0.000 A 
ATOM      2  N   UNL     1       5.044   3.644  14.980  0.00  0.00    +0.000 N 
ATOM      3  C   UNL     1       5.228   4.505  16.041  0.00  0.00    +0.000 A 
ATOM      4  C   UNL     1       6.312   5.303  15.706  0.00  0.00    +0.000 A 
ATOM      5  C   UNL     1       6.762   4.925  14.421  0.00  0.00    +0.000 A 
ATOM      6  H   UNL     1       4.374   2.890  14.979  0.00  0.00    +0.000 HD
ENDROOT
BRANCH   1   8
ATOM      7  C   UNL     1       4.921   3.315  11.930  0.00  0.00    +0.000 C 
ATOM      8  O   UNL     1       6.017   3.213  12.830  0.00  0.00    +0.000 OA
ENDBRANCH   1   8
BRANCH   3   9
ATOM      9  N   UNL     1       4.529   4.440  17.199  0.00  0.00    +0.000 NA
ATOM     10  C   UNL     1       3.844   3.386  17.505  0.00  0.00    +0.000 C 
BRANCH  10  11
ATOM     11  C   UNL     1       3.050   3.345  18.755  0.00  0.00    +0.000 A 
ATOM     12  C   UNL     1       1.775   3.924  18.796  0.00  0.00    +0.000 A 
ATOM     13  C   UNL     1       1.032   3.896  19.976  0.00  0.00    +0.000 A 
ATOM     14  C   UNL     1       1.559   3.291  21.116  0.00  0.00    +0.000 A 
ATOM     15  C   UNL     1       2.825   2.703  21.074  0.00  0.00    +0.000 A 
ATOM     16  C   UNL     1       3.573   2.725  19.893  0.00  0.00    +0.000 A 
ENDBRANCH  10  11
ENDBRANCH   3   9
BRANCH   4  17
ATOM     17  C   UNL     1       6.874   6.305  16.555  0.00  0.00    +0.000 C 
ATOM     18  N   UNL     1       7.314   7.114  17.264  0.00  0.00    +0.000 NA
ENDBRANCH   4  17
BRANCH   5  19
ATOM     19  C   UNL     1       7.865   5.475  13.696  0.00  0.00    +0.000 C 
ATOM     20  N   UNL     1       8.770   5.906  13.111  0.00  0.00    +0.000 NA
ENDBRANCH   5  19
TORSDOF 5
ENDMDL
MODEL 3
REMARK VINA RESULT:      -6.5      4.442      7.666
REMARK  Name = 
REMARK  6 active torsions:
REMARK  status: ('A' for Active; 'I' for Inactive)
REMARK    1  A    between atoms: C_1  and  O_2
REMARK    2  A    between atoms: O_2  and  C_3
REMARK    3  A    between atoms: C_5  and  N_6
REMARK    4  A    between atoms: C_7  and  C_8
REMARK    5  A    between atoms: C_14  and  C_15
REMARK    6  A    between atoms: C_17  and  C_18
REMARK                            x       y       z     vdW  Elec       q    Type
REMARK                         _______ _______ _______ _____ _____    ______ ____
ROOT
ATOM      1  C   UNL     1       6.170   6.520  16.601  0.00  0.00    +0.000 A 
ATOM      2  N   UNL     1       7.018   7.585  16.814  0.00  0.00    +0.000 N 
ATOM      3  C   UNL     1       7.734   7.419  17.980  0.00  0.00    +0.000 A 
ATOM      4  C   UNL     1       7.288   6.232  18.542  0.00  0.00    +0.000 A 
ATOM      5  C   UNL     1       6.310   5.675  17.686  0.00  0.00    +0.000 A 
ATOM      6  H   UNL     1       7.073   8.408  16.233  0.00  0.00    +0.000 HD
ENDROOT
BRANCH   1   8
ATOM      7  C   UNL     1       5.568   5.366  14.632  0.00  0.00    +0.000 C 
ATOM      8  O   UNL     1       5.337   6.419  15.560  0.00  0.00    +0.000 OA
ENDBRANCH   1   8
BRANCH   3   9
ATOM      9  N   UNL     1       8.595   8.339  18.477  0.00  0.00    +0.000 NA
ATOM     10  C   UNL     1       8.451   9.597  18.211  0.00  0.00    +0.000 C 
BRANCH  10  11
ATOM     11  C   UNL     1       9.425  10.587  18.726  0.00  0.00    +0.000 A 
ATOM     12  C   UNL     1      10.259  11.280  17.839  0.00  0.00    +0.000 A 
ATOM     13  C   UNL     1      11.184  12.203  18.325  0.00  0.00    +0.000 A 
ATOM     14  C   UNL     1      11.279  12.438  19.696  0.00  0.00    +0.000 A 
ATOM     15  C   UNL     1      10.440  11.758  20.582  0.00  0.00    +0.000 A 
ATOM     16  C   UNL     1       9.509  10.833  20.100  0.00  0.00    +0.000 A 
ENDBRANCH  10  11
ENDBRANCH   3   9
BRANCH   4  17
ATOM     17  C   UNL     1       7.736   5.708  19.792  0.00  0.00    +0.000 C 
ATOM     18  N   UNL     1       8.108   5.258  20.798  0.00  0.00    +0.000 NA
ENDBRANCH   4  17
BRANCH   5  19
ATOM     19  C   UNL     1       5.576   4.465  17.886  0.00  0.00    +0.000 C 
ATOM     20  N   UNL     1       4.996   3.472  18.045  0.00  0.00    +0.000 NA
ENDBRANCH   5  19
TORSDOF 5
ENDMDL
MODEL 4
REMARK VINA RESULT:      -6.4      4.387      7.614
REMARK  Name = 
REMARK  6 active torsions:
REMARK  status: ('A' for Active; 'I' for Inactive)
REMARK    1  A    between atoms: C_1  and  O_2
REMARK    2  A    between atoms: O_2  and  C_3
REMARK    3  A    between atoms: C_5  and  N_6
REMARK    4  A    between atoms: C_7  and  C_8
REMARK    5  A    between atoms: C_14  and  C_15
REMARK    6  A    between atoms: C_17  and  C_18
REMARK                            x       y       z     vdW  Elec       q    Type
REMARK                         _______ _______ _______ _____ _____    ______ ____
ROOT
ATOM      1  C   UNL     1       6.095   6.406  16.630  0.00  0.00    +0.000 A 
ATOM      2  N   UNL     1       6.975   7.455  16.781  0.00  0.00    +0.000 N 
ATOM      3  C   UNL     1       7.707   7.321  17.941  0.00  0.00    +0.000 A 
ATOM      4  C   UNL     1       7.239   6.173  18.563  0.00  0.00    +0.000 A 
ATOM      5  C   UNL     1       6.231   5.606  17.749  0.00  0.00    +0.000 A 
ATOM      6  H   UNL     1       7.041   8.250  16.164  0.00  0.00    +0.000 HD
ENDROOT
BRANCH   1   8
ATOM      7  C   UNL     1       5.543   5.313  14.612  0.00  0.00    +0.000 C 
ATOM      8  O   UNL     1       5.241   6.282  15.608  0.00  0.00    +0.000 OA
ENDBRANCH   1   8
BRANCH   3   9
ATOM      9  N   UNL     1       8.601   8.237  18.383  0.00  0.00    +0.000 NA
ATOM     10  C   UNL     1       8.364   9.505  18.271  0.00  0.00    +0.000 C 
BRANCH  10  11
ATOM     11  C   UNL     1       9.370  10.496  18.719  0.00  0.00    +0.000 A 
ATOM     12  C   UNL     1       9.476  10.825  20.076  0.00  0.00    +0.000 A 
ATOM     13  C   UNL     1      10.415  11.767  20.497  0.00  0.00    +0.000 A 
ATOM     14  C   UNL     1      11.250  12.381  19.564  0.00  0.00    +0.000 A 
ATOM     15  C   UNL     1      11.155  12.046  18.212  0.00  0.00    +0.000 A 
ATOM     16  C   UNL     1      10.217  11.100  17.785  0.00  0.00    +0.000 A 
ENDBRANCH  10  11
ENDBRANCH   3   9
BRANCH   4  17
ATOM     17  C   UNL     1       7.695   5.691  19.827  0.00  0.00    +0.000 C 
ATOM     18  N   UNL     1       8.087   5.289  20.845  0.00  0.00    +0.000 NA
ENDBRANCH   4  17
BRANCH   5  19
ATOM     19  C   UNL     1       5.469   4.426  18.014  0.00  0.00    +0.000 C 
ATOM     20  N   UNL     1       4.865   3.461  18.239  0.00  0.00    +0.000 NA
ENDBRANCH   5  19
TORSDOF 5
ENDMDL
MODEL 5
REMARK VINA RESULT:      -6.3      2.876      7.186
REMARK  Name = 
REMARK  6 active torsions:
REMARK  status: ('A' for Active; 'I' for Inactive)
REMARK    1  A    between atoms: C_1  and  O_2
REMARK    2  A    between atoms: O_2  and  C_3
REMARK    3  A    between atoms: C_5  and  N_6
REMARK    4  A    between atoms: C_7  and  C_8
REMARK    5  A    between atoms: C_14  and  C_15
REMARK    6  A    between atoms: C_17  and  C_18
REMARK                            x       y       z     vdW  Elec       q    Type
REMARK                         _______ _______ _______ _____ _____    ______ ____
ROOT
ATOM      1  C   UNL     1       2.647   5.529  19.243  0.00  0.00    +0.000 A 
ATOM      2  N   UNL     1       3.168   5.595  17.969  0.00  0.00    +0.000 N 
ATOM      3  C   UNL     1       3.566   4.348  17.536  0.00  0.00    +0.000 A 
ATOM      4  C   UNL     1       3.331   3.479  18.591  0.00  0.00    +0.000 A 
ATOM      5  C   UNL     1       2.764   4.215  19.656  0.00  0.00    +0.000 A 
ATOM      6  H   UNL     1       3.299   6.442  17.439  0.00  0.00    +0.000 HD
ENDROOT
BRANCH   1   8
ATOM      7  C   UNL     1       2.178   7.842  19.258  0.00  0.00    +0.000 C 
ATOM      8  O   UNL     1       2.200   6.588  19.927  0.00  0.00    +0.000 OA
ENDBRANCH   1   8
BRANCH   3   9
ATOM      9  N   UNL     1       4.176   4.119  16.348  0.00  0.00    +0.000 NA
ATOM     10  C   UNL     1       5.224   4.793  15.997  0.00  0.00    +0.000 C 
BRANCH  10  11
ATOM     11  C   UNL     1       5.854   4.561  14.676  0.00  0.00    +0.000 A 
ATOM     12  C   UNL     1       7.093   5.142  14.378  0.00  0.00    +0.000 A 
ATOM     13  C   UNL     1       7.681   4.933  13.131  0.00  0.00    +0.000 A 
ATOM     14  C   UNL     1       7.035   4.145  12.180  0.00  0.00    +0.000 A 
ATOM     15  C   UNL     1       5.805   3.555  12.479  0.00  0.00    +0.000 A 
ATOM     16  C   UNL     1       5.212   3.758  13.729  0.00  0.00    +0.000 A 
ENDBRANCH  10  11
ENDBRANCH   3   9
BRANCH   4  17
ATOM     17  C   UNL     1       3.651   2.087  18.582  0.00  0.00    +0.000 C 
ATOM     18  N   UNL     1       3.892   0.950  18.591  0.00  0.00    +0.000 NA
ENDBRANCH   4  17
BRANCH   5  19
ATOM     19  C   UNL     1       2.379   3.720  20.940  0.00  0.00    +0.000 C 
ATOM     20  N   UNL     1       2.049   3.322  21.979  0.00  0.00    +0.000 NA
ENDBRANCH   5  19
TORSDOF 5
ENDMDL
MODEL 6
REMARK VINA RESULT:      -6.3      2.886      7.230
REMARK  Name = 
REMARK  6 active torsions:
REMARK  status: ('A' for Active; 'I' for Inactive)
REMARK    1  A    between atoms: C_1  and  O_2
REMARK    2  A    between atoms: O_2  and  C_3
REMARK    3  A    between atoms: C_5  and  N_6
REMARK    4  A    between atoms: C_7  and  C_8
REMARK    5  A    between atoms: C_14  and  C_15
REMARK    6  A    between atoms: C_17  and  C_18
REMARK                            x       y       z     vdW  Elec       q    Type
REMARK                         _______ _______ _______ _____ _____    ______ ____
ROOT
ATOM      1  C   UNL     1       2.867   5.650  19.338  0.00  0.00    +0.000 A 
ATOM      2  N   UNL     1       3.372   5.737  18.058  0.00  0.00    +0.000 N 
ATOM      3  C   UNL     1       3.659   4.485  17.557  0.00  0.00    +0.000 A 
ATOM      4  C   UNL     1       3.369   3.586  18.572  0.00  0.00    +0.000 A 
ATOM      5  C   UNL     1       2.881   4.312  19.683  0.00  0.00    +0.000 A 
ATOM      6  H   UNL     1       3.564   6.597  17.567  0.00  0.00    +0.000 HD
ENDROOT
BRANCH   1   8
ATOM      7  C   UNL     1       2.039   7.859  19.402  0.00  0.00    +0.000 C 
ATOM      8  O   UNL     1       2.519   6.706  20.081  0.00  0.00    +0.000 OA
ENDBRANCH   1   8
BRANCH   3   9
ATOM      9  N   UNL     1       4.230   4.267  16.348  0.00  0.00    +0.000 NA
ATOM     10  C   UNL     1       5.388   4.768  16.058  0.00  0.00    +0.000 C 
BRANCH  10  11
ATOM     11  C   UNL     1       5.980   4.557  14.717  0.00  0.00    +0.000 A 
ATOM     12  C   UNL     1       5.361   3.695  13.803  0.00  0.00    +0.000 A 
ATOM     13  C   UNL     1       5.924   3.487  12.545  0.00  0.00    +0.000 A 
ATOM     14  C   UNL     1       7.106   4.139  12.195  0.00  0.00    +0.000 A 
ATOM     15  C   UNL     1       7.719   5.009  13.100  0.00  0.00    +0.000 A 
ATOM     16  C   UNL     1       7.157   5.223  14.362  0.00  0.00    +0.000 A 
ENDBRANCH  10  11
ENDBRANCH   3   9
BRANCH   4  17
ATOM     17  C   UNL     1       3.573   2.175  18.489  0.00  0.00    +0.000 C 
ATOM     18  N   UNL     1       3.750   1.030  18.398  0.00  0.00    +0.000 NA
ENDBRANCH   4  17
BRANCH   5  19
ATOM     19  C   UNL     1       2.476   3.785  20.948  0.00  0.00    +0.000 C 
ATOM     20  N   UNL     1       2.166   3.357  21.981  0.00  0.00    +0.000 NA
ENDBRANCH   5  19
TORSDOF 5
ENDMDL
MODEL 7
REMARK VINA RESULT:      -5.9      4.642      6.539
REMARK  Name = 
REMARK  6 active torsions:
REMARK  status: ('A' for Active; 'I' for Inactive)
REMARK    1  A    between atoms: C_1  and  O_2
REMARK    2  A    between atoms: O_2  and  C_3
REMARK    3  A    between atoms: C_5  and  N_6
REMARK    4  A    between atoms: C_7  and  C_8
REMARK    5  A    between atoms: C_14  and  C_15
REMARK    6  A    between atoms: C_17  and  C_18
REMARK                            x       y       z     vdW  Elec       q    Type
REMARK                         _______ _______ _______ _____ _____    ______ ____
ROOT
ATOM      1  C   UNL     1       3.658   5.662  17.942  0.00  0.00    +0.000 A 
ATOM      2  N   UNL     1       3.103   6.732  18.609  0.00  0.00    +0.000 N 
ATOM      3  C   UNL     1       2.380   6.308  19.704  0.00  0.00    +0.000 A 
ATOM      4  C   UNL     1       2.445   4.923  19.697  0.00  0.00    +0.000 A 
ATOM      5  C   UNL     1       3.237   4.520  18.597  0.00  0.00    +0.000 A 
ATOM      6  H   UNL     1       3.161   7.694  18.313  0.00  0.00    +0.000 HD
ENDROOT
BRANCH   1   8
ATOM      7  C   UNL     1       5.525   6.630  16.871  0.00  0.00    +0.000 C 
ATOM      8  O   UNL     1       4.394   5.769  16.831  0.00  0.00    +0.000 OA
ENDBRANCH   1   8
BRANCH   3   9
ATOM      9  N   UNL     1       1.669   7.134  20.508  0.00  0.00    +0.000 NA
ATOM     10  C   UNL     1       1.410   8.351  20.150  0.00  0.00    +0.000 C 
BRANCH  10  11
ATOM     11  C   UNL     1       0.668   9.257  21.058  0.00  0.00    +0.000 A 
ATOM     12  C   UNL     1       0.423   8.877  22.383  0.00  0.00    +0.000 A 
ATOM     13  C   UNL     1      -0.285   9.724  23.234  0.00  0.00    +0.000 A 
ATOM     14  C   UNL     1      -0.749  10.952  22.766  0.00  0.00    +0.000 A 
ATOM     15  C   UNL     1      -0.496  11.339  21.448  0.00  0.00    +0.000 A 
ATOM     16  C   UNL     1       0.217  10.495  20.590  0.00  0.00    +0.000 A 
ENDBRANCH  10  11
ENDBRANCH   3   9
BRANCH   4  17
ATOM     17  C   UNL     1       1.784   4.075  20.637  0.00  0.00    +0.000 C 
ATOM     18  N   UNL     1       1.251   3.364  21.387  0.00  0.00    +0.000 NA
ENDBRANCH   4  17
BRANCH   5  19
ATOM     19  C   UNL     1       3.553   3.183  18.204  0.00  0.00    +0.000 C 
ATOM     20  N   UNL     1       3.797   2.099  17.870  0.00  0.00    +0.000 NA
ENDBRANCH   5  19
TORSDOF 5
ENDMDL
MODEL 8
REMARK VINA RESULT:      -5.9      2.987      6.965
REMARK  Name = 
REMARK  6 active torsions:
REMARK  status: ('A' for Active; 'I' for Inactive)
REMARK    1  A    between atoms: C_1  and  O_2
REMARK    2  A    between atoms: O_2  and  C_3
REMARK    3  A    between atoms: C_5  and  N_6
REMARK    4  A    between atoms: C_7  and  C_8
REMARK    5  A    between atoms: C_14  and  C_15
REMARK    6  A    between atoms: C_17  and  C_18
REMARK                            x       y       z     vdW  Elec       q    Type
REMARK                         _______ _______ _______ _____ _____    ______ ____
ROOT
ATOM      1  C   UNL     1       3.324   4.219  19.460  0.00  0.00    +0.000 A 
ATOM      2  N   UNL     1       4.072   4.001  18.323  0.00  0.00    +0.000 N 
ATOM      3  C   UNL     1       4.132   5.140  17.549  0.00  0.00    +0.000 A 
ATOM      4  C   UNL     1       3.360   6.091  18.199  0.00  0.00    +0.000 A 
ATOM      5  C   UNL     1       2.852   5.516  19.386  0.00  0.00    +0.000 A 
ATOM      6  H   UNL     1       4.474   3.117  18.054  0.00  0.00    +0.000 HD
ENDROOT
BRANCH   1   8
ATOM      7  C   UNL     1       1.869   2.545  20.267  0.00  0.00    +0.000 C 
ATOM      8  O   UNL     1       3.077   3.287  20.386  0.00  0.00    +0.000 OA
ENDBRANCH   1   8
BRANCH   3   9
ATOM      9  N   UNL     1       4.742   5.202  16.341  0.00  0.00    +0.000 NA
ATOM     10  C   UNL     1       5.300   4.156  15.822  0.00  0.00    +0.000 C 
BRANCH  10  11
ATOM     11  C   UNL     1       6.001   4.250  14.520  0.00  0.00    +0.000 A 
ATOM     12  C   UNL     1       7.144   5.049  14.393  0.00  0.00    +0.000 A 
ATOM     13  C   UNL     1       7.796   5.146  13.164  0.00  0.00    +0.000 A 
ATOM     14  C   UNL     1       7.310   4.445  12.061  0.00  0.00    +0.000 A 
ATOM     15  C   UNL     1       6.178   3.639  12.188  0.00  0.00    +0.000 A 
ATOM     16  C   UNL     1       5.521   3.535  13.418  0.00  0.00    +0.000 A 
ENDBRANCH  10  11
ENDBRANCH   3   9
BRANCH   4  17
ATOM     17  C   UNL     1       3.111   7.408  17.706  0.00  0.00    +0.000 C 
ATOM     18  N   UNL     1       2.884   8.474  17.300  0.00  0.00    +0.000 NA
ENDBRANCH   4  17
BRANCH   5  19
ATOM     19  C   UNL     1       1.997   6.136  20.349  0.00  0.00    +0.000 C 
ATOM     20  N   UNL     1       1.289   6.640  21.117  0.00  0.00    +0.000 NA
ENDBRANCH   5  19
TORSDOF 5
ENDMDL
MODEL 9
REMARK VINA RESULT:      -5.9      2.630      6.974
REMARK  Name = 
REMARK  6 active torsions:
REMARK  status: ('A' for Active; 'I' for Inactive)
REMARK    1  A    between atoms: C_1  and  O_2
REMARK    2  A    between atoms: O_2  and  C_3
REMARK    3  A    between atoms: C_5  and  N_6
REMARK    4  A    between atoms: C_7  and  C_8
REMARK    5  A    between atoms: C_14  and  C_15
REMARK    6  A    between atoms: C_17  and  C_18
REMARK                            x       y       z     vdW  Elec       q    Type
REMARK                         _______ _______ _______ _____ _____    ______ ____
ROOT
ATOM      1  C   UNL     1       3.835   3.042  19.015  0.00  0.00    +0.000 A 
ATOM      2  N   UNL     1       4.506   3.041  17.811  0.00  0.00    +0.000 N 
ATOM      3  C   UNL     1       4.500   4.297  17.243  0.00  0.00    +0.000 A 
ATOM      4  C   UNL     1       3.761   5.103  18.097  0.00  0.00    +0.000 A 
ATOM      5  C   UNL     1       3.343   4.321  19.197  0.00  0.00    +0.000 A 
ATOM      6  H   UNL     1       4.900   2.226  17.368  0.00  0.00    +0.000 HD
ENDROOT
BRANCH   1   8
ATOM      7  C   UNL     1       4.723   1.596  20.656  0.00  0.00    +0.000 C 
ATOM      8  O   UNL     1       3.663   1.959  19.780  0.00  0.00    +0.000 OA
ENDBRANCH   1   8
BRANCH   3   9
ATOM      9  N   UNL     1       5.024   4.580  16.027  0.00  0.00    +0.000 NA
ATOM     10  C   UNL     1       5.858   3.771  15.457  0.00  0.00    +0.000 C 
BRANCH  10  11
ATOM     11  C   UNL     1       6.457   4.115  14.147  0.00  0.00    +0.000 A 
ATOM     12  C   UNL     1       7.399   5.147  14.054  0.00  0.00    +0.000 A 
ATOM     13  C   UNL     1       7.955   5.479  12.818  0.00  0.00    +0.000 A 
ATOM     14  C   UNL     1       7.572   4.780  11.674  0.00  0.00    +0.000 A 
ATOM     15  C   UNL     1       6.643   3.743  11.765  0.00  0.00    +0.000 A 
ATOM     16  C   UNL     1       6.084   3.404  13.002  0.00  0.00    +0.000 A 
ENDBRANCH  10  11
ENDBRANCH   3   9
BRANCH   4  17
ATOM     17  C   UNL     1       3.463   6.479  17.857  0.00  0.00    +0.000 C 
ATOM     18  N   UNL     1       3.219   7.603  17.688  0.00  0.00    +0.000 NA
ENDBRANCH   4  17
BRANCH   5  19
ATOM     19  C   UNL     1       2.548   4.745  20.306  0.00  0.00    +0.000 C 
ATOM     20  N   UNL     1       1.901   5.072  21.213  0.00  0.00    +0.000 NA
ENDBRANCH   5  19
TORSDOF 5
ENDMDL
