MODEL 1
REMARK VINA RESULT:      -9.3      0.000      0.000
REMARK  Name = 
REMARK  5 active torsions:
REMARK  status: ('A' for Active; 'I' for Inactive)
REMARK    1  A    between atoms: C_2  and  C_3
REMARK    2  A    between atoms: C_3  and  N_4
REMARK    3  A    between atoms: C_8  and  N_9
REMARK    4  A    between atoms: N_9  and  S_10
REMARK    5  A    between atoms: S_10  and  C_13
REMARK                            x       y       z     vdW  Elec       q    Type
REMARK                         _______ _______ _______ _____ _____    ______ ____
ROOT
ATOM      1  N   UNL     1       3.836   3.050  18.166  0.00  0.00    +0.000 N 
ATOM      2  C   UNL     1       2.695   2.279  17.696  0.00  0.00    +0.000 C 
ATOM      3  C   UNL     1       1.406   2.647  18.406  0.00  0.00    +0.000 C 
ATOM      4  C   UNL     1       1.618   2.572  19.911  0.00  0.00    +0.000 C 
ATOM      5  C   UNL     1       2.757   3.489  20.379  0.00  0.00    +0.000 C 
ATOM      6  C   UNL     1       4.007   3.339  19.513  0.00  0.00    +0.000 C 
ATOM      7  O   UNL     1       5.125   3.614  19.962  0.00  0.00    +0.000 OA
ENDROOT
BRANCH   5   8
ATOM      8  N   UNL     1       2.259   4.895  20.453  0.00  0.00    +0.000 NA
ATOM      9  H   UNL     1       2.423   5.365  21.344  0.00  0.00    +0.000 HD
BRANCH   8  10
ATOM     10  S   UNL     1       2.734   5.966  19.221  0.00  0.00    +0.000 S 
ATOM     11  O   UNL     1       4.163   6.140  19.407  0.00  0.00    +0.000 OA
ATOM     12  O   UNL     1       2.223   5.484  17.965  0.00  0.00    +0.000 OA
BRANCH  10  13
ATOM     13  C   UNL     1       1.986   7.517  19.663  0.00  0.00    +0.000 A 
ATOM     14  C   UNL     1       1.864   8.528  18.711  0.00  0.00    +0.000 A 
ATOM     15  C   UNL     1       1.201   9.718  19.046  0.00  0.00    +0.000 A 
ATOM     16  C   UNL     1       0.660   9.901  20.331  0.00  0.00    +0.000 A 
ATOM     17  C   UNL     1      -0.014  11.083  20.689  0.00  0.00    +0.000 A 
ATOM     18  C   UNL     1      -0.540  11.233  21.972  0.00  0.00    +0.000 A 
ATOM     19 CL   UNL     1      -1.358  12.690  22.397  0.00  0.00    +0.000 Cl
ATOM     20  C   UNL     1      -0.410  10.223  22.917  0.00  0.00    +0.000 A 
ATOM     21  C   UNL     1       0.255   9.043  22.578  0.00  0.00    +0.000 A 
ATOM     22  C   UNL     1       0.791   8.870  21.291  0.00  0.00    +0.000 A 
ATOM     23  C   UNL     1       1.451   7.680  20.943  0.00  0.00    +0.000 A 
ENDBRANCH  10  13
ENDBRANCH   8  10
ENDBRANCH   5   8
BRANCH   1  24
ATOM     24  C   UNL     1       5.027   3.082  17.316  0.00  0.00    +0.000 C 
BRANCH  24  26
ATOM     25  O   UNL     1       4.485   4.848  15.737  0.00  0.00    +0.000 OA
ATOM     26  C   UNL     1       5.291   4.391  16.548  0.00  0.00    +0.000 C 
ATOM     27  N   UNL     1       6.480   5.051  16.862  0.00  0.00    +0.000 N 
ATOM     28  C   UNL     1       7.499   4.568  17.793  0.00  0.00    +0.000 C 
ATOM     29  C   UNL     1       7.677   5.559  18.941  0.00  0.00    +0.000 C 
ATOM     30  C   UNL     1       7.965   6.966  18.415  0.00  0.00    +0.000 C 
ATOM     31  C   UNL     1       6.927   7.401  17.378  0.00  0.00    +0.000 C 
ATOM     32  C   UNL     1       6.763   6.356  16.274  0.00  0.00    +0.000 C 
ENDBRANCH  24  26
ENDBRANCH   1  24
TORSDOF 5
ENDMDL
MODEL 2
REMARK VINA RESULT:      -9.2      3.902      6.291
REMARK  Name = 
REMARK  5 active torsions:
REMARK  status: ('A' for Active; 'I' for Inactive)
REMARK    1  A    between atoms: C_2  and  C_3
REMARK    2  A    between atoms: C_3  and  N_4
REMARK    3  A    between atoms: C_8  and  N_9
REMARK    4  A    between atoms: N_9  and  S_10
REMARK    5  A    between atoms: S_10  and  C_13
REMARK                            x       y       z     vdW  Elec       q    Type
REMARK                         _______ _______ _______ _____ _____    ______ ____
ROOT
ATOM      1  N   UNL     1       1.879   7.741  19.044  0.00  0.00    +0.000 N 
ATOM      2  C   UNL     1       1.848   7.468  20.474  0.00  0.00    +0.000 C 
ATOM      3  C   UNL     1       0.834   8.323  21.211  0.00  0.00    +0.000 C 
ATOM      4  C   UNL     1       1.066   9.788  20.870  0.00  0.00    +0.000 C 
ATOM      5  C   UNL     1       0.976  10.051  19.360  0.00  0.00    +0.000 C 
ATOM      6  C   UNL     1       1.784   9.035  18.553  0.00  0.00    +0.000 C 
ATOM      7  O   UNL     1       2.209   9.316  17.428  0.00  0.00    +0.000 OA
ENDROOT
BRANCH   5   8
ATOM      8  N   UNL     1      -0.460  10.115  18.956  0.00  0.00    +0.000 NA
ATOM      9  H   UNL     1      -1.110   9.658  19.597  0.00  0.00    +0.000 HD
BRANCH   8  10
ATOM     10  S   UNL     1      -1.106  11.642  18.582  0.00  0.00    +0.000 S 
ATOM     11  O   UNL     1       0.009  12.562  18.707  0.00  0.00    +0.000 OA
ATOM     12  O   UNL     1      -1.830  11.548  17.341  0.00  0.00    +0.000 OA
BRANCH  10  13
ATOM     13  C   UNL     1      -2.201  12.008  19.934  0.00  0.00    +0.000 A 
ATOM     14  C   UNL     1      -1.701  12.089  21.233  0.00  0.00    +0.000 A 
ATOM     15  C   UNL     1      -2.555  12.457  22.282  0.00  0.00    +0.000 A 
ATOM     16  C   UNL     1      -3.910  12.745  22.037  0.00  0.00    +0.000 A 
ATOM     17  C   UNL     1      -4.785  13.122  23.073  0.00  0.00    +0.000 A 
ATOM     18  C   UNL     1      -6.123  13.402  22.797  0.00  0.00    +0.000 A 
ATOM     19 CL   UNL     1      -7.184  13.857  24.077  0.00  0.00    +0.000 Cl
ATOM     20  C   UNL     1      -6.616  13.315  21.500  0.00  0.00    +0.000 A 
ATOM     21  C   UNL     1      -5.760  12.943  20.461  0.00  0.00    +0.000 A 
ATOM     22  C   UNL     1      -4.409  12.659  20.717  0.00  0.00    +0.000 A 
ATOM     23  C   UNL     1      -3.543  12.295  19.672  0.00  0.00    +0.000 A 
ENDBRANCH  10  13
ENDBRANCH   8  10
ENDBRANCH   5   8
BRANCH   1  24
ATOM     24  C   UNL     1       2.504   6.739  18.179  0.00  0.00    +0.000 C 
BRANCH  24  26
ATOM     25  O   UNL     1       4.574   5.948  19.178  0.00  0.00    +0.000 OA
ATOM     26  C   UNL     1       3.408   5.700  18.869  0.00  0.00    +0.000 C 
ATOM     27  N   UNL     1       2.809   4.474  19.163  0.00  0.00    +0.000 N 
ATOM     28  C   UNL     1       1.443   4.090  18.812  0.00  0.00    +0.000 C 
ATOM     29  C   UNL     1       0.640   3.785  20.074  0.00  0.00    +0.000 C 
ATOM     30  C   UNL     1       1.350   2.744  20.942  0.00  0.00    +0.000 C 
ATOM     31  C   UNL     1       2.804   3.138  21.214  0.00  0.00    +0.000 C 
ATOM     32  C   UNL     1       3.548   3.469  19.920  0.00  0.00    +0.000 C 
ENDBRANCH  24  26
ENDBRANCH   1  24
TORSDOF 5
ENDMDL
MODEL 3
REMARK VINA RESULT:      -9.2      5.244      9.976
REMARK  Name = 
REMARK  5 active torsions:
REMARK  status: ('A' for Active; 'I' for Inactive)
REMARK    1  A    between atoms: C_2  and  C_3
REMARK    2  A    between atoms: C_3  and  N_4
REMARK    3  A    between atoms: C_8  and  N_9
REMARK    4  A    between atoms: N_9  and  S_10
REMARK    5  A    between atoms: S_10  and  C_13
REMARK                            x       y       z     vdW  Elec       q    Type
REMARK                         _______ _______ _______ _____ _____    ______ ____
ROOT
ATOM      1  N   UNL     1      -1.344  12.393  19.885  0.00  0.00    +0.000 N 
ATOM      2  C   UNL     1      -0.553  13.290  19.055  0.00  0.00    +0.000 C 
ATOM      3  C   UNL     1       0.811  12.721  18.711  0.00  0.00    +0.000 C 
ATOM      4  C   UNL     1       1.514  12.288  19.989  0.00  0.00    +0.000 C 
ATOM      5  C   UNL     1       0.696  11.254  20.777  0.00  0.00    +0.000 C 
ATOM      6  C   UNL     1      -0.767  11.670  20.920  0.00  0.00    +0.000 C 
ATOM      7  O   UNL     1      -1.456  11.249  21.855  0.00  0.00    +0.000 OA
ENDROOT
BRANCH   5   8
ATOM      8  N   UNL     1       0.866   9.910  20.149  0.00  0.00    +0.000 NA
ATOM      9  H   UNL     1       1.674   9.822  19.529  0.00  0.00    +0.000 HD
BRANCH   8  10
ATOM     10  S   UNL     1       0.865   8.554  21.175  0.00  0.00    +0.000 S 
ATOM     11  O   UNL     1       1.674   8.947  22.314  0.00  0.00    +0.000 OA
ATOM     12  O   UNL     1      -0.493   8.121  21.368  0.00  0.00    +0.000 OA
BRANCH  10  13
ATOM     13  C   UNL     1       1.810   7.329  20.299  0.00  0.00    +0.000 A 
ATOM     14  C   UNL     1       1.723   5.987  20.667  0.00  0.00    +0.000 A 
ATOM     15  C   UNL     1       2.408   5.019  19.920  0.00  0.00    +0.000 A 
ATOM     16  C   UNL     1       3.183   5.387  18.806  0.00  0.00    +0.000 A 
ATOM     17  C   UNL     1       3.876   4.433  18.038  0.00  0.00    +0.000 A 
ATOM     18  C   UNL     1       4.635   4.831  16.938  0.00  0.00    +0.000 A 
ATOM     19 CL   UNL     1       5.482   3.650  16.010  0.00  0.00    +0.000 Cl
ATOM     20  C   UNL     1       4.722   6.171  16.580  0.00  0.00    +0.000 A 
ATOM     21  C   UNL     1       4.040   7.130  17.331  0.00  0.00    +0.000 A 
ATOM     22  C   UNL     1       3.268   6.751  18.442  0.00  0.00    +0.000 A 
ATOM     23  C   UNL     1       2.572   7.713  19.193  0.00  0.00    +0.000 A 
ENDBRANCH  10  13
ENDBRANCH   8  10
ENDBRANCH   5   8
BRANCH   1  24
ATOM     24  C   UNL     1      -2.786  12.633  19.955  0.00  0.00    +0.000 C 
BRANCH  24  26
ATOM     25  O   UNL     1      -3.167  11.224  18.012  0.00  0.00    +0.000 OA
ATOM     26  C   UNL     1      -3.656  11.910  18.909  0.00  0.00    +0.000 C 
ATOM     27  N   UNL     1      -5.036  12.044  19.071  0.00  0.00    +0.000 N 
ATOM     28  C   UNL     1      -5.697  12.855  20.092  0.00  0.00    +0.000 C 
ATOM     29  C   UNL     1      -6.568  11.973  20.984  0.00  0.00    +0.000 C 
ATOM     30  C   UNL     1      -7.547  11.143  20.153  0.00  0.00    +0.000 C 
ATOM     31  C   UNL     1      -6.828  10.377  19.038  0.00  0.00    +0.000 C 
ATOM     32  C   UNL     1      -5.944  11.302  18.202  0.00  0.00    +0.000 C 
ENDBRANCH  24  26
ENDBRANCH   1  24
TORSDOF 5
ENDMDL
MODEL 4
REMARK VINA RESULT:      -9.2      5.310     10.102
REMARK  Name = 
REMARK  5 active torsions:
REMARK  status: ('A' for Active; 'I' for Inactive)
REMARK    1  A    between atoms: C_2  and  C_3
REMARK    2  A    between atoms: C_3  and  N_4
REMARK    3  A    between atoms: C_8  and  N_9
REMARK    4  A    between atoms: N_9  and  S_10
REMARK    5  A    between atoms: S_10  and  C_13
REMARK                            x       y       z     vdW  Elec       q    Type
REMARK                         _______ _______ _______ _____ _____    ______ ____
ROOT
ATOM      1  N   UNL     1      -1.407  12.766  20.137  0.00  0.00    +0.000 N 
ATOM      2  C   UNL     1      -0.630  13.600  19.231  0.00  0.00    +0.000 C 
ATOM      3  C   UNL     1       0.703  12.977  18.861  0.00  0.00    +0.000 C 
ATOM      4  C   UNL     1       1.449  12.588  20.129  0.00  0.00    +0.000 C 
ATOM      5  C   UNL     1       0.639  11.617  21.000  0.00  0.00    +0.000 C 
ATOM      6  C   UNL     1      -0.806  12.080  21.182  0.00  0.00    +0.000 C 
ATOM      7  O   UNL     1      -1.465  11.723  22.164  0.00  0.00    +0.000 OA
ENDROOT
BRANCH   5   8
ATOM      8  N   UNL     1       0.748  10.239  20.434  0.00  0.00    +0.000 NA
ATOM      9  H   UNL     1       1.501  10.109  19.757  0.00  0.00    +0.000 HD
BRANCH   8  10
ATOM     10  S   UNL     1       0.820   8.940  21.528  0.00  0.00    +0.000 S 
ATOM     11  O   UNL     1       1.885   9.287  22.450  0.00  0.00    +0.000 OA
ATOM     12  O   UNL     1      -0.506   8.675  22.021  0.00  0.00    +0.000 OA
BRANCH  10  13
ATOM     13  C   UNL     1       1.428   7.576  20.563  0.00  0.00    +0.000 A 
ATOM     14  C   UNL     1       2.136   7.816  19.386  0.00  0.00    +0.000 A 
ATOM     15  C   UNL     1       2.681   6.737  18.675  0.00  0.00    +0.000 A 
ATOM     16  C   UNL     1       2.521   5.418  19.136  0.00  0.00    +0.000 A 
ATOM     17  C   UNL     1       3.064   4.320  18.442  0.00  0.00    +0.000 A 
ATOM     18  C   UNL     1       2.888   3.025  18.926  0.00  0.00    +0.000 A 
ATOM     19 CL   UNL     1       3.553   1.690  18.062  0.00  0.00    +0.000 Cl
ATOM     20  C   UNL     1       2.176   2.793  20.098  0.00  0.00    +0.000 A 
ATOM     21  C   UNL     1       1.633   3.871  20.799  0.00  0.00    +0.000 A 
ATOM     22  C   UNL     1       1.800   5.185  20.330  0.00  0.00    +0.000 A 
ATOM     23  C   UNL     1       1.263   6.272  21.038  0.00  0.00    +0.000 A 
ENDBRANCH  10  13
ENDBRANCH   8  10
ENDBRANCH   5   8
BRANCH   1  24
ATOM     24  C   UNL     1      -2.838  13.049  20.254  0.00  0.00    +0.000 C 
BRANCH  24  26
ATOM     25  O   UNL     1      -3.355  11.450  18.498  0.00  0.00    +0.000 OA
ATOM     26  C   UNL     1      -3.780  12.224  19.356  0.00  0.00    +0.000 C 
ATOM     27  N   UNL     1      -5.145  12.374  19.607  0.00  0.00    +0.000 N 
ATOM     28  C   UNL     1      -5.733  13.284  20.589  0.00  0.00    +0.000 C 
ATOM     29  C   UNL     1      -6.527  12.498  21.629  0.00  0.00    +0.000 C 
ATOM     30  C   UNL     1      -7.560  11.587  20.962  0.00  0.00    +0.000 C 
ATOM     31  C   UNL     1      -6.922  10.713  19.880  0.00  0.00    +0.000 C 
ATOM     32  C   UNL     1      -6.110  11.548  18.889  0.00  0.00    +0.000 C 
ENDBRANCH  24  26
ENDBRANCH   1  24
TORSDOF 5
ENDMDL
MODEL 5
REMARK VINA RESULT:      -9.1      3.808      6.148
REMARK  Name = 
REMARK  5 active torsions:
REMARK  status: ('A' for Active; 'I' for Inactive)
REMARK    1  A    between atoms: C_2  and  C_3
REMARK    2  A    between atoms: C_3  and  N_4
REMARK    3  A    between atoms: C_8  and  N_9
REMARK    4  A    between atoms: N_9  and  S_10
REMARK    5  A    between atoms: S_10  and  C_13
REMARK                            x       y       z     vdW  Elec       q    Type
REMARK                         _______ _______ _______ _____ _____    ______ ____
ROOT
ATOM      1  N   UNL     1       1.876   7.763  19.119  0.00  0.00    +0.000 N 
ATOM      2  C   UNL     1       1.934   7.475  20.546  0.00  0.00    +0.000 C 
ATOM      3  C   UNL     1       0.903   8.252  21.343  0.00  0.00    +0.000 C 
ATOM      4  C   UNL     1       1.018   9.733  21.010  0.00  0.00    +0.000 C 
ATOM      5  C   UNL     1       0.836  10.003  19.510  0.00  0.00    +0.000 C 
ATOM      6  C   UNL     1       1.668   9.052  18.651  0.00  0.00    +0.000 C 
ATOM      7  O   UNL     1       2.017   9.372  17.510  0.00  0.00    +0.000 OA
ENDROOT
BRANCH   5   8
ATOM      8  N   UNL     1      -0.620   9.974  19.177  0.00  0.00    +0.000 NA
ATOM      9  H   UNL     1      -1.242   9.822  19.973  0.00  0.00    +0.000 HD
BRANCH   8  10
ATOM     10  S   UNL     1      -1.251  11.274  18.283  0.00  0.00    +0.000 S 
ATOM     11  O   UNL     1      -0.231  12.305  18.351  0.00  0.00    +0.000 OA
ATOM     12  O   UNL     1      -1.699  10.785  17.006  0.00  0.00    +0.000 OA
BRANCH  10  13
ATOM     13  C   UNL     1      -2.616  11.867  19.257  0.00  0.00    +0.000 A 
ATOM     14  C   UNL     1      -3.906  11.852  18.729  0.00  0.00    +0.000 A 
ATOM     15  C   UNL     1      -4.987  12.245  19.532  0.00  0.00    +0.000 A 
ATOM     16  C   UNL     1      -4.781  12.654  20.862  0.00  0.00    +0.000 A 
ATOM     17  C   UNL     1      -5.850  13.047  21.689  0.00  0.00    +0.000 A 
ATOM     18  C   UNL     1      -5.613  13.446  23.004  0.00  0.00    +0.000 A 
ATOM     19 CL   UNL     1      -6.932  13.930  24.002  0.00  0.00    +0.000 Cl
ATOM     20  C   UNL     1      -4.323  13.462  23.522  0.00  0.00    +0.000 A 
ATOM     21  C   UNL     1      -3.252  13.073  22.715  0.00  0.00    +0.000 A 
ATOM     22  C   UNL     1      -3.468  12.667  21.388  0.00  0.00    +0.000 A 
ATOM     23  C   UNL     1      -2.394  12.265  20.577  0.00  0.00    +0.000 A 
ENDBRANCH  10  13
ENDBRANCH   8  10
ENDBRANCH   5   8
BRANCH   1  24
ATOM     24  C   UNL     1       2.522   6.814  18.212  0.00  0.00    +0.000 C 
BRANCH  24  26
ATOM     25  O   UNL     1       4.602   5.982  19.156  0.00  0.00    +0.000 OA
ATOM     26  C   UNL     1       3.430   5.750  18.859  0.00  0.00    +0.000 C 
ATOM     27  N   UNL     1       2.826   4.521  19.130  0.00  0.00    +0.000 N 
ATOM     28  C   UNL     1       1.452   4.156  18.791  0.00  0.00    +0.000 C 
ATOM     29  C   UNL     1       0.667   3.822  20.057  0.00  0.00    +0.000 C 
ATOM     30  C   UNL     1       1.383   2.754  20.885  0.00  0.00    +0.000 C 
ATOM     31  C   UNL     1       2.844   3.130  21.144  0.00  0.00    +0.000 C 
ATOM     32  C   UNL     1       3.570   3.490  19.847  0.00  0.00    +0.000 C 
ENDBRANCH  24  26
ENDBRANCH   1  24
TORSDOF 5
ENDMDL
MODEL 6
REMARK VINA RESULT:      -9.0      5.123     10.032
REMARK  Name = 
REMARK  5 active torsions:
REMARK  status: ('A' for Active; 'I' for Inactive)
REMARK    1  A    between atoms: C_2  and  C_3
REMARK    2  A    between atoms: C_3  and  N_4
REMARK    3  A    between atoms: C_8  and  N_9
REMARK    4  A    between atoms: N_9  and  S_10
REMARK    5  A    between atoms: S_10  and  C_13
REMARK                            x       y       z     vdW  Elec       q    Type
REMARK                         _______ _______ _______ _____ _____    ______ ____
ROOT
ATOM      1  N   UNL     1      -0.873  11.433  22.439  0.00  0.00    +0.000 N 
ATOM      2  C   UNL     1      -0.794  10.308  23.360  0.00  0.00    +0.000 C 
ATOM      3  C   UNL     1       0.080   9.183  22.837  0.00  0.00    +0.000 C 
ATOM      4  C   UNL     1      -0.376   8.799  21.437  0.00  0.00    +0.000 C 
ATOM      5  C   UNL     1      -0.334   9.990  20.469  0.00  0.00    +0.000 C 
ATOM      6  C   UNL     1      -0.979  11.239  21.069  0.00  0.00    +0.000 C 
ATOM      7  O   UNL     1      -1.447  12.121  20.342  0.00  0.00    +0.000 OA
ENDROOT
BRANCH   5   8
ATOM      8  N   UNL     1       1.073  10.213  20.022  0.00  0.00    +0.000 NA
ATOM      9  H   UNL     1       1.787   9.774  20.607  0.00  0.00    +0.000 HD
BRANCH   8  10
ATOM     10  S   UNL     1       1.454   9.853  18.405  0.00  0.00    +0.000 S 
ATOM     11  O   UNL     1       0.171   9.683  17.748  0.00  0.00    +0.000 OA
ATOM     12  O   UNL     1       2.390  10.833  17.920  0.00  0.00    +0.000 OA
BRANCH  10  13
ATOM     13  C   UNL     1       2.193   8.237  18.467  0.00  0.00    +0.000 A 
ATOM     14  C   UNL     1       3.207   7.900  17.573  0.00  0.00    +0.000 A 
ATOM     15  C   UNL     1       3.840   6.653  17.681  0.00  0.00    +0.000 A 
ATOM     16  C   UNL     1       3.460   5.740  18.682  0.00  0.00    +0.000 A 
ATOM     17  C   UNL     1       4.084   4.486  18.815  0.00  0.00    +0.000 A 
ATOM     18  C   UNL     1       3.685   3.604  19.818  0.00  0.00    +0.000 A 
ATOM     19 CL   UNL     1       4.455   2.068  19.964  0.00  0.00    +0.000 Cl
ATOM     20  C   UNL     1       2.669   3.945  20.704  0.00  0.00    +0.000 A 
ATOM     21  C   UNL     1       2.041   5.187  20.587  0.00  0.00    +0.000 A 
ATOM     22  C   UNL     1       2.428   6.091  19.584  0.00  0.00    +0.000 A 
ATOM     23  C   UNL     1       1.806   7.345  19.470  0.00  0.00    +0.000 A 
ENDBRANCH  10  13
ENDBRANCH   8  10
ENDBRANCH   5   8
BRANCH   1  24
ATOM     24  C   UNL     1      -1.339  12.712  22.975  0.00  0.00    +0.000 C 
BRANCH  24  26
ATOM     25  O   UNL     1      -3.506  11.958  23.775  0.00  0.00    +0.000 OA
ATOM     26  C   UNL     1      -2.854  12.844  23.224  0.00  0.00    +0.000 C 
ATOM     27  N   UNL     1      -3.432  14.050  22.825  0.00  0.00    +0.000 N 
ATOM     28  C   UNL     1      -2.737  15.142  22.145  0.00  0.00    +0.000 C 
ATOM     29  C   UNL     1      -2.793  16.411  22.991  0.00  0.00    +0.000 C 
ATOM     30  C   UNL     1      -4.234  16.762  23.368  0.00  0.00    +0.000 C 
ATOM     31  C   UNL     1      -4.956  15.567  23.996  0.00  0.00    +0.000 C 
ATOM     32  C   UNL     1      -4.836  14.316  23.125  0.00  0.00    +0.000 C 
ENDBRANCH  24  26
ENDBRANCH   1  24
TORSDOF 5
ENDMDL
MODEL 7
REMARK VINA RESULT:      -8.9      4.753      8.779
REMARK  Name = 
REMARK  5 active torsions:
REMARK  status: ('A' for Active; 'I' for Inactive)
REMARK    1  A    between atoms: C_2  and  C_3
REMARK    2  A    between atoms: C_3  and  N_4
REMARK    3  A    between atoms: C_8  and  N_9
REMARK    4  A    between atoms: N_9  and  S_10
REMARK    5  A    between atoms: S_10  and  C_13
REMARK                            x       y       z     vdW  Elec       q    Type
REMARK                         _______ _______ _______ _____ _____    ______ ____
ROOT
ATOM      1  N   UNL     1      -0.915  11.712  21.707  0.00  0.00    +0.000 N 
ATOM      2  C   UNL     1      -0.888  10.913  22.924  0.00  0.00    +0.000 C 
ATOM      3  C   UNL     1       0.018   9.701  22.809  0.00  0.00    +0.000 C 
ATOM      4  C   UNL     1      -0.354   8.910  21.563  0.00  0.00    +0.000 C 
ATOM      5  C   UNL     1      -0.258   9.761  20.289  0.00  0.00    +0.000 C 
ATOM      6  C   UNL     1      -0.940  11.118  20.454  0.00  0.00    +0.000 C 
ATOM      7  O   UNL     1      -1.367  11.735  19.472  0.00  0.00    +0.000 OA
ENDROOT
BRANCH   5   8
ATOM      8  N   UNL     1       1.173   9.869  19.875  0.00  0.00    +0.000 NA
ATOM      9  H   UNL     1       1.835   9.378  20.478  0.00  0.00    +0.000 HD
BRANCH   8  10
ATOM     10  S   UNL     1       1.561   9.470  18.268  0.00  0.00    +0.000 S 
ATOM     11  O   UNL     1       0.282   9.257  17.617  0.00  0.00    +0.000 OA
ATOM     12  O   UNL     1       2.478  10.454  17.756  0.00  0.00    +0.000 OA
BRANCH  10  13
ATOM     13  C   UNL     1       2.331   7.871  18.377  0.00  0.00    +0.000 A 
ATOM     14  C   UNL     1       3.388   7.548  17.528  0.00  0.00    +0.000 A 
ATOM     15  C   UNL     1       4.042   6.316  17.675  0.00  0.00    +0.000 A 
ATOM     16  C   UNL     1       3.642   5.405  18.669  0.00  0.00    +0.000 A 
ATOM     17  C   UNL     1       4.286   4.165  18.839  0.00  0.00    +0.000 A 
ATOM     18  C   UNL     1       3.866   3.284  19.835  0.00  0.00    +0.000 A 
ATOM     19 CL   UNL     1       4.662   1.767  20.027  0.00  0.00    +0.000 Cl
ATOM     20  C   UNL     1       2.808   3.611  20.675  0.00  0.00    +0.000 A 
ATOM     21  C   UNL     1       2.159   4.838  20.520  0.00  0.00    +0.000 A 
ATOM     22  C   UNL     1       2.567   5.741  19.525  0.00  0.00    +0.000 A 
ATOM     23  C   UNL     1       1.923   6.980  19.373  0.00  0.00    +0.000 A 
ENDBRANCH  10  13
ENDBRANCH   8  10
ENDBRANCH   5   8
BRANCH   1  24
ATOM     24  C   UNL     1      -1.416  13.084  21.811  0.00  0.00    +0.000 C 
BRANCH  24  26
ATOM     25  O   UNL     1      -0.551  14.422  23.646  0.00  0.00    +0.000 OA
ATOM     26  C   UNL     1      -0.471  14.116  22.457  0.00  0.00    +0.000 C 
ATOM     27  N   UNL     1       0.510  14.648  21.619  0.00  0.00    +0.000 N 
ATOM     28  C   UNL     1       0.661  14.356  20.194  0.00  0.00    +0.000 C 
ATOM     29  C   UNL     1       2.024  13.724  19.926  0.00  0.00    +0.000 C 
ATOM     30  C   UNL     1       3.154  14.592  20.482  0.00  0.00    +0.000 C 
ATOM     31  C   UNL     1       2.917  14.950  21.952  0.00  0.00    +0.000 C 
ATOM     32  C   UNL     1       1.524  15.543  22.167  0.00  0.00    +0.000 C 
ENDBRANCH  24  26
ENDBRANCH   1  24
TORSDOF 5
ENDMDL
MODEL 8
REMARK VINA RESULT:      -8.8      3.067      4.698
REMARK  Name = 
REMARK  5 active torsions:
REMARK  status: ('A' for Active; 'I' for Inactive)
REMARK    1  A    between atoms: C_2  and  C_3
REMARK    2  A    between atoms: C_3  and  N_4
REMARK    3  A    between atoms: C_8  and  N_9
REMARK    4  A    between atoms: N_9  and  S_10
REMARK    5  A    between atoms: S_10  and  C_13
REMARK                            x       y       z     vdW  Elec       q    Type
REMARK                         _______ _______ _______ _____ _____    ______ ____
ROOT
ATOM      1  N   UNL     1       2.888   7.111  19.153  0.00  0.00    +0.000 N 
ATOM      2  C   UNL     1       2.946   7.882  17.919  0.00  0.00    +0.000 C 
ATOM      3  C   UNL     1       2.295   9.246  18.050  0.00  0.00    +0.000 C 
ATOM      4  C   UNL     1       0.888   9.084  18.605  0.00  0.00    +0.000 C 
ATOM      5  C   UNL     1       0.884   8.367  19.963  0.00  0.00    +0.000 C 
ATOM      6  C   UNL     1       1.753   7.111  19.952  0.00  0.00    +0.000 C 
ATOM      7  O   UNL     1       1.537   6.185  20.740  0.00  0.00    +0.000 OA
ENDROOT
BRANCH   5   8
ATOM      8  N   UNL     1       1.266   9.337  21.033  0.00  0.00    +0.000 NA
ATOM      9  H   UNL     1       1.443  10.289  20.710  0.00  0.00    +0.000 HD
BRANCH   8  10
ATOM     10  S   UNL     1       0.258   9.445  22.398  0.00  0.00    +0.000 S 
ATOM     11  O   UNL     1      -0.650   8.319  22.281  0.00  0.00    +0.000 OA
ATOM     12  O   UNL     1       1.079   9.593  23.570  0.00  0.00    +0.000 OA
BRANCH  10  13
ATOM     13  C   UNL     1      -0.723  10.900  22.115  0.00  0.00    +0.000 A 
ATOM     14  C   UNL     1      -0.631  11.578  20.900  0.00  0.00    +0.000 A 
ATOM     15  C   UNL     1      -1.466  12.677  20.655  0.00  0.00    +0.000 A 
ATOM     16  C   UNL     1      -2.395  13.102  21.622  0.00  0.00    +0.000 A 
ATOM     17  C   UNL     1      -3.248  14.199  21.396  0.00  0.00    +0.000 A 
ATOM     18  C   UNL     1      -4.160  14.595  22.375  0.00  0.00    +0.000 A 
ATOM     19 CL   UNL     1      -5.193  15.943  22.087  0.00  0.00    +0.000 Cl
ATOM     20  C   UNL     1      -4.243  13.917  23.586  0.00  0.00    +0.000 A 
ATOM     21  C   UNL     1      -3.404  12.826  23.825  0.00  0.00    +0.000 A 
ATOM     22  C   UNL     1      -2.481  12.409  22.852  0.00  0.00    +0.000 A 
ATOM     23  C   UNL     1      -1.644  11.306  23.085  0.00  0.00    +0.000 A 
ENDBRANCH  10  13
ENDBRANCH   8  10
ENDBRANCH   5   8
BRANCH   1  24
ATOM     24  C   UNL     1       3.802   5.975  19.284  0.00  0.00    +0.000 C 
BRANCH  24  26
ATOM     25  O   UNL     1       2.691   4.379  17.827  0.00  0.00    +0.000 OA
ATOM     26  C   UNL     1       3.746   4.914  18.169  0.00  0.00    +0.000 C 
ATOM     27  N   UNL     1       4.959   4.629  17.540  0.00  0.00    +0.000 N 
ATOM     28  C   UNL     1       6.256   5.200  17.899  0.00  0.00    +0.000 C 
ATOM     29  C   UNL     1       6.837   5.974  16.718  0.00  0.00    +0.000 C 
ATOM     30  C   UNL     1       6.892   5.104  15.461  0.00  0.00    +0.000 C 
ATOM     31  C   UNL     1       5.538   4.453  15.168  0.00  0.00    +0.000 C 
ATOM     32  C   UNL     1       4.988   3.725  16.395  0.00  0.00    +0.000 C 
ENDBRANCH  24  26
ENDBRANCH   1  24
TORSDOF 5
ENDMDL
MODEL 9
REMARK VINA RESULT:      -8.8      3.980      5.837
REMARK  Name = 
REMARK  5 active torsions:
REMARK  status: ('A' for Active; 'I' for Inactive)
REMARK    1  A    between atoms: C_2  and  C_3
REMARK    2  A    between atoms: C_3  and  N_4
REMARK    3  A    between atoms: C_8  and  N_9
REMARK    4  A    between atoms: N_9  and  S_10
REMARK    5  A    between atoms: S_10  and  C_13
REMARK                            x       y       z     vdW  Elec       q    Type
REMARK                         _______ _______ _______ _____ _____    ______ ____
ROOT
ATOM      1  N   UNL     1       1.782   7.810  19.086  0.00  0.00    +0.000 N 
ATOM      2  C   UNL     1       1.753   7.619  20.529  0.00  0.00    +0.000 C 
ATOM      3  C   UNL     1       0.770   8.543  21.223  0.00  0.00    +0.000 C 
ATOM      4  C   UNL     1       1.043   9.979  20.800  0.00  0.00    +0.000 C 
ATOM      5  C   UNL     1       0.950  10.160  19.278  0.00  0.00    +0.000 C 
ATOM      6  C   UNL     1       1.721   9.077  18.524  0.00  0.00    +0.000 C 
ATOM      7  O   UNL     1       2.145   9.282  17.382  0.00  0.00    +0.000 OA
ENDROOT
BRANCH   5   8
ATOM      8  N   UNL     1      -0.487  10.245  18.879  0.00  0.00    +0.000 NA
ATOM      9  H   UNL     1      -1.136   9.756  19.497  0.00  0.00    +0.000 HD
BRANCH   8  10
ATOM     10  S   UNL     1      -1.134  11.789  18.584  0.00  0.00    +0.000 S 
ATOM     11  O   UNL     1      -0.018  12.701  18.756  0.00  0.00    +0.000 OA
ATOM     12  O   UNL     1      -1.857  11.759  17.341  0.00  0.00    +0.000 OA
BRANCH  10  13
ATOM     13  C   UNL     1      -2.227  12.086  19.955  0.00  0.00    +0.000 A 
ATOM     14  C   UNL     1      -1.716  12.164  21.249  0.00  0.00    +0.000 A 
ATOM     15  C   UNL     1      -2.573  12.478  22.314  0.00  0.00    +0.000 A 
ATOM     16  C   UNL     1      -3.942  12.713  22.088  0.00  0.00    +0.000 A 
ATOM     17  C   UNL     1      -4.820  13.035  23.140  0.00  0.00    +0.000 A 
ATOM     18  C   UNL     1      -6.172  13.263  22.883  0.00  0.00    +0.000 A 
ATOM     19 CL   UNL     1      -7.237  13.650  24.182  0.00  0.00    +0.000 Cl
ATOM     20  C   UNL     1      -6.675  13.177  21.590  0.00  0.00    +0.000 A 
ATOM     21  C   UNL     1      -5.816  12.860  20.535  0.00  0.00    +0.000 A 
ATOM     22  C   UNL     1      -4.451  12.629  20.772  0.00  0.00    +0.000 A 
ATOM     23  C   UNL     1      -3.583  12.320  19.712  0.00  0.00    +0.000 A 
ENDBRANCH  10  13
ENDBRANCH   8  10
ENDBRANCH   5   8
BRANCH   1  24
ATOM     24  C   UNL     1       2.370   6.744  18.274  0.00  0.00    +0.000 C 
BRANCH  24  26
ATOM     25  O   UNL     1       3.590   5.394  19.886  0.00  0.00    +0.000 OA
ATOM     26  C   UNL     1       3.623   6.053  18.847  0.00  0.00    +0.000 C 
ATOM     27  N   UNL     1       4.788   6.185  18.090  0.00  0.00    +0.000 N 
ATOM     28  C   UNL     1       4.919   6.966  16.860  0.00  0.00    +0.000 C 
ATOM     29  C   UNL     1       5.319   6.059  15.699  0.00  0.00    +0.000 C 
ATOM     30  C   UNL     1       6.576   5.255  16.034  0.00  0.00    +0.000 C 
ATOM     31  C   UNL     1       6.435   4.522  17.371  0.00  0.00    +0.000 C 
ATOM     32  C   UNL     1       5.996   5.470  18.488  0.00  0.00    +0.000 C 
ENDBRANCH  24  26
ENDBRANCH   1  24
TORSDOF 5
ENDMDL
