MODEL 1
REMARK VINA RESULT:      -7.0      0.000      0.000
REMARK  Name = 
REMARK  4 active torsions:
REMARK  status: ('A' for Active; 'I' for Inactive)
REMARK    1  A    between atoms: C_2  and  C_3
REMARK    2  A    between atoms: C_3  and  N_4
REMARK    3  A    between atoms: N_7  and  C_8
REMARK    4  A    between atoms: N_16  and  C_17
REMARK                            x       y       z     vdW  Elec       q    Type
REMARK                         _______ _______ _______ _____ _____    ______ ____
ROOT
ATOM      1  C   UNL     1       3.022   4.720  20.333  0.00  0.00    +0.000 C 
ENDROOT
BRANCH   1   2
ATOM      2  N   UNL     1       3.025   4.009  19.034  0.00  0.00    +0.000 NA
ATOM      3  C   UNL     1       2.755   4.908  17.879  0.00  0.00    +0.000 C 
ATOM      4  C   UNL     1       3.888   5.858  17.432  0.00  0.00    +0.000 C 
ATOM      5  N   UNL     1       5.172   5.163  17.302  0.00  0.00    +0.000 N 
ATOM      6  C   UNL     1       5.529   4.301  18.439  0.00  0.00    +0.000 C 
ATOM      7  C   UNL     1       4.351   3.360  18.814  0.00  0.00    +0.000 C 
BRANCH   5   8
ATOM      8  C   UNL     1       5.761   4.929  16.070  0.00  0.00    +0.000 A 
ATOM      9  C   UNL     1       5.082   4.175  15.096  0.00  0.00    +0.000 A 
ATOM     10  C   UNL     1       5.648   3.899  13.845  0.00  0.00    +0.000 A 
ATOM     11  C   UNL     1       6.916   4.378  13.537  0.00  0.00    +0.000 A 
ATOM     12  C   UNL     1       7.616   5.118  14.483  0.00  0.00    +0.000 A 
ATOM     13  C   UNL     1       7.044   5.383  15.735  0.00  0.00    +0.000 A 
ENDBRANCH   5   8
ENDBRANCH   1   2
BRANCH   1  15
ATOM     14  O   UNL     1       0.733   5.355  20.614  0.00  0.00    +0.000 OA
ATOM     15  C   UNL     1       1.894   5.753  20.466  0.00  0.00    +0.000 C 
ATOM     16  N   UNL     1       2.270   7.082  20.353  0.00  0.00    +0.000 N 
ATOM     17  H   UNL     1       3.219   7.251  20.030  0.00  0.00    +0.000 HD
BRANCH  16  18
ATOM     18  C   UNL     1       1.469   8.205  20.683  0.00  0.00    +0.000 A 
ATOM     19  C   UNL     1       0.995   8.409  21.985  0.00  0.00    +0.000 A 
ATOM     20  C   UNL     1       0.253   9.546  22.320  0.00  0.00    +0.000 A 
ATOM     21  C   UNL     1      -0.009  10.517  21.360  0.00  0.00    +0.000 A 
ATOM     22  C   UNL     1       0.451  10.334  20.057  0.00  0.00    +0.000 A 
ATOM     23  C   UNL     1       1.173   9.181  19.716  0.00  0.00    +0.000 A 
ATOM     24 BR   UNL     1       1.646   8.946  17.890  0.00  0.00    +0.000 Br
ENDBRANCH  16  18
ENDBRANCH   1  15
TORSDOF 4
ENDMDL
MODEL 2
REMARK VINA RESULT:      -7.0      0.211      1.014
REMARK  Name = 
REMARK  4 active torsions:
REMARK  status: ('A' for Active; 'I' for Inactive)
REMARK    1  A    between atoms: C_2  and  C_3
REMARK    2  A    between atoms: C_3  and  N_4
REMARK    3  A    between atoms: N_7  and  C_8
REMARK    4  A    between atoms: N_16  and  C_17
REMARK                            x       y       z     vdW  Elec       q    Type
REMARK                         _______ _______ _______ _____ _____    ______ ____
ROOT
ATOM      1  C   UNL     1       3.035   4.777  20.535  0.00  0.00    +0.000 C 
ENDROOT
BRANCH   1   2
ATOM      2  N   UNL     1       3.076   3.947  19.310  0.00  0.00    +0.000 NA
ATOM      3  C   UNL     1       2.668   4.693  18.089  0.00  0.00    +0.000 C 
ATOM      4  C   UNL     1       3.670   5.714  17.506  0.00  0.00    +0.000 C 
ATOM      5  N   UNL     1       5.021   5.156  17.386  0.00  0.00    +0.000 N 
ATOM      6  C   UNL     1       5.510   4.454  18.582  0.00  0.00    +0.000 C 
ATOM      7  C   UNL     1       4.460   3.431  19.094  0.00  0.00    +0.000 C 
BRANCH   5   8
ATOM      8  C   UNL     1       5.592   4.868  16.156  0.00  0.00    +0.000 A 
ATOM      9  C   UNL     1       6.946   5.166  15.921  0.00  0.00    +0.000 A 
ATOM     10  C   UNL     1       7.558   4.909  14.688  0.00  0.00    +0.000 A 
ATOM     11  C   UNL     1       6.823   4.340  13.654  0.00  0.00    +0.000 A 
ATOM     12  C   UNL     1       5.479   4.044  13.854  0.00  0.00    +0.000 A 
ATOM     13  C   UNL     1       4.874   4.311  15.089  0.00  0.00    +0.000 A 
ENDBRANCH   5   8
ENDBRANCH   1   2
BRANCH   1  15
ATOM     14  O   UNL     1       0.719   5.373  20.585  0.00  0.00    +0.000 OA
ATOM     15  C   UNL     1       1.882   5.791  20.553  0.00  0.00    +0.000 C 
ATOM     16  N   UNL     1       2.245   7.126  20.475  0.00  0.00    +0.000 N 
ATOM     17  H   UNL     1       3.218   7.312  20.248  0.00  0.00    +0.000 HD
BRANCH  16  18
ATOM     18  C   UNL     1       1.395   8.235  20.721  0.00  0.00    +0.000 A 
ATOM     19  C   UNL     1       0.824   8.455  21.980  0.00  0.00    +0.000 A 
ATOM     20  C   UNL     1       0.033   9.580  22.234  0.00  0.00    +0.000 A 
ATOM     21  C   UNL     1      -0.182  10.524  21.236  0.00  0.00    +0.000 A 
ATOM     22  C   UNL     1       0.376  10.324  19.974  0.00  0.00    +0.000 A 
ATOM     23  C   UNL     1       1.148   9.184  19.713  0.00  0.00    +0.000 A 
ATOM     24 BR   UNL     1       1.758   8.922  17.932  0.00  0.00    +0.000 Br
ENDBRANCH  16  18
ENDBRANCH   1  15
TORSDOF 4
ENDMDL
MODEL 3
REMARK VINA RESULT:      -6.7      1.142      1.680
REMARK  Name = 
REMARK  4 active torsions:
REMARK  status: ('A' for Active; 'I' for Inactive)
REMARK    1  A    between atoms: C_2  and  C_3
REMARK    2  A    between atoms: C_3  and  N_4
REMARK    3  A    between atoms: N_7  and  C_8
REMARK    4  A    between atoms: N_16  and  C_17
REMARK                            x       y       z     vdW  Elec       q    Type
REMARK                         _______ _______ _______ _____ _____    ______ ____
ROOT
ATOM      1  C   UNL     1       3.356   6.102  19.323  0.00  0.00    +0.000 C 
ENDROOT
BRANCH   1   2
ATOM      2  N   UNL     1       3.095   5.989  17.870  0.00  0.00    +0.000 NA
ATOM      3  C   UNL     1       3.925   6.919  17.057  0.00  0.00    +0.000 C 
ATOM      4  C   UNL     1       5.419   6.572  16.878  0.00  0.00    +0.000 C 
ATOM      5  N   UNL     1       5.619   5.171  16.492  0.00  0.00    +0.000 N 
ATOM      6  C   UNL     1       4.871   4.193  17.296  0.00  0.00    +0.000 C 
ATOM      7  C   UNL     1       3.376   4.597  17.411  0.00  0.00    +0.000 C 
BRANCH   5   8
ATOM      8  C   UNL     1       6.049   4.811  15.225  0.00  0.00    +0.000 A 
ATOM      9  C   UNL     1       7.232   5.361  14.699  0.00  0.00    +0.000 A 
ATOM     10  C   UNL     1       7.694   5.040  13.417  0.00  0.00    +0.000 A 
ATOM     11  C   UNL     1       6.977   4.150  12.625  0.00  0.00    +0.000 A 
ATOM     12  C   UNL     1       5.798   3.597  13.114  0.00  0.00    +0.000 A 
ATOM     13  C   UNL     1       5.341   3.931  14.396  0.00  0.00    +0.000 A 
ENDBRANCH   5   8
ENDBRANCH   1   2
BRANCH   1  15
ATOM     14  O   UNL     1       1.478   5.911  20.792  0.00  0.00    +0.000 OA
ATOM     15  C   UNL     1       2.176   6.678  20.118  0.00  0.00    +0.000 C 
ATOM     16  N   UNL     1       1.947   8.036  19.969  0.00  0.00    +0.000 N 
ATOM     17  H   UNL     1       2.469   8.499  19.229  0.00  0.00    +0.000 HD
BRANCH  16  18
ATOM     18  C   UNL     1       1.092   8.830  20.776  0.00  0.00    +0.000 A 
ATOM     19  C   UNL     1       1.066   8.695  22.170  0.00  0.00    +0.000 A 
ATOM     20  C   UNL     1       0.263   9.518  22.966  0.00  0.00    +0.000 A 
ATOM     21  C   UNL     1      -0.513  10.513  22.383  0.00  0.00    +0.000 A 
ATOM     22  C   UNL     1      -0.503  10.665  20.997  0.00  0.00    +0.000 A 
ATOM     23  C   UNL     1       0.282   9.823  20.198  0.00  0.00    +0.000 A 
ATOM     24 BR   UNL     1       0.134  10.010  18.312  0.00  0.00    +0.000 Br
ENDBRANCH  16  18
ENDBRANCH   1  15
TORSDOF 4
ENDMDL
MODEL 4
REMARK VINA RESULT:      -6.6      2.102      7.183
REMARK  Name = 
REMARK  4 active torsions:
REMARK  status: ('A' for Active; 'I' for Inactive)
REMARK    1  A    between atoms: C_2  and  C_3
REMARK    2  A    between atoms: C_3  and  N_4
REMARK    3  A    between atoms: N_7  and  C_8
REMARK    4  A    between atoms: N_16  and  C_17
REMARK                            x       y       z     vdW  Elec       q    Type
REMARK                         _______ _______ _______ _____ _____    ______ ____
ROOT
ATOM      1  C   UNL     1       3.039   3.060  19.417  0.00  0.00    +0.000 C 
ENDROOT
BRANCH   1   2
ATOM      2  N   UNL     1       1.798   3.842  19.216  0.00  0.00    +0.000 NA
ATOM      3  C   UNL     1       1.328   4.515  20.457  0.00  0.00    +0.000 C 
ATOM      4  C   UNL     1       2.108   5.759  20.936  0.00  0.00    +0.000 C 
ATOM      5  N   UNL     1       2.348   6.713  19.848  0.00  0.00    +0.000 N 
ATOM      6  C   UNL     1       2.870   6.120  18.607  0.00  0.00    +0.000 C 
ATOM      7  C   UNL     1       2.023   4.891  18.179  0.00  0.00    +0.000 C 
BRANCH   5   8
ATOM      8  C   UNL     1       1.704   7.938  19.788  0.00  0.00    +0.000 A 
ATOM      9  C   UNL     1       1.725   8.689  18.599  0.00  0.00    +0.000 A 
ATOM     10  C   UNL     1       1.104   9.940  18.501  0.00  0.00    +0.000 A 
ATOM     11  C   UNL     1       0.439  10.472  19.599  0.00  0.00    +0.000 A 
ATOM     12  C   UNL     1       0.410   9.758  20.792  0.00  0.00    +0.000 A 
ATOM     13  C   UNL     1       1.040   8.510  20.883  0.00  0.00    +0.000 A 
ENDBRANCH   5   8
ENDBRANCH   1   2
BRANCH   1  15
ATOM     14  O   UNL     1       3.695   2.009  17.371  0.00  0.00    +0.000 OA
ATOM     15  C   UNL     1       3.904   2.943  18.154  0.00  0.00    +0.000 C 
ATOM     16  N   UNL     1       4.911   3.885  18.016  0.00  0.00    +0.000 N 
ATOM     17  H   UNL     1       5.096   4.463  18.832  0.00  0.00    +0.000 HD
BRANCH  16  18
ATOM     18  C   UNL     1       5.664   4.133  16.840  0.00  0.00    +0.000 A 
ATOM     19  C   UNL     1       5.255   3.647  15.592  0.00  0.00    +0.000 A 
ATOM     20  C   UNL     1       5.970   3.941  14.426  0.00  0.00    +0.000 A 
ATOM     21  C   UNL     1       7.098   4.751  14.484  0.00  0.00    +0.000 A 
ATOM     22  C   UNL     1       7.525   5.244  15.716  0.00  0.00    +0.000 A 
ATOM     23  C   UNL     1       6.823   4.928  16.887  0.00  0.00    +0.000 A 
ATOM     24 BR   UNL     1       7.548   5.529  18.539  0.00  0.00    +0.000 Br
ENDBRANCH  16  18
ENDBRANCH   1  15
TORSDOF 4
ENDMDL
MODEL 5
REMARK VINA RESULT:      -6.6      2.873      9.445
REMARK  Name = 
REMARK  4 active torsions:
REMARK  status: ('A' for Active; 'I' for Inactive)
REMARK    1  A    between atoms: C_2  and  C_3
REMARK    2  A    between atoms: C_3  and  N_4
REMARK    3  A    between atoms: N_7  and  C_8
REMARK    4  A    between atoms: N_16  and  C_17
REMARK                            x       y       z     vdW  Elec       q    Type
REMARK                         _______ _______ _______ _____ _____    ______ ____
ROOT
ATOM      1  C   UNL     1       1.575   8.372  20.580  0.00  0.00    +0.000 C 
ENDROOT
BRANCH   1   2
ATOM      2  N   UNL     1       0.163   8.815  20.555  0.00  0.00    +0.000 NA
ATOM      3  C   UNL     1      -0.505   8.703  21.880  0.00  0.00    +0.000 C 
ATOM      4  C   UNL     1      -0.132   9.744  22.959  0.00  0.00    +0.000 C 
ATOM      5  N   UNL     1      -0.165  11.115  22.438  0.00  0.00    +0.000 N 
ATOM      6  C   UNL     1       0.529  11.308  21.156  0.00  0.00    +0.000 C 
ATOM      7  C   UNL     1       0.086  10.241  20.118  0.00  0.00    +0.000 C 
BRANCH   5   8
ATOM      8  C   UNL     1      -1.138  12.024  22.820  0.00  0.00    +0.000 A 
ATOM      9  C   UNL     1      -0.871  13.404  22.774  0.00  0.00    +0.000 A 
ATOM     10  C   UNL     1      -1.819  14.356  23.167  0.00  0.00    +0.000 A 
ATOM     11  C   UNL     1      -3.069  13.946  23.617  0.00  0.00    +0.000 A 
ATOM     12  C   UNL     1      -3.359  12.588  23.683  0.00  0.00    +0.000 A 
ATOM     13  C   UNL     1      -2.401  11.642  23.293  0.00  0.00    +0.000 A 
ENDBRANCH   5   8
ENDBRANCH   1   2
BRANCH   1  15
ATOM     14  O   UNL     1       1.872   8.450  18.207  0.00  0.00    +0.000 OA
ATOM     15  C   UNL     1       2.064   7.799  19.241  0.00  0.00    +0.000 C 
ATOM     16  N   UNL     1       2.646   6.543  19.293  0.00  0.00    +0.000 N 
ATOM     17  H   UNL     1       2.551   6.043  20.174  0.00  0.00    +0.000 HD
BRANCH  16  18
ATOM     18  C   UNL     1       3.385   5.924  18.253  0.00  0.00    +0.000 A 
ATOM     19  C   UNL     1       4.451   6.578  17.623  0.00  0.00    +0.000 A 
ATOM     20  C   UNL     1       5.213   5.943  16.636  0.00  0.00    +0.000 A 
ATOM     21  C   UNL     1       4.938   4.629  16.278  0.00  0.00    +0.000 A 
ATOM     22  C   UNL     1       3.879   3.959  16.890  0.00  0.00    +0.000 A 
ATOM     23  C   UNL     1       3.100   4.604  17.860  0.00  0.00    +0.000 A 
ATOM     24 BR   UNL     1       1.596   3.667  18.548  0.00  0.00    +0.000 Br
ENDBRANCH  16  18
ENDBRANCH   1  15
TORSDOF 4
ENDMDL
MODEL 6
REMARK VINA RESULT:      -6.6      2.885      9.429
REMARK  Name = 
REMARK  4 active torsions:
REMARK  status: ('A' for Active; 'I' for Inactive)
REMARK    1  A    between atoms: C_2  and  C_3
REMARK    2  A    between atoms: C_3  and  N_4
REMARK    3  A    between atoms: N_7  and  C_8
REMARK    4  A    between atoms: N_16  and  C_17
REMARK                            x       y       z     vdW  Elec       q    Type
REMARK                         _______ _______ _______ _____ _____    ______ ____
ROOT
ATOM      1  C   UNL     1       1.683   8.692  20.235  0.00  0.00    +0.000 C 
ENDROOT
BRANCH   1   2
ATOM      2  N   UNL     1       0.271   9.136  20.225  0.00  0.00    +0.000 NA
ATOM      3  C   UNL     1      -0.423   8.897  21.519  0.00  0.00    +0.000 C 
ATOM      4  C   UNL     1      -0.074   9.829  22.700  0.00  0.00    +0.000 C 
ATOM      5  N   UNL     1      -0.098  11.243  22.314  0.00  0.00    +0.000 N 
ATOM      6  C   UNL     1       0.622  11.559  21.071  0.00  0.00    +0.000 C 
ATOM      7  C   UNL     1       0.202  10.597  19.927  0.00  0.00    +0.000 C 
BRANCH   5   8
ATOM      8  C   UNL     1      -1.080  12.112  22.762  0.00  0.00    +0.000 A 
ATOM      9  C   UNL     1      -2.312  11.609  23.219  0.00  0.00    +0.000 A 
ATOM     10  C   UNL     1      -3.338  12.451  23.662  0.00  0.00    +0.000 A 
ATOM     11  C   UNL     1      -3.153  13.829  23.661  0.00  0.00    +0.000 A 
ATOM     12  C   UNL     1      -1.950  14.357  23.206  0.00  0.00    +0.000 A 
ATOM     13  C   UNL     1      -0.931  13.506  22.757  0.00  0.00    +0.000 A 
ENDBRANCH   5   8
ENDBRANCH   1   2
BRANCH   1  15
ATOM     14  O   UNL     1       1.842   8.477  17.858  0.00  0.00    +0.000 OA
ATOM     15  C   UNL     1       2.109   7.965  18.952  0.00  0.00    +0.000 C 
ATOM     16  N   UNL     1       2.726   6.736  19.124  0.00  0.00    +0.000 N 
ATOM     17  H   UNL     1       2.695   6.349  20.064  0.00  0.00    +0.000 HD
BRANCH  16  18
ATOM     18  C   UNL     1       3.420   6.005  18.126  0.00  0.00    +0.000 A 
ATOM     19  C   UNL     1       4.495   6.564  17.425  0.00  0.00    +0.000 A 
ATOM     20  C   UNL     1       5.213   5.821  16.481  0.00  0.00    +0.000 A 
ATOM     21  C   UNL     1       4.883   4.493  16.239  0.00  0.00    +0.000 A 
ATOM     22  C   UNL     1       3.814   3.917  16.924  0.00  0.00    +0.000 A 
ATOM     23  C   UNL     1       3.079   4.669  17.851  0.00  0.00    +0.000 A 
ATOM     24 BR   UNL     1       1.557   3.850  18.641  0.00  0.00    +0.000 Br
ENDBRANCH  16  18
ENDBRANCH   1  15
TORSDOF 4
ENDMDL
MODEL 7
REMARK VINA RESULT:      -6.6      3.023      9.496
REMARK  Name = 
REMARK  4 active torsions:
REMARK  status: ('A' for Active; 'I' for Inactive)
REMARK    1  A    between atoms: C_2  and  C_3
REMARK    2  A    between atoms: C_3  and  N_4
REMARK    3  A    between atoms: N_7  and  C_8
REMARK    4  A    between atoms: N_16  and  C_17
REMARK                            x       y       z     vdW  Elec       q    Type
REMARK                         _______ _______ _______ _____ _____    ______ ____
ROOT
ATOM      1  C   UNL     1       1.479   8.667  20.843  0.00  0.00    +0.000 C 
ENDROOT
BRANCH   1   2
ATOM      2  N   UNL     1      -0.000   8.741  20.830  0.00  0.00    +0.000 NA
ATOM      3  C   UNL     1      -0.587   8.865  22.192  0.00  0.00    +0.000 C 
ATOM      4  C   UNL     1      -0.463  10.231  22.902  0.00  0.00    +0.000 C 
ATOM      5  N   UNL     1      -0.850  11.345  22.031  0.00  0.00    +0.000 N 
ATOM      6  C   UNL     1      -0.257  11.315  20.685  0.00  0.00    +0.000 C 
ATOM      7  C   UNL     1      -0.441   9.920  20.028  0.00  0.00    +0.000 C 
BRANCH   5   8
ATOM      8  C   UNL     1      -2.012  12.071  22.237  0.00  0.00    +0.000 A 
ATOM      9  C   UNL     1      -2.673  12.008  23.477  0.00  0.00    +0.000 A 
ATOM     10  C   UNL     1      -3.858  12.711  23.722  0.00  0.00    +0.000 A 
ATOM     11  C   UNL     1      -4.413  13.504  22.724  0.00  0.00    +0.000 A 
ATOM     12  C   UNL     1      -3.788  13.579  21.485  0.00  0.00    +0.000 A 
ATOM     13  C   UNL     1      -2.606  12.866  21.246  0.00  0.00    +0.000 A 
ENDBRANCH   5   8
ENDBRANCH   1   2
BRANCH   1  15
ATOM     14  O   UNL     1       2.075   7.841  18.679  0.00  0.00    +0.000 OA
ATOM     15  C   UNL     1       2.050   7.605  19.892  0.00  0.00    +0.000 C 
ATOM     16  N   UNL     1       2.449   6.415  20.479  0.00  0.00    +0.000 N 
ATOM     17  H   UNL     1       2.181   6.284  21.452  0.00  0.00    +0.000 HD
BRANCH  16  18
ATOM     18  C   UNL     1       3.224   5.400  19.860  0.00  0.00    +0.000 A 
ATOM     19  C   UNL     1       4.521   5.650  19.396  0.00  0.00    +0.000 A 
ATOM     20  C   UNL     1       5.302   4.632  18.837  0.00  0.00    +0.000 A 
ATOM     21  C   UNL     1       4.807   3.336  18.756  0.00  0.00    +0.000 A 
ATOM     22  C   UNL     1       3.517   3.065  19.211  0.00  0.00    +0.000 A 
ATOM     23  C   UNL     1       2.726   4.090  19.747  0.00  0.00    +0.000 A 
ATOM     24 BR   UNL     1       0.934   3.665  20.219  0.00  0.00    +0.000 Br
ENDBRANCH  16  18
ENDBRANCH   1  15
TORSDOF 4
ENDMDL
MODEL 8
REMARK VINA RESULT:      -6.5      3.025      9.492
REMARK  Name = 
REMARK  4 active torsions:
REMARK  status: ('A' for Active; 'I' for Inactive)
REMARK    1  A    between atoms: C_2  and  C_3
REMARK    2  A    between atoms: C_3  and  N_4
REMARK    3  A    between atoms: N_7  and  C_8
REMARK    4  A    between atoms: N_16  and  C_17
REMARK                            x       y       z     vdW  Elec       q    Type
REMARK                         _______ _______ _______ _____ _____    ______ ____
ROOT
ATOM      1  C   UNL     1       1.652   9.300  19.582  0.00  0.00    +0.000 C 
ENDROOT
BRANCH   1   2
ATOM      2  N   UNL     1       0.198   9.160  19.824  0.00  0.00    +0.000 NA
ATOM      3  C   UNL     1      -0.148   9.100  21.270  0.00  0.00    +0.000 C 
ATOM      4  C   UNL     1      -0.078  10.414  22.077  0.00  0.00    +0.000 C 
ATOM      5  N   UNL     1      -0.756  11.520  21.393  0.00  0.00    +0.000 N 
ATOM      6  C   UNL     1      -0.414  11.673  19.971  0.00  0.00    +0.000 C 
ATOM      7  C   UNL     1      -0.529  10.317  19.223  0.00  0.00    +0.000 C 
BRANCH   5   8
ATOM      8  C   UNL     1      -1.947  12.054  21.859  0.00  0.00    +0.000 A 
ATOM      9  C   UNL     1      -2.294  11.927  23.216  0.00  0.00    +0.000 A 
ATOM     10  C   UNL     1      -3.495  12.435  23.725  0.00  0.00    +0.000 A 
ATOM     11  C   UNL     1      -4.383  13.091  22.881  0.00  0.00    +0.000 A 
ATOM     12  C   UNL     1      -4.072  13.225  21.532  0.00  0.00    +0.000 A 
ATOM     13  C   UNL     1      -2.871  12.706  21.031  0.00  0.00    +0.000 A 
ENDBRANCH   5   8
ENDBRANCH   1   2
BRANCH   1  15
ATOM     14  O   UNL     1       2.051   8.890  17.260  0.00  0.00    +0.000 OA
ATOM     15  C   UNL     1       2.165   8.451  18.410  0.00  0.00    +0.000 C 
ATOM     16  N   UNL     1       2.678   7.207  18.739  0.00  0.00    +0.000 N 
ATOM     17  H   UNL     1       2.522   6.897  19.694  0.00  0.00    +0.000 HD
BRANCH  16  18
ATOM     18  C   UNL     1       3.427   6.362  17.880  0.00  0.00    +0.000 A 
ATOM     19  C   UNL     1       4.485   6.856  17.106  0.00  0.00    +0.000 A 
ATOM     20  C   UNL     1       5.256   6.009  16.303  0.00  0.00    +0.000 A 
ATOM     21  C   UNL     1       5.000   4.643  16.279  0.00  0.00    +0.000 A 
ATOM     22  C   UNL     1       3.950   4.130  17.040  0.00  0.00    +0.000 A 
ATOM     23  C   UNL     1       3.161   4.982  17.824  0.00  0.00    +0.000 A 
ATOM     24 BR   UNL     1       1.669   4.222  18.724  0.00  0.00    +0.000 Br
ENDBRANCH  16  18
ENDBRANCH   1  15
TORSDOF 4
ENDMDL
MODEL 9
REMARK VINA RESULT:      -6.5      3.291      4.514
REMARK  Name = 
REMARK  4 active torsions:
REMARK  status: ('A' for Active; 'I' for Inactive)
REMARK    1  A    between atoms: C_2  and  C_3
REMARK    2  A    between atoms: C_3  and  N_4
REMARK    3  A    between atoms: N_7  and  C_8
REMARK    4  A    between atoms: N_16  and  C_17
REMARK                            x       y       z     vdW  Elec       q    Type
REMARK                         _______ _______ _______ _____ _____    ______ ____
ROOT
ATOM      1  C   UNL     1       6.222   5.996  19.112  0.00  0.00    +0.000 C 
ENDROOT
BRANCH   1   2
ATOM      2  N   UNL     1       7.276   5.789  18.093  0.00  0.00    +0.000 NA
ATOM      3  C   UNL     1       7.334   4.389  17.593  0.00  0.00    +0.000 C 
ATOM      4  C   UNL     1       6.222   3.928  16.626  0.00  0.00    +0.000 C 
ATOM      5  N   UNL     1       5.996   4.892  15.544  0.00  0.00    +0.000 N 
ATOM      6  C   UNL     1       5.870   6.292  15.976  0.00  0.00    +0.000 C 
ATOM      7  C   UNL     1       7.035   6.687  16.925  0.00  0.00    +0.000 C 
BRANCH   5   8
ATOM      8  C   UNL     1       6.353   4.622  14.232  0.00  0.00    +0.000 A 
ATOM      9  C   UNL     1       5.649   3.654  13.494  0.00  0.00    +0.000 A 
ATOM     10  C   UNL     1       5.988   3.338  12.173  0.00  0.00    +0.000 A 
ATOM     11  C   UNL     1       7.047   3.991  11.553  0.00  0.00    +0.000 A 
ATOM     12  C   UNL     1       7.768   4.946  12.261  0.00  0.00    +0.000 A 
ATOM     13  C   UNL     1       7.426   5.251  13.585  0.00  0.00    +0.000 A 
ENDBRANCH   5   8
ENDBRANCH   1   2
BRANCH   1  15
ATOM     14  O   UNL     1       5.607   3.784  19.783  0.00  0.00    +0.000 OA
ATOM     15  C   UNL     1       5.237   4.824  19.226  0.00  0.00    +0.000 C 
ATOM     16  N   UNL     1       4.000   5.009  18.630  0.00  0.00    +0.000 N 
ATOM     17  H   UNL     1       3.909   5.828  18.035  0.00  0.00    +0.000 HD
BRANCH  16  18
ATOM     18  C   UNL     1       2.857   4.188  18.813  0.00  0.00    +0.000 A 
ATOM     19  C   UNL     1       2.709   2.976  18.127  0.00  0.00    +0.000 A 
ATOM     20  C   UNL     1       1.608   2.143  18.351  0.00  0.00    +0.000 A 
ATOM     21  C   UNL     1       0.644   2.496  19.288  0.00  0.00    +0.000 A 
ATOM     22  C   UNL     1       0.770   3.699  19.981  0.00  0.00    +0.000 A 
ATOM     23  C   UNL     1       1.860   4.546  19.737  0.00  0.00    +0.000 A 
ATOM     24 BR   UNL     1       1.886   6.226  20.625  0.00  0.00    +0.000 Br
ENDBRANCH  16  18
ENDBRANCH   1  15
TORSDOF 4
ENDMDL
