MODEL 1
REMARK VINA RESULT:      -8.9      0.000      0.000
REMARK  Name = 
REMARK  4 active torsions:
REMARK  status: ('A' for Active; 'I' for Inactive)
REMARK    1  A    between atoms: C_2  and  C_3
REMARK    2  A    between atoms: C_14  and  O_15
REMARK    3  A    between atoms: O_15  and  C_16
REMARK    4  A    between atoms: C_16  and  C_17
REMARK                            x       y       z     vdW  Elec       q    Type
REMARK                         _______ _______ _______ _____ _____    ______ ____
ROOT
ATOM      1  O   UNL     1       5.727   4.851  19.587  0.00  0.00    +0.000 OA
ATOM      2  C   UNL     1       5.262   4.152  18.684  0.00  0.00    +0.000 C 
ATOM      3  N   UNL     1       4.235   3.231  18.903  0.00  0.00    +0.000 N 
ATOM      4  C   UNL     1       3.666   2.290  17.935  0.00  0.00    +0.000 C 
ATOM      5  C   UNL     1       2.143   2.355  17.880  0.00  0.00    +0.000 C 
ATOM      6  C   UNL     1       1.535   2.254  19.275  0.00  0.00    +0.000 C 
ATOM      7  C   UNL     1       2.101   3.357  20.179  0.00  0.00    +0.000 C 
ATOM      8  C   UNL     1       3.634   3.189  20.245  0.00  0.00    +0.000 C 
ENDROOT
BRANCH   2   9
ATOM      9  C   UNL     1       5.790   4.418  17.328  0.00  0.00    +0.000 A 
ATOM     10  C   UNL     1       4.850   4.691  16.321  0.00  0.00    +0.000 A 
ATOM     11  C   UNL     1       5.266   4.956  15.015  0.00  0.00    +0.000 A 
ATOM     12  C   UNL     1       6.624   4.937  14.701  0.00  0.00    +0.000 A 
ATOM     13  C   UNL     1       7.566   4.702  15.704  0.00  0.00    +0.000 A 
ATOM     14  C   UNL     1       7.146   4.482  17.017  0.00  0.00    +0.000 A 
ATOM     15  F   UNL     1       8.086   4.336  17.963  0.00  0.00    +0.000 F 
ENDBRANCH   2   9
BRANCH   7  16
ATOM     16  O   UNL     1       1.801   4.678  19.682  0.00  0.00    +0.000 OA
BRANCH  16  17
ATOM     17  C   UNL     1       2.419   5.717  20.436  0.00  0.00    +0.000 C 
BRANCH  17  18
ATOM     18  C   UNL     1       2.075   7.093  19.928  0.00  0.00    +0.000 A 
ATOM     19  C   UNL     1       1.374   8.040  20.684  0.00  0.00    +0.000 A 
ATOM     20  C   UNL     1       0.995   9.250  20.102  0.00  0.00    +0.000 A 
ATOM     21  F   UNL     1       0.319  10.149  20.828  0.00  0.00    +0.000 F 
ATOM     22  C   UNL     1       1.312   9.550  18.779  0.00  0.00    +0.000 A 
ATOM     23  C   UNL     1       2.019   8.619  18.021  0.00  0.00    +0.000 A 
ATOM     24  C   UNL     1       2.387   7.407  18.598  0.00  0.00    +0.000 A 
ATOM     25  F   UNL     1       3.050   6.517  17.845  0.00  0.00    +0.000 F 
ENDBRANCH  17  18
ENDBRANCH  16  17
ENDBRANCH   7  16
TORSDOF 4
ENDMDL
MODEL 2
REMARK VINA RESULT:      -8.7      0.763      1.720
REMARK  Name = 
REMARK  4 active torsions:
REMARK  status: ('A' for Active; 'I' for Inactive)
REMARK    1  A    between atoms: C_2  and  C_3
REMARK    2  A    between atoms: C_14  and  O_15
REMARK    3  A    between atoms: O_15  and  C_16
REMARK    4  A    between atoms: C_16  and  C_17
REMARK                            x       y       z     vdW  Elec       q    Type
REMARK                         _______ _______ _______ _____ _____    ______ ____
ROOT
ATOM      1  O   UNL     1       5.532   5.122  19.681  0.00  0.00    +0.000 OA
ATOM      2  C   UNL     1       5.174   4.337  18.801  0.00  0.00    +0.000 C 
ATOM      3  N   UNL     1       4.283   3.290  19.047  0.00  0.00    +0.000 N 
ATOM      4  C   UNL     1       3.857   2.249  18.108  0.00  0.00    +0.000 C 
ATOM      5  C   UNL     1       2.340   2.100  18.049  0.00  0.00    +0.000 C 
ATOM      6  C   UNL     1       1.743   1.960  19.446  0.00  0.00    +0.000 C 
ATOM      7  C   UNL     1       2.145   3.160  20.314  0.00  0.00    +0.000 C 
ATOM      8  C   UNL     1       3.686   3.207  20.389  0.00  0.00    +0.000 C 
ENDROOT
BRANCH   2   9
ATOM      9  C   UNL     1       5.669   4.631  17.438  0.00  0.00    +0.000 A 
ATOM     10  C   UNL     1       4.731   5.112  16.510  0.00  0.00    +0.000 A 
ATOM     11  C   UNL     1       5.117   5.416  15.204  0.00  0.00    +0.000 A 
ATOM     12  C   UNL     1       6.441   5.230  14.809  0.00  0.00    +0.000 A 
ATOM     13  C   UNL     1       7.386   4.787  15.736  0.00  0.00    +0.000 A 
ATOM     14  C   UNL     1       7.003   4.527  17.052  0.00  0.00    +0.000 A 
ATOM     15  F   UNL     1       7.957   4.176  17.928  0.00  0.00    +0.000 F 
ENDBRANCH   2   9
BRANCH   7  16
ATOM     16  O   UNL     1       1.668   4.410  19.774  0.00  0.00    +0.000 OA
BRANCH  16  17
ATOM     17  C   UNL     1       2.044   5.540  20.556  0.00  0.00    +0.000 C 
BRANCH  17  18
ATOM     18  C   UNL     1       1.955   6.836  19.792  0.00  0.00    +0.000 A 
ATOM     19  C   UNL     1       2.506   7.018  18.518  0.00  0.00    +0.000 A 
ATOM     20  C   UNL     1       2.480   8.280  17.925  0.00  0.00    +0.000 A 
ATOM     21  F   UNL     1       3.014   8.451  16.710  0.00  0.00    +0.000 F 
ATOM     22  C   UNL     1       1.902   9.374  18.569  0.00  0.00    +0.000 A 
ATOM     23  C   UNL     1       1.342   9.200  19.832  0.00  0.00    +0.000 A 
ATOM     24  C   UNL     1       1.377   7.943  20.429  0.00  0.00    +0.000 A 
ATOM     25  F   UNL     1       0.849   7.802  21.654  0.00  0.00    +0.000 F 
ENDBRANCH  17  18
ENDBRANCH  16  17
ENDBRANCH   7  16
TORSDOF 4
ENDMDL
MODEL 3
REMARK VINA RESULT:      -8.5      1.437      2.276
REMARK  Name = 
REMARK  4 active torsions:
REMARK  status: ('A' for Active; 'I' for Inactive)
REMARK    1  A    between atoms: C_2  and  C_3
REMARK    2  A    between atoms: C_14  and  O_15
REMARK    3  A    between atoms: O_15  and  C_16
REMARK    4  A    between atoms: C_16  and  C_17
REMARK                            x       y       z     vdW  Elec       q    Type
REMARK                         _______ _______ _______ _____ _____    ______ ____
ROOT
ATOM      1  O   UNL     1       5.934   4.089  19.148  0.00  0.00    +0.000 OA
ATOM      2  C   UNL     1       5.015   3.996  18.330  0.00  0.00    +0.000 C 
ATOM      3  N   UNL     1       3.730   3.586  18.690  0.00  0.00    +0.000 N 
ATOM      4  C   UNL     1       2.590   3.354  17.798  0.00  0.00    +0.000 C 
ATOM      5  C   UNL     1       1.329   4.076  18.262  0.00  0.00    +0.000 C 
ATOM      6  C   UNL     1       1.036   3.789  19.731  0.00  0.00    +0.000 C 
ATOM      7  C   UNL     1       2.242   4.179  20.596  0.00  0.00    +0.000 C 
ATOM      8  C   UNL     1       3.462   3.362  20.119  0.00  0.00    +0.000 C 
ENDROOT
BRANCH   2   9
ATOM      9  C   UNL     1       5.331   4.444  16.956  0.00  0.00    +0.000 A 
ATOM     10  C   UNL     1       5.893   3.492  16.090  0.00  0.00    +0.000 A 
ATOM     11  C   UNL     1       6.219   3.832  14.776  0.00  0.00    +0.000 A 
ATOM     12  C   UNL     1       5.997   5.131  14.320  0.00  0.00    +0.000 A 
ATOM     13  C   UNL     1       5.405   6.072  15.164  0.00  0.00    +0.000 A 
ATOM     14  C   UNL     1       5.042   5.713  16.462  0.00  0.00    +0.000 A 
ATOM     15  F   UNL     1       4.407   6.626  17.214  0.00  0.00    +0.000 F 
ENDBRANCH   2   9
BRANCH   7  16
ATOM     16  O   UNL     1       2.556   5.584  20.494  0.00  0.00    +0.000 OA
BRANCH  16  17
ATOM     17  C   UNL     1       1.568   6.425  21.082  0.00  0.00    +0.000 C 
BRANCH  17  18
ATOM     18  C   UNL     1       1.371   7.713  20.326  0.00  0.00    +0.000 A 
ATOM     19  C   UNL     1       1.875   7.936  19.039  0.00  0.00    +0.000 A 
ATOM     20  C   UNL     1       1.747   9.195  18.452  0.00  0.00    +0.000 A 
ATOM     21  F   UNL     1       2.237   9.405  17.224  0.00  0.00    +0.000 F 
ATOM     22  C   UNL     1       1.114  10.245  19.115  0.00  0.00    +0.000 A 
ATOM     23  C   UNL     1       0.600  10.030  20.392  0.00  0.00    +0.000 A 
ATOM     24  C   UNL     1       0.736   8.777  20.982  0.00  0.00    +0.000 A 
ATOM     25  F   UNL     1       0.252   8.597  22.220  0.00  0.00    +0.000 F 
ENDBRANCH  17  18
ENDBRANCH  16  17
ENDBRANCH   7  16
TORSDOF 4
ENDMDL
MODEL 4
REMARK VINA RESULT:      -8.3      1.242      2.231
REMARK  Name = 
REMARK  4 active torsions:
REMARK  status: ('A' for Active; 'I' for Inactive)
REMARK    1  A    between atoms: C_2  and  C_3
REMARK    2  A    between atoms: C_14  and  O_15
REMARK    3  A    between atoms: O_15  and  C_16
REMARK    4  A    between atoms: C_16  and  C_17
REMARK                            x       y       z     vdW  Elec       q    Type
REMARK                         _______ _______ _______ _____ _____    ______ ____
ROOT
ATOM      1  O   UNL     1       5.412   5.132  19.837  0.00  0.00    +0.000 OA
ATOM      2  C   UNL     1       5.061   4.303  18.994  0.00  0.00    +0.000 C 
ATOM      3  N   UNL     1       4.168   3.271  19.284  0.00  0.00    +0.000 N 
ATOM      4  C   UNL     1       3.749   2.184  18.395  0.00  0.00    +0.000 C 
ATOM      5  C   UNL     1       2.232   2.033  18.329  0.00  0.00    +0.000 C 
ATOM      6  C   UNL     1       1.623   1.963  19.726  0.00  0.00    +0.000 C 
ATOM      7  C   UNL     1       2.018   3.204  20.537  0.00  0.00    +0.000 C 
ATOM      8  C   UNL     1       3.558   3.255  20.622  0.00  0.00    +0.000 C 
ENDROOT
BRANCH   2   9
ATOM      9  C   UNL     1       5.569   4.529  17.622  0.00  0.00    +0.000 A 
ATOM     10  C   UNL     1       6.958   4.455  17.437  0.00  0.00    +0.000 A 
ATOM     11  C   UNL     1       7.518   4.653  16.174  0.00  0.00    +0.000 A 
ATOM     12  C   UNL     1       6.694   4.940  15.087  0.00  0.00    +0.000 A 
ATOM     13  C   UNL     1       5.309   4.979  15.256  0.00  0.00    +0.000 A 
ATOM     14  C   UNL     1       4.753   4.737  16.513  0.00  0.00    +0.000 A 
ATOM     15  F   UNL     1       3.415   4.709  16.615  0.00  0.00    +0.000 F 
ENDBRANCH   2   9
BRANCH   7  16
ATOM     16  O   UNL     1       1.546   4.426  19.931  0.00  0.00    +0.000 OA
BRANCH  16  17
ATOM     17  C   UNL     1       1.897   5.592  20.670  0.00  0.00    +0.000 C 
BRANCH  17  18
ATOM     18  C   UNL     1       1.898   6.841  19.828  0.00  0.00    +0.000 A 
ATOM     19  C   UNL     1       2.541   6.934  18.588  0.00  0.00    +0.000 A 
ATOM     20  C   UNL     1       2.592   8.158  17.922  0.00  0.00    +0.000 A 
ATOM     21  F   UNL     1       3.215   8.243  16.741  0.00  0.00    +0.000 F 
ATOM     22  C   UNL     1       2.001   9.301  18.458  0.00  0.00    +0.000 A 
ATOM     23  C   UNL     1       1.349   9.217  19.686  0.00  0.00    +0.000 A 
ATOM     24  C   UNL     1       1.307   7.998  20.356  0.00  0.00    +0.000 A 
ATOM     25  F   UNL     1       0.691   7.943  21.546  0.00  0.00    +0.000 F 
ENDBRANCH  17  18
ENDBRANCH  16  17
ENDBRANCH   7  16
TORSDOF 4
ENDMDL
MODEL 5
REMARK VINA RESULT:      -8.3      3.007      7.008
REMARK  Name = 
REMARK  4 active torsions:
REMARK  status: ('A' for Active; 'I' for Inactive)
REMARK    1  A    between atoms: C_2  and  C_3
REMARK    2  A    between atoms: C_14  and  O_15
REMARK    3  A    between atoms: O_15  and  C_16
REMARK    4  A    between atoms: C_16  and  C_17
REMARK                            x       y       z     vdW  Elec       q    Type
REMARK                         _______ _______ _______ _____ _____    ______ ____
ROOT
ATOM      1  O   UNL     1       5.290   2.763  19.800  0.00  0.00    +0.000 OA
ATOM      2  C   UNL     1       4.521   3.672  19.478  0.00  0.00    +0.000 C 
ATOM      3  N   UNL     1       4.973   4.899  18.989  0.00  0.00    +0.000 N 
ATOM      4  C   UNL     1       4.164   6.076  18.661  0.00  0.00    +0.000 C 
ATOM      5  C   UNL     1       4.468   6.625  17.271  0.00  0.00    +0.000 C 
ATOM      6  C   UNL     1       5.966   6.827  17.071  0.00  0.00    +0.000 C 
ATOM      7  C   UNL     1       6.713   5.509  17.317  0.00  0.00    +0.000 C 
ATOM      8  C   UNL     1       6.418   5.049  18.761  0.00  0.00    +0.000 C 
ENDROOT
BRANCH   2   9
ATOM      9  C   UNL     1       3.078   3.347  19.548  0.00  0.00    +0.000 A 
ATOM     10  C   UNL     1       2.461   3.459  20.803  0.00  0.00    +0.000 A 
ATOM     11  C   UNL     1       1.103   3.174  20.955  0.00  0.00    +0.000 A 
ATOM     12  C   UNL     1       0.354   2.761  19.854  0.00  0.00    +0.000 A 
ATOM     13  C   UNL     1       0.953   2.681  18.596  0.00  0.00    +0.000 A 
ATOM     14  C   UNL     1       2.300   3.011  18.444  0.00  0.00    +0.000 A 
ATOM     15  F   UNL     1       2.816   2.994  17.205  0.00  0.00    +0.000 F 
ENDBRANCH   2   9
BRANCH   7  16
ATOM     16  O   UNL     1       6.302   4.469  16.406  0.00  0.00    +0.000 OA
BRANCH  16  17
ATOM     17  C   UNL     1       5.447   4.937  15.367  0.00  0.00    +0.000 C 
BRANCH  17  18
ATOM     18  C   UNL     1       5.860   4.447  14.004  0.00  0.00    +0.000 A 
ATOM     19  C   UNL     1       5.092   3.562  13.237  0.00  0.00    +0.000 A 
ATOM     20  C   UNL     1       5.596   3.067  12.035  0.00  0.00    +0.000 A 
ATOM     21  F   UNL     1       4.860   2.216  11.310  0.00  0.00    +0.000 F 
ATOM     22  C   UNL     1       6.853   3.444  11.564  0.00  0.00    +0.000 A 
ATOM     23  C   UNL     1       7.621   4.331  12.314  0.00  0.00    +0.000 A 
ATOM     24  C   UNL     1       7.123   4.818  13.520  0.00  0.00    +0.000 A 
ATOM     25  F   UNL     1       7.887   5.656  14.235  0.00  0.00    +0.000 F 
ENDBRANCH  17  18
ENDBRANCH  16  17
ENDBRANCH   7  16
TORSDOF 4
ENDMDL
MODEL 6
REMARK VINA RESULT:      -8.2      2.846      7.002
REMARK  Name = 
REMARK  4 active torsions:
REMARK  status: ('A' for Active; 'I' for Inactive)
REMARK    1  A    between atoms: C_2  and  C_3
REMARK    2  A    between atoms: C_14  and  O_15
REMARK    3  A    between atoms: O_15  and  C_16
REMARK    4  A    between atoms: C_16  and  C_17
REMARK                            x       y       z     vdW  Elec       q    Type
REMARK                         _______ _______ _______ _____ _____    ______ ____
ROOT
ATOM      1  O   UNL     1       5.312   3.070  19.791  0.00  0.00    +0.000 OA
ATOM      2  C   UNL     1       4.450   3.901  19.495  0.00  0.00    +0.000 C 
ATOM      3  N   UNL     1       4.769   5.186  19.051  0.00  0.00    +0.000 N 
ATOM      4  C   UNL     1       3.838   6.279  18.757  0.00  0.00    +0.000 C 
ATOM      5  C   UNL     1       4.086   6.906  17.388  0.00  0.00    +0.000 C 
ATOM      6  C   UNL     1       5.555   7.275  17.207  0.00  0.00    +0.000 C 
ATOM      7  C   UNL     1       6.439   6.038  17.414  0.00  0.00    +0.000 C 
ATOM      8  C   UNL     1       6.190   5.499  18.839  0.00  0.00    +0.000 C 
ENDROOT
BRANCH   2   9
ATOM      9  C   UNL     1       3.051   3.420  19.542  0.00  0.00    +0.000 A 
ATOM     10  C   UNL     1       2.545   2.821  18.378  0.00  0.00    +0.000 A 
ATOM     11  C   UNL     1       1.235   2.338  18.340  0.00  0.00    +0.000 A 
ATOM     12  C   UNL     1       0.417   2.463  19.462  0.00  0.00    +0.000 A 
ATOM     13  C   UNL     1       0.925   3.025  20.634  0.00  0.00    +0.000 A 
ATOM     14  C   UNL     1       2.249   3.465  20.679  0.00  0.00    +0.000 A 
ATOM     15  F   UNL     1       2.719   3.928  21.848  0.00  0.00    +0.000 F 
ENDBRANCH   2   9
BRANCH   7  16
ATOM     16  O   UNL     1       6.146   4.992  16.464  0.00  0.00    +0.000 OA
BRANCH  16  17
ATOM     17  C   UNL     1       7.262   4.640  15.653  0.00  0.00    +0.000 C 
BRANCH  17  18
ATOM     18  C   UNL     1       6.896   4.452  14.203  0.00  0.00    +0.000 A 
ATOM     19  C   UNL     1       5.837   3.645  13.775  0.00  0.00    +0.000 A 
ATOM     20  C   UNL     1       5.633   3.433  12.411  0.00  0.00    +0.000 A 
ATOM     21  F   UNL     1       4.623   2.654  12.007  0.00  0.00    +0.000 F 
ATOM     22  C   UNL     1       6.458   4.021  11.454  0.00  0.00    +0.000 A 
ATOM     23  C   UNL     1       7.509   4.835  11.870  0.00  0.00    +0.000 A 
ATOM     24  C   UNL     1       7.719   5.038  13.231  0.00  0.00    +0.000 A 
ATOM     25  F   UNL     1       8.748   5.810  13.610  0.00  0.00    +0.000 F 
ENDBRANCH  17  18
ENDBRANCH  16  17
ENDBRANCH   7  16
TORSDOF 4
ENDMDL
MODEL 7
REMARK VINA RESULT:      -8.2      1.610      1.994
REMARK  Name = 
REMARK  4 active torsions:
REMARK  status: ('A' for Active; 'I' for Inactive)
REMARK    1  A    between atoms: C_2  and  C_3
REMARK    2  A    between atoms: C_14  and  O_15
REMARK    3  A    between atoms: O_15  and  C_16
REMARK    4  A    between atoms: C_16  and  C_17
REMARK                            x       y       z     vdW  Elec       q    Type
REMARK                         _______ _______ _______ _____ _____    ______ ____
ROOT
ATOM      1  O   UNL     1       5.295   5.499  19.612  0.00  0.00    +0.000 OA
ATOM      2  C   UNL     1       4.659   4.821  18.802  0.00  0.00    +0.000 C 
ATOM      3  N   UNL     1       3.549   4.058  19.171  0.00  0.00    +0.000 N 
ATOM      4  C   UNL     1       2.774   3.151  18.320  0.00  0.00    +0.000 C 
ATOM      5  C   UNL     1       1.274   3.415  18.398  0.00  0.00    +0.000 C 
ATOM      6  C   UNL     1       0.796   3.469  19.846  0.00  0.00    +0.000 C 
ATOM      7  C   UNL     1       1.583   4.533  20.622  0.00  0.00    +0.000 C 
ATOM      8  C   UNL     1       3.081   4.166  20.561  0.00  0.00    +0.000 C 
ENDROOT
BRANCH   2   9
ATOM      9  C   UNL     1       5.082   4.944  17.389  0.00  0.00    +0.000 A 
ATOM     10  C   UNL     1       5.709   3.827  16.814  0.00  0.00    +0.000 A 
ATOM     11  C   UNL     1       6.136   3.859  15.485  0.00  0.00    +0.000 A 
ATOM     12  C   UNL     1       5.953   5.013  14.725  0.00  0.00    +0.000 A 
ATOM     13  C   UNL     1       5.299   6.114  15.279  0.00  0.00    +0.000 A 
ATOM     14  C   UNL     1       4.834   6.059  16.594  0.00  0.00    +0.000 A 
ATOM     15  F   UNL     1       4.144   7.111  17.062  0.00  0.00    +0.000 F 
ENDBRANCH   2   9
BRANCH   7  16
ATOM     16  O   UNL     1       1.407   5.854  20.069  0.00  0.00    +0.000 OA
BRANCH  16  17
ATOM     17  C   UNL     1       2.051   6.872  20.829  0.00  0.00    +0.000 C 
BRANCH  17  18
ATOM     18  C   UNL     1       1.289   8.173  20.830  0.00  0.00    +0.000 A 
ATOM     19  C   UNL     1       0.491   8.597  21.898  0.00  0.00    +0.000 A 
ATOM     20  C   UNL     1      -0.272   9.759  21.776  0.00  0.00    +0.000 A 
ATOM     21  F   UNL     1      -1.039  10.156  22.798  0.00  0.00    +0.000 F 
ATOM     22  C   UNL     1      -0.250  10.523  20.610  0.00  0.00    +0.000 A 
ATOM     23  C   UNL     1       0.550  10.115  19.545  0.00  0.00    +0.000 A 
ATOM     24  C   UNL     1       1.303   8.950  19.663  0.00  0.00    +0.000 A 
ATOM     25  F   UNL     1       2.050   8.564  18.619  0.00  0.00    +0.000 F 
ENDBRANCH  17  18
ENDBRANCH  16  17
ENDBRANCH   7  16
TORSDOF 4
ENDMDL
MODEL 8
REMARK VINA RESULT:      -8.1      1.344      1.498
REMARK  Name = 
REMARK  4 active torsions:
REMARK  status: ('A' for Active; 'I' for Inactive)
REMARK    1  A    between atoms: C_2  and  C_3
REMARK    2  A    between atoms: C_14  and  O_15
REMARK    3  A    between atoms: O_15  and  C_16
REMARK    4  A    between atoms: C_16  and  C_17
REMARK                            x       y       z     vdW  Elec       q    Type
REMARK                         _______ _______ _______ _____ _____    ______ ____
ROOT
ATOM      1  O   UNL     1       5.983   4.274  19.159  0.00  0.00    +0.000 OA
ATOM      2  C   UNL     1       5.078   4.099  18.340  0.00  0.00    +0.000 C 
ATOM      3  N   UNL     1       3.810   3.647  18.710  0.00  0.00    +0.000 N 
ATOM      4  C   UNL     1       2.691   3.320  17.822  0.00  0.00    +0.000 C 
ATOM      5  C   UNL     1       1.393   4.003  18.240  0.00  0.00    +0.000 C 
ATOM      6  C   UNL     1       1.099   3.775  19.719  0.00  0.00    +0.000 C 
ATOM      7  C   UNL     1       2.277   4.263  20.573  0.00  0.00    +0.000 C 
ATOM      8  C   UNL     1       3.538   3.482  20.146  0.00  0.00    +0.000 C 
ENDROOT
BRANCH   2   9
ATOM      9  C   UNL     1       5.387   4.493  16.948  0.00  0.00    +0.000 A 
ATOM     10  C   UNL     1       5.792   3.473  16.073  0.00  0.00    +0.000 A 
ATOM     11  C   UNL     1       6.100   3.759  14.742  0.00  0.00    +0.000 A 
ATOM     12  C   UNL     1       6.017   5.071  14.278  0.00  0.00    +0.000 A 
ATOM     13  C   UNL     1       5.581   6.085  15.132  0.00  0.00    +0.000 A 
ATOM     14  C   UNL     1       5.232   5.784  16.450  0.00  0.00    +0.000 A 
ATOM     15  F   UNL     1       4.746   6.773  17.214  0.00  0.00    +0.000 F 
ENDBRANCH   2   9
BRANCH   7  16
ATOM     16  O   UNL     1       2.527   5.674  20.404  0.00  0.00    +0.000 OA
BRANCH  16  17
ATOM     17  C   UNL     1       1.433   6.491  20.810  0.00  0.00    +0.000 C 
BRANCH  17  18
ATOM     18  C   UNL     1       1.460   7.860  20.180  0.00  0.00    +0.000 A 
ATOM     19  C   UNL     1       1.004   9.015  20.826  0.00  0.00    +0.000 A 
ATOM     20  C   UNL     1       0.957  10.225  20.135  0.00  0.00    +0.000 A 
ATOM     21  F   UNL     1       0.514  11.324  20.756  0.00  0.00    +0.000 F 
ATOM     22  C   UNL     1       1.368  10.319  18.806  0.00  0.00    +0.000 A 
ATOM     23  C   UNL     1       1.833   9.177  18.156  0.00  0.00    +0.000 A 
ATOM     24  C   UNL     1       1.870   7.967  18.843  0.00  0.00    +0.000 A 
ATOM     25  F   UNL     1       2.303   6.877  18.194  0.00  0.00    +0.000 F 
ENDBRANCH  17  18
ENDBRANCH  16  17
ENDBRANCH   7  16
TORSDOF 4
ENDMDL
MODEL 9
REMARK VINA RESULT:      -8.0      1.021      1.402
REMARK  Name = 
REMARK  4 active torsions:
REMARK  status: ('A' for Active; 'I' for Inactive)
REMARK    1  A    between atoms: C_2  and  C_3
REMARK    2  A    between atoms: C_14  and  O_15
REMARK    3  A    between atoms: O_15  and  C_16
REMARK    4  A    between atoms: C_16  and  C_17
REMARK                            x       y       z     vdW  Elec       q    Type
REMARK                         _______ _______ _______ _____ _____    ______ ____
ROOT
ATOM      1  O   UNL     1       5.583   5.055  19.738  0.00  0.00    +0.000 OA
ATOM      2  C   UNL     1       5.107   4.311  18.878  0.00  0.00    +0.000 C 
ATOM      3  N   UNL     1       4.066   3.421  19.148  0.00  0.00    +0.000 N 
ATOM      4  C   UNL     1       3.482   2.434  18.236  0.00  0.00    +0.000 C 
ATOM      5  C   UNL     1       1.961   2.520  18.175  0.00  0.00    +0.000 C 
ATOM      6  C   UNL     1       1.350   2.511  19.573  0.00  0.00    +0.000 C 
ATOM      7  C   UNL     1       1.933   3.656  20.411  0.00  0.00    +0.000 C 
ATOM      8  C   UNL     1       3.463   3.467  20.489  0.00  0.00    +0.000 C 
ENDROOT
BRANCH   2   9
ATOM      9  C   UNL     1       5.641   4.489  17.509  0.00  0.00    +0.000 A 
ATOM     10  C   UNL     1       7.035   4.430  17.357  0.00  0.00    +0.000 A 
ATOM     11  C   UNL     1       7.619   4.586  16.099  0.00  0.00    +0.000 A 
ATOM     12  C   UNL     1       6.815   4.814  14.983  0.00  0.00    +0.000 A 
ATOM     13  C   UNL     1       5.426   4.838  15.121  0.00  0.00    +0.000 A 
ATOM     14  C   UNL     1       4.847   4.638  16.375  0.00  0.00    +0.000 A 
ATOM     15  F   UNL     1       3.508   4.592  16.450  0.00  0.00    +0.000 F 
ENDBRANCH   2   9
BRANCH   7  16
ATOM     16  O   UNL     1       1.655   4.950  19.836  0.00  0.00    +0.000 OA
BRANCH  16  17
ATOM     17  C   UNL     1       2.243   6.026  20.561  0.00  0.00    +0.000 C 
BRANCH  17  18
ATOM     18  C   UNL     1       1.926   7.374  19.969  0.00  0.00    +0.000 A 
ATOM     19  C   UNL     1       1.152   8.341  20.622  0.00  0.00    +0.000 A 
ATOM     20  C   UNL     1       0.809   9.519  19.960  0.00  0.00    +0.000 A 
ATOM     21  F   UNL     1       0.063  10.436  20.587  0.00  0.00    +0.000 F 
ATOM     22  C   UNL     1       1.232   9.769  18.656  0.00  0.00    +0.000 A 
ATOM     23  C   UNL     1       2.012   8.819  18.000  0.00  0.00    +0.000 A 
ATOM     24  C   UNL     1       2.345   7.638  18.657  0.00  0.00    +0.000 A 
ATOM     25  F   UNL     1       3.080   6.728  18.001  0.00  0.00    +0.000 F 
ENDBRANCH  17  18
ENDBRANCH  16  17
ENDBRANCH   7  16
TORSDOF 4
ENDMDL
