MODEL 1
REMARK VINA RESULT:      -7.3      0.000      0.000
REMARK  Name = 
REMARK  7 active torsions:
REMARK  status: ('A' for Active; 'I' for Inactive)
REMARK    1  A    between atoms: C_1  and  C_2
REMARK    2  A    between atoms: C_8  and  C_9
REMARK    3  A    between atoms: C_9  and  N_10
REMARK    4  A    between atoms: C_11  and  S_12
REMARK    5  A    between atoms: S_12  and  C_13
REMARK    6  A    between atoms: C_13  and  C_14
REMARK    7  A    between atoms: C_14  and  O_16
REMARK                            x       y       z     vdW  Elec       q    Type
REMARK                         _______ _______ _______ _____ _____    ______ ____
ROOT
ATOM      1  N   UNL     1      -3.157  11.947  19.192  0.00  0.00    +0.000 N 
ATOM      2  C   UNL     1      -3.703  11.249  18.106  0.00  0.00    +0.000 A 
ATOM      3  N   UNL     1      -4.946  11.207  17.743  0.00  0.00    +0.000 NA
ATOM      4  C   UNL     1      -5.901  11.896  18.441  0.00  0.00    +0.000 A 
ATOM      5  O   UNL     1      -7.059  11.980  18.050  0.00  0.00    +0.000 OA
ATOM      6  C   UNL     1      -5.412  12.472  19.648  0.00  0.00    +0.000 A 
ATOM      7  S   UNL     1      -6.393  13.196  20.799  0.00  0.00    +0.000 S 
ATOM      8  C   UNL     1      -5.004  13.478  21.811  0.00  0.00    +0.000 A 
ATOM      9  N   UNL     1      -5.158  14.021  23.054  0.00  0.00    +0.000 N 
ATOM     10  C   UNL     1      -6.349  14.782  23.474  0.00  0.00    +0.000 C 
ATOM     11  C   UNL     1      -5.948  16.234  23.775  0.00  0.00    +0.000 C 
ATOM     12  O   UNL     1      -4.921  16.286  24.778  0.00  0.00    +0.000 OA
ATOM     13  C   UNL     1      -3.748  15.576  24.333  0.00  0.00    +0.000 C 
ATOM     14  C   UNL     1      -4.056  14.101  24.014  0.00  0.00    +0.000 C 
ATOM     15  N   UNL     1      -3.861  13.077  21.260  0.00  0.00    +0.000 NA
ATOM     16  C   UNL     1      -4.094  12.500  20.021  0.00  0.00    +0.000 A 
ENDROOT
BRANCH   1  17
ATOM     17  C   UNL     1      -1.727  12.210  19.402  0.00  0.00    +0.000 C 
BRANCH  17  25
ATOM     18  C   UNL     1       0.246  10.086  18.580  0.00  0.00    +0.000 C 
ATOM     19  C   UNL     1      -0.117  10.285  20.032  0.00  0.00    +0.000 A 
ATOM     20  C   UNL     1       0.442   9.438  21.021  0.00  0.00    +0.000 A 
ATOM     21 CL   UNL     1       1.483   8.111  20.629  0.00  0.00    +0.000 Cl
ATOM     22  C   UNL     1       0.168   9.631  22.375  0.00  0.00    +0.000 A 
ATOM     23  C   UNL     1      -0.675  10.657  22.770  0.00  0.00    +0.000 A 
ATOM     24  C   UNL     1      -1.278  11.468  21.810  0.00  0.00    +0.000 A 
ATOM     25  C   UNL     1      -1.049  11.289  20.430  0.00  0.00    +0.000 A 
ENDBRANCH  17  25
ENDBRANCH   1  17
BRANCH   2  26
ATOM     26  S   UNL     1      -2.637  10.278  17.055  0.00  0.00    +0.000 S 
BRANCH  26  27
ATOM     27  C   UNL     1      -2.932  11.101  15.435  0.00  0.00    +0.000 C 
BRANCH  27  28
ATOM     28  C   UNL     1      -3.252  10.129  14.320  0.00  0.00    +0.000 C 
ATOM     29  O   UNL     1      -2.395   9.673  13.574  0.00  0.00    +0.000 OA
BRANCH  28  30
ATOM     30  O   UNL     1      -4.554   9.790  14.191  0.00  0.00    +0.000 OA
ATOM     31  H   UNL     1      -4.858   9.257  14.955  0.00  0.00    +0.000 HD
ENDBRANCH  28  30
ENDBRANCH  27  28
ENDBRANCH  26  27
ENDBRANCH   2  26
TORSDOF 6
ENDMDL
MODEL 2
REMARK VINA RESULT:      -7.3      1.396      1.590
REMARK  Name = 
REMARK  7 active torsions:
REMARK  status: ('A' for Active; 'I' for Inactive)
REMARK    1  A    between atoms: C_1  and  C_2
REMARK    2  A    between atoms: C_8  and  C_9
REMARK    3  A    between atoms: C_9  and  N_10
REMARK    4  A    between atoms: C_11  and  S_12
REMARK    5  A    between atoms: S_12  and  C_13
REMARK    6  A    between atoms: C_13  and  C_14
REMARK    7  A    between atoms: C_14  and  O_16
REMARK                            x       y       z     vdW  Elec       q    Type
REMARK                         _______ _______ _______ _____ _____    ______ ____
ROOT
ATOM      1  N   UNL     1      -1.973  11.798  19.544  0.00  0.00    +0.000 N 
ATOM      2  C   UNL     1      -2.675  11.189  18.496  0.00  0.00    +0.000 A 
ATOM      3  N   UNL     1      -3.911  11.383  18.160  0.00  0.00    +0.000 NA
ATOM      4  C   UNL     1      -4.692  12.268  18.853  0.00  0.00    +0.000 A 
ATOM      5  O   UNL     1      -5.821  12.568  18.484  0.00  0.00    +0.000 OA
ATOM      6  C   UNL     1      -4.067  12.773  20.028  0.00  0.00    +0.000 A 
ATOM      7  S   UNL     1      -4.853  13.712  21.172  0.00  0.00    +0.000 S 
ATOM      8  C   UNL     1      -3.409  13.744  22.145  0.00  0.00    +0.000 A 
ATOM      9  N   UNL     1      -3.419  14.346  23.371  0.00  0.00    +0.000 N 
ATOM     10  C   UNL     1      -4.424  15.340  23.788  0.00  0.00    +0.000 C 
ATOM     11  C   UNL     1      -3.737  16.692  24.029  0.00  0.00    +0.000 C 
ATOM     12  O   UNL     1      -2.692  16.570  25.007  0.00  0.00    +0.000 OA
ATOM     13  C   UNL     1      -1.696  15.629  24.564  0.00  0.00    +0.000 C 
ATOM     14  C   UNL     1      -2.297  14.236  24.304  0.00  0.00    +0.000 C 
ATOM     15  N   UNL     1      -2.383  13.108  21.585  0.00  0.00    +0.000 NA
ATOM     16  C   UNL     1      -2.759  12.551  20.372  0.00  0.00    +0.000 A 
ENDROOT
BRANCH   1  17
ATOM     17  C   UNL     1      -0.514  11.780  19.714  0.00  0.00    +0.000 C 
BRANCH  17  25
ATOM     18  C   UNL     1       1.464   9.962  18.349  0.00  0.00    +0.000 C 
ATOM     19  C   UNL     1       0.972   9.660  19.744  0.00  0.00    +0.000 A 
ATOM     20  C   UNL     1       1.409   8.488  20.409  0.00  0.00    +0.000 A 
ATOM     21 CL   UNL     1       2.443   7.322  19.653  0.00  0.00    +0.000 Cl
ATOM     22  C   UNL     1       1.015   8.210  21.717  0.00  0.00    +0.000 A 
ATOM     23  C   UNL     1       0.168   9.082  22.384  0.00  0.00    +0.000 A 
ATOM     24  C   UNL     1      -0.316  10.213  21.730  0.00  0.00    +0.000 A 
ATOM     25  C   UNL     1       0.037  10.516  20.398  0.00  0.00    +0.000 A 
ENDBRANCH  17  25
ENDBRANCH   1  17
BRANCH   2  26
ATOM     26  S   UNL     1      -1.851   9.994  17.458  0.00  0.00    +0.000 S 
BRANCH  26  27
ATOM     27  C   UNL     1      -3.185   9.638  16.241  0.00  0.00    +0.000 C 
BRANCH  27  28
ATOM     28  C   UNL     1      -3.088  10.476  14.984  0.00  0.00    +0.000 C 
ATOM     29  O   UNL     1      -2.719  10.019  13.910  0.00  0.00    +0.000 OA
BRANCH  28  30
ATOM     30  O   UNL     1      -3.435  11.776  15.117  0.00  0.00    +0.000 OA
ATOM     31  H   UNL     1      -2.713  12.294  15.531  0.00  0.00    +0.000 HD
ENDBRANCH  28  30
ENDBRANCH  27  28
ENDBRANCH  26  27
ENDBRANCH   2  26
TORSDOF 6
ENDMDL
MODEL 3
REMARK VINA RESULT:      -7.2      3.407      5.243
REMARK  Name = 
REMARK  7 active torsions:
REMARK  status: ('A' for Active; 'I' for Inactive)
REMARK    1  A    between atoms: C_1  and  C_2
REMARK    2  A    between atoms: C_8  and  C_9
REMARK    3  A    between atoms: C_9  and  N_10
REMARK    4  A    between atoms: C_11  and  S_12
REMARK    5  A    between atoms: S_12  and  C_13
REMARK    6  A    between atoms: C_13  and  C_14
REMARK    7  A    between atoms: C_14  and  O_16
REMARK                            x       y       z     vdW  Elec       q    Type
REMARK                         _______ _______ _______ _____ _____    ______ ____
ROOT
ATOM      1  N   UNL     1      -0.410  12.462  20.323  0.00  0.00    +0.000 N 
ATOM      2  C   UNL     1       0.553  13.131  21.090  0.00  0.00    +0.000 A 
ATOM      3  N   UNL     1       0.356  13.838  22.158  0.00  0.00    +0.000 NA
ATOM      4  C   UNL     1      -0.906  14.000  22.664  0.00  0.00    +0.000 A 
ATOM      5  O   UNL     1      -1.110  14.553  23.739  0.00  0.00    +0.000 OA
ATOM      6  C   UNL     1      -1.925  13.484  21.816  0.00  0.00    +0.000 A 
ATOM      7  S   UNL     1      -3.564  13.717  22.080  0.00  0.00    +0.000 S 
ATOM      8  C   UNL     1      -3.928  12.857  20.610  0.00  0.00    +0.000 A 
ATOM      9  N   UNL     1      -5.218  12.756  20.174  0.00  0.00    +0.000 N 
ATOM     10  C   UNL     1      -6.394  12.951  21.041  0.00  0.00    +0.000 C 
ATOM     11  C   UNL     1      -7.179  11.634  21.141  0.00  0.00    +0.000 C 
ATOM     12  O   UNL     1      -7.567  11.167  19.840  0.00  0.00    +0.000 OA
ATOM     13  C   UNL     1      -6.404  10.939  19.020  0.00  0.00    +0.000 C 
ATOM     14  C   UNL     1      -5.557  12.214  18.857  0.00  0.00    +0.000 C 
ATOM     15  N   UNL     1      -2.846  12.385  19.995  0.00  0.00    +0.000 NA
ATOM     16  C   UNL     1      -1.698  12.744  20.685  0.00  0.00    +0.000 A 
ENDROOT
BRANCH   1  17
ATOM     17  C   UNL     1      -0.127  11.442  19.304  0.00  0.00    +0.000 C 
BRANCH  17  25
ATOM     18  C   UNL     1       1.884   9.771  17.806  0.00  0.00    +0.000 C 
ATOM     19  C   UNL     1       1.348   9.321  19.145  0.00  0.00    +0.000 A 
ATOM     20  C   UNL     1       1.760   8.080  19.689  0.00  0.00    +0.000 A 
ATOM     21 CL   UNL     1       2.812   6.997  18.841  0.00  0.00    +0.000 Cl
ATOM     22  C   UNL     1       1.326   7.663  20.946  0.00  0.00    +0.000 A 
ATOM     23  C   UNL     1       0.463   8.463  21.680  0.00  0.00    +0.000 A 
ATOM     24  C   UNL     1       0.003   9.662  21.140  0.00  0.00    +0.000 A 
ATOM     25  C   UNL     1       0.397  10.107  19.861  0.00  0.00    +0.000 A 
ENDBRANCH  17  25
ENDBRANCH   1  17
BRANCH   2  26
ATOM     26  S   UNL     1       2.270  13.057  20.611  0.00  0.00    +0.000 S 
BRANCH  26  27
ATOM     27  C   UNL     1       2.369  14.527  19.507  0.00  0.00    +0.000 C 
BRANCH  27  28
ATOM     28  C   UNL     1       3.003  14.225  18.166  0.00  0.00    +0.000 C 
ATOM     29  O   UNL     1       3.964  14.849  17.733  0.00  0.00    +0.000 OA
BRANCH  28  30
ATOM     30  O   UNL     1       2.441  13.216  17.463  0.00  0.00    +0.000 OA
ATOM     31  H   UNL     1       1.711  12.799  17.966  0.00  0.00    +0.000 HD
ENDBRANCH  28  30
ENDBRANCH  27  28
ENDBRANCH  26  27
ENDBRANCH   2  26
TORSDOF 6
ENDMDL
MODEL 4
REMARK VINA RESULT:      -7.0      3.860      5.868
REMARK  Name = 
REMARK  7 active torsions:
REMARK  status: ('A' for Active; 'I' for Inactive)
REMARK    1  A    between atoms: C_1  and  C_2
REMARK    2  A    between atoms: C_8  and  C_9
REMARK    3  A    between atoms: C_9  and  N_10
REMARK    4  A    between atoms: C_11  and  S_12
REMARK    5  A    between atoms: S_12  and  C_13
REMARK    6  A    between atoms: C_13  and  C_14
REMARK    7  A    between atoms: C_14  and  O_16
REMARK                            x       y       z     vdW  Elec       q    Type
REMARK                         _______ _______ _______ _____ _____    ______ ____
ROOT
ATOM      1  N   UNL     1      -1.607  11.527  19.465  0.00  0.00    +0.000 N 
ATOM      2  C   UNL     1      -0.802  10.541  18.880  0.00  0.00    +0.000 A 
ATOM      3  N   UNL     1      -1.037   9.878  17.792  0.00  0.00    +0.000 NA
ATOM      4  C   UNL     1      -2.177  10.104  17.069  0.00  0.00    +0.000 A 
ATOM      5  O   UNL     1      -2.366   9.588  15.974  0.00  0.00    +0.000 OA
ATOM      6  C   UNL     1      -3.098  10.969  17.723  0.00  0.00    +0.000 A 
ATOM      7  S   UNL     1      -4.654  11.263  17.171  0.00  0.00    +0.000 S 
ATOM      8  C   UNL     1      -4.958  12.275  18.556  0.00  0.00    +0.000 A 
ATOM      9  N   UNL     1      -6.198  12.812  18.756  0.00  0.00    +0.000 N 
ATOM     10  C   UNL     1      -7.208  12.960  17.693  0.00  0.00    +0.000 C 
ATOM     11  C   UNL     1      -7.489  14.451  17.458  0.00  0.00    +0.000 C 
ATOM     12  O   UNL     1      -7.916  15.091  18.671  0.00  0.00    +0.000 OA
ATOM     13  C   UNL     1      -6.899  14.976  19.685  0.00  0.00    +0.000 C 
ATOM     14  C   UNL     1      -6.558  13.507  19.993  0.00  0.00    +0.000 C 
ATOM     15  N   UNL     1      -3.902  12.405  19.355  0.00  0.00    +0.000 NA
ATOM     16  C   UNL     1      -2.836  11.657  18.879  0.00  0.00    +0.000 A 
ENDROOT
BRANCH   1  17
ATOM     17  C   UNL     1      -1.182  12.456  20.521  0.00  0.00    +0.000 C 
BRANCH  17  25
ATOM     18  C   UNL     1      -2.629  14.994  21.261  0.00  0.00    +0.000 C 
ATOM     19  C   UNL     1      -1.411  15.030  20.369  0.00  0.00    +0.000 A 
ATOM     20  C   UNL     1      -0.962  16.263  19.837  0.00  0.00    +0.000 A 
ATOM     21 CL   UNL     1      -1.804  17.753  20.104  0.00  0.00    +0.000 Cl
ATOM     22  C   UNL     1       0.191  16.336  19.056  0.00  0.00    +0.000 A 
ATOM     23  C   UNL     1       0.910  15.184  18.776  0.00  0.00    +0.000 A 
ATOM     24  C   UNL     1       0.456  13.953  19.245  0.00  0.00    +0.000 A 
ATOM     25  C   UNL     1      -0.719  13.833  20.016  0.00  0.00    +0.000 A 
ENDBRANCH  17  25
ENDBRANCH   1  17
BRANCH   2  26
ATOM     26  S   UNL     1       0.737  10.082  19.657  0.00  0.00    +0.000 S 
BRANCH  26  27
ATOM     27  C   UNL     1       0.108   9.106  21.085  0.00  0.00    +0.000 C 
BRANCH  27  28
ATOM     28  C   UNL     1       0.676   9.557  22.414  0.00  0.00    +0.000 C 
ATOM     29  O   UNL     1       0.003  10.131  23.261  0.00  0.00    +0.000 OA
BRANCH  28  30
ATOM     30  O   UNL     1       1.985   9.287  22.616  0.00  0.00    +0.000 OA
ATOM     31  H   UNL     1       2.444  10.050  23.026  0.00  0.00    +0.000 HD
ENDBRANCH  28  30
ENDBRANCH  27  28
ENDBRANCH  26  27
ENDBRANCH   2  26
TORSDOF 6
ENDMDL
MODEL 5
REMARK VINA RESULT:      -7.0      3.627      5.296
REMARK  Name = 
REMARK  7 active torsions:
REMARK  status: ('A' for Active; 'I' for Inactive)
REMARK    1  A    between atoms: C_1  and  C_2
REMARK    2  A    between atoms: C_8  and  C_9
REMARK    3  A    between atoms: C_9  and  N_10
REMARK    4  A    between atoms: C_11  and  S_12
REMARK    5  A    between atoms: S_12  and  C_13
REMARK    6  A    between atoms: C_13  and  C_14
REMARK    7  A    between atoms: C_14  and  O_16
REMARK                            x       y       z     vdW  Elec       q    Type
REMARK                         _______ _______ _______ _____ _____    ______ ____
ROOT
ATOM      1  N   UNL     1      -0.587  12.253  19.190  0.00  0.00    +0.000 N 
ATOM      2  C   UNL     1       0.451  13.133  19.522  0.00  0.00    +0.000 A 
ATOM      3  N   UNL     1       0.388  14.165  20.302  0.00  0.00    +0.000 NA
ATOM      4  C   UNL     1      -0.788  14.507  20.913  0.00  0.00    +0.000 A 
ATOM      5  O   UNL     1      -0.851  15.398  21.753  0.00  0.00    +0.000 OA
ATOM      6  C   UNL     1      -1.902  13.743  20.464  0.00  0.00    +0.000 A 
ATOM      7  S   UNL     1      -3.490  14.073  20.886  0.00  0.00    +0.000 S 
ATOM      8  C   UNL     1      -4.035  12.764  19.873  0.00  0.00    +0.000 A 
ATOM      9  N   UNL     1      -5.371  12.535  19.706  0.00  0.00    +0.000 N 
ATOM     10  C   UNL     1      -6.410  13.031  20.627  0.00  0.00    +0.000 C 
ATOM     11  C   UNL     1      -7.113  11.838  21.293  0.00  0.00    +0.000 C 
ATOM     12  O   UNL     1      -7.674  10.957  20.307  0.00  0.00    +0.000 OA
ATOM     13  C   UNL     1      -6.640  10.447  19.443  0.00  0.00    +0.000 C 
ATOM     14  C   UNL     1      -5.882  11.578  18.724  0.00  0.00    +0.000 C 
ATOM     15  N   UNL     1      -3.040  12.097  19.295  0.00  0.00    +0.000 NA
ATOM     16  C   UNL     1      -1.817  12.657  19.632  0.00  0.00    +0.000 A 
ENDROOT
BRANCH   1  17
ATOM     17  C   UNL     1      -0.419  10.941  18.550  0.00  0.00    +0.000 C 
BRANCH  17  25
ATOM     18  C   UNL     1       1.848   9.164  17.663  0.00  0.00    +0.000 C 
ATOM     19  C   UNL     1       1.237   9.012  19.036  0.00  0.00    +0.000 A 
ATOM     20  C   UNL     1       1.703   7.997  19.907  0.00  0.00    +0.000 A 
ATOM     21 CL   UNL     1       2.912   6.850  19.435  0.00  0.00    +0.000 Cl
ATOM     22  C   UNL     1       1.197   7.866  21.200  0.00  0.00    +0.000 A 
ATOM     23  C   UNL     1       0.210   8.731  21.647  0.00  0.00    +0.000 A 
ATOM     24  C   UNL     1      -0.301   9.703  20.787  0.00  0.00    +0.000 A 
ATOM     25  C   UNL     1       0.165   9.851  19.464  0.00  0.00    +0.000 A 
ENDBRANCH  17  25
ENDBRANCH   1  17
BRANCH   2  26
ATOM     26  S   UNL     1       2.078  12.878  18.834  0.00  0.00    +0.000 S 
BRANCH  26  27
ATOM     27  C   UNL     1       2.881  14.472  19.286  0.00  0.00    +0.000 C 
BRANCH  27  28
ATOM     28  C   UNL     1       3.281  15.301  18.084  0.00  0.00    +0.000 C 
ATOM     29  O   UNL     1       2.696  16.328  17.764  0.00  0.00    +0.000 OA
BRANCH  28  30
ATOM     30  O   UNL     1       4.333  14.836  17.374  0.00  0.00    +0.000 OA
ATOM     31  H   UNL     1       4.166  13.928  17.048  0.00  0.00    +0.000 HD
ENDBRANCH  28  30
ENDBRANCH  27  28
ENDBRANCH  26  27
ENDBRANCH   2  26
TORSDOF 6
ENDMDL
MODEL 6
REMARK VINA RESULT:      -6.9      3.051      4.887
REMARK  Name = 
REMARK  7 active torsions:
REMARK  status: ('A' for Active; 'I' for Inactive)
REMARK    1  A    between atoms: C_1  and  C_2
REMARK    2  A    between atoms: C_8  and  C_9
REMARK    3  A    between atoms: C_9  and  N_10
REMARK    4  A    between atoms: C_11  and  S_12
REMARK    5  A    between atoms: S_12  and  C_13
REMARK    6  A    between atoms: C_13  and  C_14
REMARK    7  A    between atoms: C_14  and  O_16
REMARK                            x       y       z     vdW  Elec       q    Type
REMARK                         _______ _______ _______ _____ _____    ______ ____
ROOT
ATOM      1  N   UNL     1      -3.774  12.015  18.790  0.00  0.00    +0.000 N 
ATOM      2  C   UNL     1      -3.275  10.970  18.001  0.00  0.00    +0.000 A 
ATOM      3  N   UNL     1      -2.168  10.319  18.169  0.00  0.00    +0.000 NA
ATOM      4  C   UNL     1      -1.332  10.620  19.211  0.00  0.00    +0.000 A 
ATOM      5  O   UNL     1      -0.345   9.941  19.470  0.00  0.00    +0.000 OA
ATOM      6  C   UNL     1      -1.719  11.787  19.927  0.00  0.00    +0.000 A 
ATOM      7  S   UNL     1      -0.781  12.505  21.117  0.00  0.00    +0.000 S 
ATOM      8  C   UNL     1      -1.967  13.768  21.296  0.00  0.00    +0.000 A 
ATOM      9  N   UNL     1      -1.735  14.814  22.142  0.00  0.00    +0.000 N 
ATOM     10  C   UNL     1      -0.752  14.777  23.241  0.00  0.00    +0.000 C 
ATOM     11  C   UNL     1      -1.484  14.905  24.585  0.00  0.00    +0.000 C 
ATOM     12  O   UNL     1      -2.268  16.108  24.631  0.00  0.00    +0.000 OA
ATOM     13  C   UNL     1      -3.252  16.107  23.579  0.00  0.00    +0.000 C 
ATOM     14  C   UNL     1      -2.605  15.990  22.187  0.00  0.00    +0.000 C 
ATOM     15  N   UNL     1      -3.033  13.603  20.516  0.00  0.00    +0.000 NA
ATOM     16  C   UNL     1      -2.892  12.469  19.731  0.00  0.00    +0.000 A 
ENDROOT
BRANCH   1  17
ATOM     17  C   UNL     1      -5.151  12.528  18.751  0.00  0.00    +0.000 C 
BRANCH  17  25
ATOM     18  C   UNL     1      -6.097  13.861  21.283  0.00  0.00    +0.000 C 
ATOM     19  C   UNL     1      -6.564  12.471  20.918  0.00  0.00    +0.000 A 
ATOM     20  C   UNL     1      -7.424  11.765  21.793  0.00  0.00    +0.000 A 
ATOM     21 CL   UNL     1      -7.916  12.400  23.328  0.00  0.00    +0.000 Cl
ATOM     22  C   UNL     1      -7.916  10.503  21.460  0.00  0.00    +0.000 A 
ATOM     23  C   UNL     1      -7.551   9.915  20.259  0.00  0.00    +0.000 A 
ATOM     24  C   UNL     1      -6.663  10.570  19.408  0.00  0.00    +0.000 A 
ATOM     25  C   UNL     1      -6.122  11.835  19.721  0.00  0.00    +0.000 A 
ENDBRANCH  17  25
ENDBRANCH   1  17
BRANCH   2  26
ATOM     26  S   UNL     1      -4.203  10.413  16.584  0.00  0.00    +0.000 S 
BRANCH  26  27
ATOM     27  C   UNL     1      -3.005  10.786  15.237  0.00  0.00    +0.000 C 
BRANCH  27  28
ATOM     28  C   UNL     1      -3.293  10.035  13.955  0.00  0.00    +0.000 C 
ATOM     29  O   UNL     1      -2.408   9.640  13.206  0.00  0.00    +0.000 OA
BRANCH  28  30
ATOM     30  O   UNL     1      -4.599   9.823  13.679  0.00  0.00    +0.000 OA
ATOM     31  H   UNL     1      -4.824  10.129  12.775  0.00  0.00    +0.000 HD
ENDBRANCH  28  30
ENDBRANCH  27  28
ENDBRANCH  26  27
ENDBRANCH   2  26
TORSDOF 6
ENDMDL
MODEL 7
REMARK VINA RESULT:      -6.8      3.789      5.762
REMARK  Name = 
REMARK  7 active torsions:
REMARK  status: ('A' for Active; 'I' for Inactive)
REMARK    1  A    between atoms: C_1  and  C_2
REMARK    2  A    between atoms: C_8  and  C_9
REMARK    3  A    between atoms: C_9  and  N_10
REMARK    4  A    between atoms: C_11  and  S_12
REMARK    5  A    between atoms: S_12  and  C_13
REMARK    6  A    between atoms: C_13  and  C_14
REMARK    7  A    between atoms: C_14  and  O_16
REMARK                            x       y       z     vdW  Elec       q    Type
REMARK                         _______ _______ _______ _____ _____    ______ ____
ROOT
ATOM      1  N   UNL     1      -0.592  12.497  19.541  0.00  0.00    +0.000 N 
ATOM      2  C   UNL     1       0.362  13.383  20.058  0.00  0.00    +0.000 A 
ATOM      3  N   UNL     1       0.174  14.317  20.936  0.00  0.00    +0.000 NA
ATOM      4  C   UNL     1      -1.067  14.529  21.474  0.00  0.00    +0.000 A 
ATOM      5  O   UNL     1      -1.252  15.315  22.396  0.00  0.00    +0.000 OA
ATOM      6  C   UNL     1      -2.093  13.767  20.846  0.00  0.00    +0.000 A 
ATOM      7  S   UNL     1      -3.728  13.969  21.157  0.00  0.00    +0.000 S 
ATOM      8  C   UNL     1      -4.108  12.759  19.964  0.00  0.00    +0.000 A 
ATOM      9  N   UNL     1      -5.410  12.485  19.654  0.00  0.00    +0.000 N 
ATOM     10  C   UNL     1      -6.549  12.821  20.527  0.00  0.00    +0.000 C 
ATOM     11  C   UNL     1      -7.235  11.529  20.994  0.00  0.00    +0.000 C 
ATOM     12  O   UNL     1      -7.658  10.738  19.871  0.00  0.00    +0.000 OA
ATOM     13  C   UNL     1      -6.528  10.381  19.053  0.00  0.00    +0.000 C 
ATOM     14  C   UNL     1      -5.780  11.622  18.532  0.00  0.00    +0.000 C 
ATOM     15  N   UNL     1      -3.031  12.211  19.408  0.00  0.00    +0.000 NA
ATOM     16  C   UNL     1      -1.875  12.788  19.912  0.00  0.00    +0.000 A 
ENDROOT
BRANCH   1  17
ATOM     17  C   UNL     1      -0.294  11.276  18.780  0.00  0.00    +0.000 C 
BRANCH  17  25
ATOM     18  C   UNL     1       1.875   9.427  17.802  0.00  0.00    +0.000 C 
ATOM     19  C   UNL     1       1.241   9.226  19.157  0.00  0.00    +0.000 A 
ATOM     20  C   UNL     1       1.636   8.133  19.967  0.00  0.00    +0.000 A 
ATOM     21 CL   UNL     1       2.781   6.948  19.434  0.00  0.00    +0.000 Cl
ATOM     22  C   UNL     1       1.108   7.952  21.245  0.00  0.00    +0.000 A 
ATOM     23  C   UNL     1       0.168   8.845  21.736  0.00  0.00    +0.000 A 
ATOM     24  C   UNL     1      -0.274   9.896  20.936  0.00  0.00    +0.000 A 
ATOM     25  C   UNL     1       0.214  10.098  19.628  0.00  0.00    +0.000 A 
ENDBRANCH  17  25
ENDBRANCH   1  17
BRANCH   2  26
ATOM     26  S   UNL     1       2.053  13.288  19.495  0.00  0.00    +0.000 S 
BRANCH  26  27
ATOM     27  C   UNL     1       2.774  14.739  20.368  0.00  0.00    +0.000 C 
BRANCH  27  28
ATOM     28  C   UNL     1       4.036  14.409  21.136  0.00  0.00    +0.000 C 
ATOM     29  O   UNL     1       4.024  13.798  22.197  0.00  0.00    +0.000 OA
BRANCH  28  30
ATOM     30  O   UNL     1       5.192  14.833  20.577  0.00  0.00    +0.000 OA
ATOM     31  H   UNL     1       5.964  14.383  20.979  0.00  0.00    +0.000 HD
ENDBRANCH  28  30
ENDBRANCH  27  28
ENDBRANCH  26  27
ENDBRANCH   2  26
TORSDOF 6
ENDMDL
MODEL 8
REMARK VINA RESULT:      -6.8      4.420      6.309
REMARK  Name = 
REMARK  7 active torsions:
REMARK  status: ('A' for Active; 'I' for Inactive)
REMARK    1  A    between atoms: C_1  and  C_2
REMARK    2  A    between atoms: C_8  and  C_9
REMARK    3  A    between atoms: C_9  and  N_10
REMARK    4  A    between atoms: C_11  and  S_12
REMARK    5  A    between atoms: S_12  and  C_13
REMARK    6  A    between atoms: C_13  and  C_14
REMARK    7  A    between atoms: C_14  and  O_16
REMARK                            x       y       z     vdW  Elec       q    Type
REMARK                         _______ _______ _______ _____ _____    ______ ____
ROOT
ATOM      1  N   UNL     1      -0.971  12.261  18.774  0.00  0.00    +0.000 N 
ATOM      2  C   UNL     1      -0.975  10.905  18.418  0.00  0.00    +0.000 A 
ATOM      3  N   UNL     1       0.052  10.154  18.175  0.00  0.00    +0.000 NA
ATOM      4  C   UNL     1       1.322  10.659  18.254  0.00  0.00    +0.000 A 
ATOM      5  O   UNL     1       2.313   9.946  18.155  0.00  0.00    +0.000 OA
ATOM      6  C   UNL     1       1.357  12.070  18.440  0.00  0.00    +0.000 A 
ATOM      7  S   UNL     1       2.761  12.984  18.372  0.00  0.00    +0.000 S 
ATOM      8  C   UNL     1       1.832  14.436  18.621  0.00  0.00    +0.000 A 
ATOM      9  N   UNL     1       2.443  15.657  18.587  0.00  0.00    +0.000 N 
ATOM     10  C   UNL     1       3.893  15.854  18.769  0.00  0.00    +0.000 C 
ATOM     11  C   UNL     1       4.141  16.668  20.048  0.00  0.00    +0.000 C 
ATOM     12  O   UNL     1       3.450  17.926  19.998  0.00  0.00    +0.000 OA
ATOM     13  C   UNL     1       2.031  17.715  19.865  0.00  0.00    +0.000 C 
ATOM     14  C   UNL     1       1.687  16.910  18.599  0.00  0.00    +0.000 C 
ATOM     15  N   UNL     1       0.533  14.207  18.792  0.00  0.00    +0.000 NA
ATOM     16  C   UNL     1       0.259  12.852  18.689  0.00  0.00    +0.000 A 
ENDROOT
BRANCH   1  17
ATOM     17  C   UNL     1      -2.116  12.999  19.323  0.00  0.00    +0.000 C 
BRANCH  17  25
ATOM     18  C   UNL     1      -4.874  13.359  20.484  0.00  0.00    +0.000 C 
ATOM     19  C   UNL     1      -3.729  12.878  21.344  0.00  0.00    +0.000 A 
ATOM     20  C   UNL     1      -3.937  12.632  22.723  0.00  0.00    +0.000 A 
ATOM     21 CL   UNL     1      -5.454  12.933  23.503  0.00  0.00    +0.000 Cl
ATOM     22  C   UNL     1      -2.915  12.135  23.531  0.00  0.00    +0.000 A 
ATOM     23  C   UNL     1      -1.663  11.889  22.988  0.00  0.00    +0.000 A 
ATOM     24  C   UNL     1      -1.422  12.176  21.645  0.00  0.00    +0.000 A 
ATOM     25  C   UNL     1      -2.421  12.704  20.801  0.00  0.00    +0.000 A 
ENDBRANCH  17  25
ENDBRANCH   1  17
BRANCH   2  26
ATOM     26  S   UNL     1      -2.526  10.040  18.254  0.00  0.00    +0.000 S 
BRANCH  26  27
ATOM     27  C   UNL     1      -2.555   9.754  16.436  0.00  0.00    +0.000 C 
BRANCH  27  28
ATOM     28  C   UNL     1      -3.262  10.851  15.669  0.00  0.00    +0.000 C 
ATOM     29  O   UNL     1      -3.348  10.855  14.448  0.00  0.00    +0.000 OA
BRANCH  28  30
ATOM     30  O   UNL     1      -3.799  11.839  16.419  0.00  0.00    +0.000 OA
ATOM     31  H   UNL     1      -3.257  12.654  16.370  0.00  0.00    +0.000 HD
ENDBRANCH  28  30
ENDBRANCH  27  28
ENDBRANCH  26  27
ENDBRANCH   2  26
TORSDOF 6
ENDMDL
MODEL 9
REMARK VINA RESULT:      -6.8      1.109      1.259
REMARK  Name = 
REMARK  7 active torsions:
REMARK  status: ('A' for Active; 'I' for Inactive)
REMARK    1  A    between atoms: C_1  and  C_2
REMARK    2  A    between atoms: C_8  and  C_9
REMARK    3  A    between atoms: C_9  and  N_10
REMARK    4  A    between atoms: C_11  and  S_12
REMARK    5  A    between atoms: S_12  and  C_13
REMARK    6  A    between atoms: C_13  and  C_14
REMARK    7  A    between atoms: C_14  and  O_16
REMARK                            x       y       z     vdW  Elec       q    Type
REMARK                         _______ _______ _______ _____ _____    ______ ____
ROOT
ATOM      1  N   UNL     1      -2.913  11.835  18.224  0.00  0.00    +0.000 N 
ATOM      2  C   UNL     1      -3.579  11.276  17.125  0.00  0.00    +0.000 A 
ATOM      3  N   UNL     1      -4.858  11.200  16.936  0.00  0.00    +0.000 NA
ATOM      4  C   UNL     1      -5.731  11.700  17.864  0.00  0.00    +0.000 A 
ATOM      5  O   UNL     1      -6.938  11.758  17.658  0.00  0.00    +0.000 OA
ATOM      6  C   UNL     1      -5.098  12.115  19.069  0.00  0.00    +0.000 A 
ATOM      7  S   UNL     1      -5.931  12.577  20.449  0.00  0.00    +0.000 S 
ATOM      8  C   UNL     1      -4.422  12.799  21.291  0.00  0.00    +0.000 A 
ATOM      9  N   UNL     1      -4.417  13.129  22.616  0.00  0.00    +0.000 N 
ATOM     10  C   UNL     1      -5.568  13.726  23.317  0.00  0.00    +0.000 C 
ATOM     11  C   UNL     1      -5.200  15.139  23.794  0.00  0.00    +0.000 C 
ATOM     12  O   UNL     1      -4.039  15.109  24.638  0.00  0.00    +0.000 OA
ATOM     13  C   UNL     1      -2.912  14.565  23.924  0.00  0.00    +0.000 C 
ATOM     14  C   UNL     1      -3.189  13.140  23.413  0.00  0.00    +0.000 C 
ATOM     15  N   UNL     1      -3.356  12.574  20.527  0.00  0.00    +0.000 NA
ATOM     16  C   UNL     1      -3.742  12.182  19.255  0.00  0.00    +0.000 A 
ENDROOT
BRANCH   1  17
ATOM     17  C   UNL     1      -1.482  12.167  18.273  0.00  0.00    +0.000 C 
BRANCH  17  25
ATOM     18  C   UNL     1       0.081   9.626  17.848  0.00  0.00    +0.000 C 
ATOM     19  C   UNL     1       0.031  10.286  19.205  0.00  0.00    +0.000 A 
ATOM     20  C   UNL     1       0.691   9.686  20.306  0.00  0.00    +0.000 A 
ATOM     21 CL   UNL     1       1.505   8.162  20.184  0.00  0.00    +0.000 Cl
ATOM     22  C   UNL     1       0.709  10.298  21.559  0.00  0.00    +0.000 A 
ATOM     23  C   UNL     1       0.060  11.509  21.745  0.00  0.00    +0.000 A 
ATOM     24  C   UNL     1      -0.640  12.090  20.689  0.00  0.00    +0.000 A 
ATOM     25  C   UNL     1      -0.705  11.489  19.414  0.00  0.00    +0.000 A 
ENDBRANCH  17  25
ENDBRANCH   1  17
BRANCH   2  26
ATOM     26  S   UNL     1      -2.634  10.562  15.790  0.00  0.00    +0.000 S 
BRANCH  26  27
ATOM     27  C   UNL     1      -3.996   9.958  14.708  0.00  0.00    +0.000 C 
BRANCH  27  28
ATOM     28  C   UNL     1      -3.607   9.877  13.247  0.00  0.00    +0.000 C 
ATOM     29  O   UNL     1      -4.426   9.952  12.339  0.00  0.00    +0.000 OA
BRANCH  28  30
ATOM     30  O   UNL     1      -2.289   9.715  12.998  0.00  0.00    +0.000 OA
ATOM     31  H   UNL     1      -1.821  10.576  12.991  0.00  0.00    +0.000 HD
ENDBRANCH  28  30
ENDBRANCH  27  28
ENDBRANCH  26  27
ENDBRANCH   2  26
TORSDOF 6
ENDMDL
