MODEL 1
REMARK VINA RESULT:      -8.4      0.000      0.000
REMARK  Name = 
REMARK  10 active torsions:
REMARK  status: ('A' for Active; 'I' for Inactive)
REMARK    1  A    between atoms: C_1  and  C_2
REMARK    2  A    between atoms: C_2  and  C_3
REMARK    3  A    between atoms: C_3  and  C_4
REMARK    4  A    between atoms: C_4  and  C_5
REMARK    5  A    between atoms: C_5  and  C_6
REMARK    6  A    between atoms: C_6  and  C_7
REMARK    7  A    between atoms: C_6  and  N_8
REMARK    8  A    between atoms: C_9  and  C_10
REMARK    9  A    between atoms: C_11  and  C_12
REMARK   10  A    between atoms: C_12  and  C_14
REMARK                            x       y       z     vdW  Elec       q    Type
REMARK                         _______ _______ _______ _____ _____    ______ ____
ROOT
ATOM      1  N   UNL     1       4.595   5.255  18.275  0.00  0.00    +0.000 N 
ATOM      2  C   UNL     1       4.140   6.467  17.687  0.00  0.00    +0.000 A 
ATOM      3  C   UNL     1       4.990   7.248  16.744  0.00  0.00    +0.000 C 
ATOM      4  C   UNL     1       2.853   6.775  18.155  0.00  0.00    +0.000 A 
ATOM      5  C   UNL     1       2.435   5.535  18.854  0.00  0.00    +0.000 A 
ATOM      6  C   UNL     1       1.234   5.069  19.484  0.00  0.00    +0.000 A 
ATOM      7  C   UNL     1       1.193   3.841  20.182  0.00  0.00    +0.000 A 
ATOM      8  C   UNL     1       2.316   3.032  20.283  0.00  0.00    +0.000 A 
ATOM      9  C   UNL     1       3.491   3.449  19.678  0.00  0.00    +0.000 A 
ATOM     10  C   UNL     1       3.546   4.657  18.952  0.00  0.00    +0.000 A 
ENDROOT
BRANCH   1  11
ATOM     11  C   UNL     1       6.016   4.796  18.367  0.00  0.00    +0.000 C 
ATOM     12  C   UNL     1       7.015   5.594  19.241  0.00  0.00    +0.000 C 
BRANCH  11  13
ATOM     13  C   UNL     1       6.598   4.615  16.943  0.00  0.00    +0.000 C 
BRANCH  13  14
ATOM     14  C   UNL     1       5.765   3.691  16.042  0.00  0.00    +0.000 C 
BRANCH  14  15
ATOM     15  C   UNL     1       5.459   4.367  14.705  0.00  0.00    +0.000 C 
BRANCH  15  17
ATOM     16  C   UNL     1       5.521   3.385  12.394  0.00  0.00    +0.000 C 
ATOM     17  C   UNL     1       6.352   3.834  13.585  0.00  0.00    +0.000 C 
ENDBRANCH  15  17
ENDBRANCH  14  15
ENDBRANCH  13  14
ENDBRANCH  11  13
ENDBRANCH   1  11
BRANCH   4  18
ATOM     18  C   UNL     1       2.152   8.252  18.060  0.00  0.00    +0.000 C 
ATOM     19  O   UNL     1       2.399   9.005  17.136  0.00  0.00    +0.000 OA
BRANCH  18  20
ATOM     20  C   UNL     1       1.299   8.711  19.340  0.00  0.00    +0.000 A 
ATOM     21  C   UNL     1       1.896   8.080  20.427  0.00  0.00    +0.000 A 
ATOM     22  C   UNL     1       1.218   8.039  21.590  0.00  0.00    +0.000 A 
ATOM     23  C   UNL     1       1.121   9.317  21.976  0.00  0.00    +0.000 A 
ATOM     24  C   UNL     1       0.420  10.155  21.133  0.00  0.00    +0.000 A 
ATOM     25  C   UNL     1      -0.138  11.242  21.814  0.00  0.00    +0.000 A 
ATOM     26  C   UNL     1      -1.204  11.924  21.284  0.00  0.00    +0.000 A 
ATOM     27  C   UNL     1      -1.645  11.539  20.037  0.00  0.00    +0.000 A 
ATOM     28  C   UNL     1      -0.900  10.581  19.250  0.00  0.00    +0.000 A 
ATOM     29  C   UNL     1       0.247   9.780  19.756  0.00  0.00    +0.000 A 
ENDBRANCH  18  20
ENDBRANCH   4  18
TORSDOF 7
ENDMDL
MODEL 2
REMARK VINA RESULT:      -8.3      2.123      3.475
REMARK  Name = 
REMARK  10 active torsions:
REMARK  status: ('A' for Active; 'I' for Inactive)
REMARK    1  A    between atoms: C_1  and  C_2
REMARK    2  A    between atoms: C_2  and  C_3
REMARK    3  A    between atoms: C_3  and  C_4
REMARK    4  A    between atoms: C_4  and  C_5
REMARK    5  A    between atoms: C_5  and  C_6
REMARK    6  A    between atoms: C_6  and  C_7
REMARK    7  A    between atoms: C_6  and  N_8
REMARK    8  A    between atoms: C_9  and  C_10
REMARK    9  A    between atoms: C_11  and  C_12
REMARK   10  A    between atoms: C_12  and  C_14
REMARK                            x       y       z     vdW  Elec       q    Type
REMARK                         _______ _______ _______ _____ _____    ______ ____
ROOT
ATOM      1  N   UNL     1       3.548   6.113  18.263  0.00  0.00    +0.000 N 
ATOM      2  C   UNL     1       2.882   7.355  18.453  0.00  0.00    +0.000 A 
ATOM      3  C   UNL     1       3.110   8.514  17.544  0.00  0.00    +0.000 C 
ATOM      4  C   UNL     1       2.061   7.291  19.591  0.00  0.00    +0.000 A 
ATOM      5  C   UNL     1       2.053   5.846  19.928  0.00  0.00    +0.000 A 
ATOM      6  C   UNL     1       1.370   5.022  20.882  0.00  0.00    +0.000 A 
ATOM      7  C   UNL     1       1.678   3.650  21.029  0.00  0.00    +0.000 A 
ATOM      8  C   UNL     1       2.654   3.044  20.251  0.00  0.00    +0.000 A 
ATOM      9  C   UNL     1       3.327   3.811  19.312  0.00  0.00    +0.000 A 
ATOM     10  C   UNL     1       3.015   5.174  19.131  0.00  0.00    +0.000 A 
ENDROOT
BRANCH   1  11
ATOM     11  C   UNL     1       4.779   5.887  17.445  0.00  0.00    +0.000 C 
ATOM     12  C   UNL     1       4.729   4.890  16.259  0.00  0.00    +0.000 C 
BRANCH  11  13
ATOM     13  C   UNL     1       5.965   5.532  18.374  0.00  0.00    +0.000 C 
BRANCH  13  14
ATOM     14  C   UNL     1       7.345   5.793  17.751  0.00  0.00    +0.000 C 
BRANCH  14  15
ATOM     15  C   UNL     1       8.016   7.001  18.405  0.00  0.00    +0.000 C 
BRANCH  15  17
ATOM     16  C   UNL     1       8.496   9.461  18.236  0.00  0.00    +0.000 C 
ATOM     17  C   UNL     1       7.756   8.286  17.618  0.00  0.00    +0.000 C 
ENDBRANCH  15  17
ENDBRANCH  14  15
ENDBRANCH  13  14
ENDBRANCH  11  13
ENDBRANCH   1  11
BRANCH   4  18
ATOM     18  C   UNL     1       1.463   8.591  20.386  0.00  0.00    +0.000 C 
ATOM     19  O   UNL     1       1.360   8.592  21.598  0.00  0.00    +0.000 OA
BRANCH  18  20
ATOM     20  C   UNL     1       0.847   9.756  19.470  0.00  0.00    +0.000 A 
ATOM     21  C   UNL     1      -0.455   9.355  19.190  0.00  0.00    +0.000 A 
ATOM     22  C   UNL     1      -1.117   9.985  18.200  0.00  0.00    +0.000 A 
ATOM     23  C   UNL     1      -1.255  11.246  18.627  0.00  0.00    +0.000 A 
ATOM     24  C   UNL     1      -0.086  11.948  18.838  0.00  0.00    +0.000 A 
ATOM     25  C   UNL     1      -0.268  13.328  18.699  0.00  0.00    +0.000 A 
ATOM     26  C   UNL     1       0.800  14.148  18.429  0.00  0.00    +0.000 A 
ATOM     27  C   UNL     1       2.047  13.566  18.373  0.00  0.00    +0.000 A 
ATOM     28  C   UNL     1       2.239  12.186  18.762  0.00  0.00    +0.000 A 
ATOM     29  C   UNL     1       1.139  11.225  19.044  0.00  0.00    +0.000 A 
ENDBRANCH  18  20
ENDBRANCH   4  18
TORSDOF 7
ENDMDL
MODEL 3
REMARK VINA RESULT:      -8.2      5.078      8.249
REMARK  Name = 
REMARK  10 active torsions:
REMARK  status: ('A' for Active; 'I' for Inactive)
REMARK    1  A    between atoms: C_1  and  C_2
REMARK    2  A    between atoms: C_2  and  C_3
REMARK    3  A    between atoms: C_3  and  C_4
REMARK    4  A    between atoms: C_4  and  C_5
REMARK    5  A    between atoms: C_5  and  C_6
REMARK    6  A    between atoms: C_6  and  C_7
REMARK    7  A    between atoms: C_6  and  N_8
REMARK    8  A    between atoms: C_9  and  C_10
REMARK    9  A    between atoms: C_11  and  C_12
REMARK   10  A    between atoms: C_12  and  C_14
REMARK                            x       y       z     vdW  Elec       q    Type
REMARK                         _______ _______ _______ _____ _____    ______ ____
ROOT
ATOM      1  N   UNL     1      -0.198  11.242  19.128  0.00  0.00    +0.000 N 
ATOM      2  C   UNL     1      -0.410  12.417  19.899  0.00  0.00    +0.000 A 
ATOM      3  C   UNL     1       0.703  13.088  20.629  0.00  0.00    +0.000 C 
ATOM      4  C   UNL     1      -1.768  12.774  19.868  0.00  0.00    +0.000 A 
ATOM      5  C   UNL     1      -2.328  11.903  18.805  0.00  0.00    +0.000 A 
ATOM      6  C   UNL     1      -3.599  11.771  18.154  0.00  0.00    +0.000 A 
ATOM      7  C   UNL     1      -3.852  10.732  17.230  0.00  0.00    +0.000 A 
ATOM      8  C   UNL     1      -2.877   9.797  16.913  0.00  0.00    +0.000 A 
ATOM      9  C   UNL     1      -1.634   9.901  17.519  0.00  0.00    +0.000 A 
ATOM     10  C   UNL     1      -1.352  10.947  18.422  0.00  0.00    +0.000 A 
ENDROOT
BRANCH   1  11
ATOM     11  C   UNL     1       0.978  10.322  19.224  0.00  0.00    +0.000 C 
ATOM     12  C   UNL     1       1.827  10.043  17.958  0.00  0.00    +0.000 C 
BRANCH  11  13
ATOM     13  C   UNL     1       0.540   8.982  19.864  0.00  0.00    +0.000 C 
BRANCH  13  14
ATOM     14  C   UNL     1       1.506   8.460  20.938  0.00  0.00    +0.000 C 
BRANCH  14  15
ATOM     15  C   UNL     1       1.175   9.059  22.304  0.00  0.00    +0.000 C 
BRANCH  15  17
ATOM     16  C   UNL     1      -0.726  10.498  23.094  0.00  0.00    +0.000 C 
ATOM     17  C   UNL     1      -0.334   9.140  22.535  0.00  0.00    +0.000 C 
ENDBRANCH  15  17
ENDBRANCH  14  15
ENDBRANCH  13  14
ENDBRANCH  11  13
ENDBRANCH   1  11
BRANCH   4  18
ATOM     18  C   UNL     1      -2.493  13.787  20.931  0.00  0.00    +0.000 C 
ATOM     19  O   UNL     1      -2.121  14.940  21.051  0.00  0.00    +0.000 OA
BRANCH  18  20
ATOM     20  C   UNL     1      -3.563  13.120  21.923  0.00  0.00    +0.000 A 
ATOM     21  C   UNL     1      -2.980  13.178  23.186  0.00  0.00    +0.000 A 
ATOM     22  C   UNL     1      -3.514  12.428  24.168  0.00  0.00    +0.000 A 
ATOM     23  C   UNL     1      -4.740  12.931  24.358  0.00  0.00    +0.000 A 
ATOM     24  C   UNL     1      -5.601  12.856  23.282  0.00  0.00    +0.000 A 
ATOM     25  C   UNL     1      -6.942  12.832  23.682  0.00  0.00    +0.000 A 
ATOM     26  C   UNL     1      -7.908  12.326  22.848  0.00  0.00    +0.000 A 
ATOM     27  C   UNL     1      -7.512  11.915  21.595  0.00  0.00    +0.000 A 
ATOM     28  C   UNL     1      -6.171  12.177  21.118  0.00  0.00    +0.000 A 
ATOM     29  C   UNL     1      -5.060  12.698  21.960  0.00  0.00    +0.000 A 
ENDBRANCH  18  20
ENDBRANCH   4  18
TORSDOF 7
ENDMDL
MODEL 4
REMARK VINA RESULT:      -8.1      1.950      4.303
REMARK  Name = 
REMARK  10 active torsions:
REMARK  status: ('A' for Active; 'I' for Inactive)
REMARK    1  A    between atoms: C_1  and  C_2
REMARK    2  A    between atoms: C_2  and  C_3
REMARK    3  A    between atoms: C_3  and  C_4
REMARK    4  A    between atoms: C_4  and  C_5
REMARK    5  A    between atoms: C_5  and  C_6
REMARK    6  A    between atoms: C_6  and  C_7
REMARK    7  A    between atoms: C_6  and  N_8
REMARK    8  A    between atoms: C_9  and  C_10
REMARK    9  A    between atoms: C_11  and  C_12
REMARK   10  A    between atoms: C_12  and  C_14
REMARK                            x       y       z     vdW  Elec       q    Type
REMARK                         _______ _______ _______ _____ _____    ______ ____
ROOT
ATOM      1  N   UNL     1       2.314   6.404  19.694  0.00  0.00    +0.000 N 
ATOM      2  C   UNL     1       1.928   7.769  19.796  0.00  0.00    +0.000 A 
ATOM      3  C   UNL     1       1.146   8.277  20.959  0.00  0.00    +0.000 C 
ATOM      4  C   UNL     1       2.363   8.479  18.666  0.00  0.00    +0.000 A 
ATOM      5  C   UNL     1       3.279   7.525  17.993  0.00  0.00    +0.000 A 
ATOM      6  C   UNL     1       4.157   7.575  16.860  0.00  0.00    +0.000 A 
ATOM      7  C   UNL     1       4.830   6.422  16.394  0.00  0.00    +0.000 A 
ATOM      8  C   UNL     1       4.669   5.193  17.018  0.00  0.00    +0.000 A 
ATOM      9  C   UNL     1       3.834   5.112  18.122  0.00  0.00    +0.000 A 
ATOM     10  C   UNL     1       3.176   6.256  18.620  0.00  0.00    +0.000 A 
ENDROOT
BRANCH   1  11
ATOM     11  C   UNL     1       1.722   5.259  20.451  0.00  0.00    +0.000 C 
ATOM     12  C   UNL     1       2.631   4.414  21.380  0.00  0.00    +0.000 C 
BRANCH  11  13
ATOM     13  C   UNL     1       0.963   4.326  19.477  0.00  0.00    +0.000 C 
BRANCH  13  14
ATOM     14  C   UNL     1       0.880   2.866  19.948  0.00  0.00    +0.000 C 
BRANCH  14  15
ATOM     15  C   UNL     1       1.025   1.905  18.768  0.00  0.00    +0.000 C 
BRANCH  15  17
ATOM     16  C   UNL     1       3.483   1.486  18.464  0.00  0.00    +0.000 C 
ATOM     17  C   UNL     1       2.264   2.222  17.931  0.00  0.00    +0.000 C 
ENDBRANCH  15  17
ENDBRANCH  14  15
ENDBRANCH  13  14
ENDBRANCH  11  13
ENDBRANCH   1  11
BRANCH   4  18
ATOM     18  C   UNL     1       1.782   9.935  18.196  0.00  0.00    +0.000 C 
ATOM     19  O   UNL     1       2.503  10.752  17.654  0.00  0.00    +0.000 OA
BRANCH  18  20
ATOM     20  C   UNL     1       0.289  10.286  18.669  0.00  0.00    +0.000 A 
ATOM     21  C   UNL     1       0.438  11.039  19.830  0.00  0.00    +0.000 A 
ATOM     22  C   UNL     1      -0.643  11.222  20.613  0.00  0.00    +0.000 A 
ATOM     23  C   UNL     1      -1.489  11.944  19.868  0.00  0.00    +0.000 A 
ATOM     24  C   UNL     1      -1.933  11.351  18.704  0.00  0.00    +0.000 A 
ATOM     25  C   UNL     1      -3.181  11.841  18.307  0.00  0.00    +0.000 A 
ATOM     26  C   UNL     1      -3.984  11.106  17.470  0.00  0.00    +0.000 A 
ATOM     27  C   UNL     1      -3.480   9.916  16.993  0.00  0.00    +0.000 A 
ATOM     28  C   UNL     1      -2.099   9.552  17.219  0.00  0.00    +0.000 A 
ATOM     29  C   UNL     1      -1.171  10.276  18.130  0.00  0.00    +0.000 A 
ENDBRANCH  18  20
ENDBRANCH   4  18
TORSDOF 7
ENDMDL
MODEL 5
REMARK VINA RESULT:      -8.0      1.263      1.779
REMARK  Name = 
REMARK  10 active torsions:
REMARK  status: ('A' for Active; 'I' for Inactive)
REMARK    1  A    between atoms: C_1  and  C_2
REMARK    2  A    between atoms: C_2  and  C_3
REMARK    3  A    between atoms: C_3  and  C_4
REMARK    4  A    between atoms: C_4  and  C_5
REMARK    5  A    between atoms: C_5  and  C_6
REMARK    6  A    between atoms: C_6  and  C_7
REMARK    7  A    between atoms: C_6  and  N_8
REMARK    8  A    between atoms: C_9  and  C_10
REMARK    9  A    between atoms: C_11  and  C_12
REMARK   10  A    between atoms: C_12  and  C_14
REMARK                            x       y       z     vdW  Elec       q    Type
REMARK                         _______ _______ _______ _____ _____    ______ ____
ROOT
ATOM      1  N   UNL     1       4.286   5.716  18.016  0.00  0.00    +0.000 N 
ATOM      2  C   UNL     1       3.850   6.900  17.360  0.00  0.00    +0.000 A 
ATOM      3  C   UNL     1       4.490   7.381  16.103  0.00  0.00    +0.000 C 
ATOM      4  C   UNL     1       2.808   7.497  18.087  0.00  0.00    +0.000 A 
ATOM      5  C   UNL     1       2.445   6.458  19.083  0.00  0.00    +0.000 A 
ATOM      6  C   UNL     1       1.425   6.307  20.080  0.00  0.00    +0.000 A 
ATOM      7  C   UNL     1       1.420   5.212  20.973  0.00  0.00    +0.000 A 
ATOM      8  C   UNL     1       2.403   4.234  20.919  0.00  0.00    +0.000 A 
ATOM      9  C   UNL     1       3.399   4.345  19.961  0.00  0.00    +0.000 A 
ATOM     10  C   UNL     1       3.406   5.415  19.042  0.00  0.00    +0.000 A 
ENDROOT
BRANCH   1  11
ATOM     11  C   UNL     1       5.596   5.024  17.811  0.00  0.00    +0.000 C 
ATOM     12  C   UNL     1       6.872   5.871  17.573  0.00  0.00    +0.000 C 
BRANCH  11  13
ATOM     13  C   UNL     1       5.457   3.965  16.690  0.00  0.00    +0.000 C 
BRANCH  13  14
ATOM     14  C   UNL     1       6.384   4.204  15.489  0.00  0.00    +0.000 C 
BRANCH  14  15
ATOM     15  C   UNL     1       5.579   4.306  14.193  0.00  0.00    +0.000 C 
BRANCH  15  17
ATOM     16  C   UNL     1       5.436   3.137  11.975  0.00  0.00    +0.000 C 
ATOM     17  C   UNL     1       6.366   3.770  12.997  0.00  0.00    +0.000 C 
ENDBRANCH  15  17
ENDBRANCH  14  15
ENDBRANCH  13  14
ENDBRANCH  11  13
ENDBRANCH   1  11
BRANCH   4  18
ATOM     18  C   UNL     1       2.318   9.050  17.916  0.00  0.00    +0.000 C 
ATOM     19  O   UNL     1       3.066   9.896  17.462  0.00  0.00    +0.000 OA
BRANCH  18  20
ATOM     20  C   UNL     1       0.895   9.416  18.561  0.00  0.00    +0.000 A 
ATOM     21  C   UNL     1       1.145   9.621  19.914  0.00  0.00    +0.000 A 
ATOM     22  C   UNL     1       0.096   9.650  20.758  0.00  0.00    +0.000 A 
ATOM     23  C   UNL     1      -0.609  10.729  20.395  0.00  0.00    +0.000 A 
ATOM     24  C   UNL     1      -1.124  10.716  19.115  0.00  0.00    +0.000 A 
ATOM     25  C   UNL     1      -2.269  11.511  19.001  0.00  0.00    +0.000 A 
ATOM     26  C   UNL     1      -3.167  11.297  17.984  0.00  0.00    +0.000 A 
ATOM     27  C   UNL     1      -2.855  10.327  17.058  0.00  0.00    +0.000 A 
ATOM     28  C   UNL     1      -1.556   9.691  17.058  0.00  0.00    +0.000 A 
ATOM     29  C   UNL     1      -0.538   9.846  18.132  0.00  0.00    +0.000 A 
ENDBRANCH  18  20
ENDBRANCH   4  18
TORSDOF 7
ENDMDL
MODEL 6
REMARK VINA RESULT:      -7.8      2.611      8.478
REMARK  Name = 
REMARK  10 active torsions:
REMARK  status: ('A' for Active; 'I' for Inactive)
REMARK    1  A    between atoms: C_1  and  C_2
REMARK    2  A    between atoms: C_2  and  C_3
REMARK    3  A    between atoms: C_3  and  C_4
REMARK    4  A    between atoms: C_4  and  C_5
REMARK    5  A    between atoms: C_5  and  C_6
REMARK    6  A    between atoms: C_6  and  C_7
REMARK    7  A    between atoms: C_6  and  N_8
REMARK    8  A    between atoms: C_9  and  C_10
REMARK    9  A    between atoms: C_11  and  C_12
REMARK   10  A    between atoms: C_12  and  C_14
REMARK                            x       y       z     vdW  Elec       q    Type
REMARK                         _______ _______ _______ _____ _____    ______ ____
ROOT
ATOM      1  N   UNL     1      -1.084  11.540  20.057  0.00  0.00    +0.000 N 
ATOM      2  C   UNL     1       0.179  10.887  20.038  0.00  0.00    +0.000 A 
ATOM      3  C   UNL     1       1.131  10.987  21.180  0.00  0.00    +0.000 C 
ATOM      4  C   UNL     1       0.354  10.213  18.818  0.00  0.00    +0.000 A 
ATOM      5  C   UNL     1      -0.995  10.264  18.201  0.00  0.00    +0.000 A 
ATOM      6  C   UNL     1      -1.604   9.714  17.026  0.00  0.00    +0.000 A 
ATOM      7  C   UNL     1      -2.923  10.055  16.648  0.00  0.00    +0.000 A 
ATOM      8  C   UNL     1      -3.684  10.935  17.404  0.00  0.00    +0.000 A 
ATOM      9  C   UNL     1      -3.128  11.478  18.552  0.00  0.00    +0.000 A 
ATOM     10  C   UNL     1      -1.824  11.129  18.961  0.00  0.00    +0.000 A 
ENDROOT
BRANCH   1  11
ATOM     11  C   UNL     1      -1.484  12.663  20.960  0.00  0.00    +0.000 C 
ATOM     12  C   UNL     1      -2.752  12.515  21.839  0.00  0.00    +0.000 C 
BRANCH  11  13
ATOM     13  C   UNL     1      -1.562  13.980  20.149  0.00  0.00    +0.000 C 
BRANCH  13  14
ATOM     14  C   UNL     1      -0.549  15.047  20.593  0.00  0.00    +0.000 C 
BRANCH  14  15
ATOM     15  C   UNL     1       0.878  14.609  20.265  0.00  0.00    +0.000 C 
BRANCH  15  17
ATOM     16  C   UNL     1       2.339  13.568  18.507  0.00  0.00    +0.000 C 
ATOM     17  C   UNL     1       1.058  14.343  18.771  0.00  0.00    +0.000 C 
ENDBRANCH  15  17
ENDBRANCH  14  15
ENDBRANCH  13  14
ENDBRANCH  11  13
ENDBRANCH   1  11
BRANCH   4  18
ATOM     18  C   UNL     1       1.794   9.702  18.230  0.00  0.00    +0.000 C 
ATOM     19  O   UNL     1       2.397  10.353  17.397  0.00  0.00    +0.000 OA
BRANCH  18  20
ATOM     20  C   UNL     1       2.247   8.224  18.661  0.00  0.00    +0.000 A 
ATOM     21  C   UNL     1       1.513   7.933  19.807  0.00  0.00    +0.000 A 
ATOM     22  C   UNL     1       1.898   6.886  20.561  0.00  0.00    +0.000 A 
ATOM     23  C   UNL     1       1.713   5.814  19.780  0.00  0.00    +0.000 A 
ATOM     24  C   UNL     1       2.460   5.769  18.621  0.00  0.00    +0.000 A 
ATOM     25  C   UNL     1       2.677   4.459  18.184  0.00  0.00    +0.000 A 
ATOM     26  C   UNL     1       3.725   4.168  17.346  0.00  0.00    +0.000 A 
ATOM     27  C   UNL     1       4.497   5.221  16.908  0.00  0.00    +0.000 A 
ATOM     28  C   UNL     1       4.106   6.588  17.175  0.00  0.00    +0.000 A 
ATOM     29  C   UNL     1       3.003   6.989  18.090  0.00  0.00    +0.000 A 
ENDBRANCH  18  20
ENDBRANCH   4  18
TORSDOF 7
ENDMDL
MODEL 7
REMARK VINA RESULT:      -7.8      1.704      3.058
REMARK  Name = 
REMARK  10 active torsions:
REMARK  status: ('A' for Active; 'I' for Inactive)
REMARK    1  A    between atoms: C_1  and  C_2
REMARK    2  A    between atoms: C_2  and  C_3
REMARK    3  A    between atoms: C_3  and  C_4
REMARK    4  A    between atoms: C_4  and  C_5
REMARK    5  A    between atoms: C_5  and  C_6
REMARK    6  A    between atoms: C_6  and  C_7
REMARK    7  A    between atoms: C_6  and  N_8
REMARK    8  A    between atoms: C_9  and  C_10
REMARK    9  A    between atoms: C_11  and  C_12
REMARK   10  A    between atoms: C_12  and  C_14
REMARK                            x       y       z     vdW  Elec       q    Type
REMARK                         _______ _______ _______ _____ _____    ______ ____
ROOT
ATOM      1  N   UNL     1       3.907   5.316  17.444  0.00  0.00    +0.000 N 
ATOM      2  C   UNL     1       3.469   6.533  18.036  0.00  0.00    +0.000 A 
ATOM      3  C   UNL     1       4.080   7.844  17.676  0.00  0.00    +0.000 C 
ATOM      4  C   UNL     1       2.456   6.275  18.973  0.00  0.00    +0.000 A 
ATOM      5  C   UNL     1       2.107   4.855  18.719  0.00  0.00    +0.000 A 
ATOM      6  C   UNL     1       1.114   3.942  19.206  0.00  0.00    +0.000 A 
ATOM      7  C   UNL     1       1.119   2.578  18.837  0.00  0.00    +0.000 A 
ATOM      8  C   UNL     1       2.086   2.066  17.984  0.00  0.00    +0.000 A 
ATOM      9  C   UNL     1       3.056   2.924  17.488  0.00  0.00    +0.000 A 
ATOM     10  C   UNL     1       3.052   4.294  17.821  0.00  0.00    +0.000 A 
ENDROOT
BRANCH   1  11
ATOM     11  C   UNL     1       5.200   5.098  16.726  0.00  0.00    +0.000 C 
ATOM     12  C   UNL     1       5.194   4.378  15.353  0.00  0.00    +0.000 C 
BRANCH  11  13
ATOM     13  C   UNL     1       6.211   4.405  17.672  0.00  0.00    +0.000 C 
BRANCH  13  14
ATOM     14  C   UNL     1       7.568   5.120  17.766  0.00  0.00    +0.000 C 
BRANCH  14  15
ATOM     15  C   UNL     1       7.440   6.585  17.349  0.00  0.00    +0.000 C 
BRANCH  15  17
ATOM     16  C   UNL     1       8.094   8.956  17.861  0.00  0.00    +0.000 C 
ATOM     17  C   UNL     1       8.105   7.519  18.360  0.00  0.00    +0.000 C 
ENDBRANCH  15  17
ENDBRANCH  14  15
ENDBRANCH  13  14
ENDBRANCH  11  13
ENDBRANCH   1  11
BRANCH   4  18
ATOM     18  C   UNL     1       1.984   7.312  20.149  0.00  0.00    +0.000 C 
ATOM     19  O   UNL     1       2.016   6.986  21.321  0.00  0.00    +0.000 OA
BRANCH  18  20
ATOM     20  C   UNL     1       1.301   8.676  19.653  0.00  0.00    +0.000 A 
ATOM     21  C   UNL     1       1.060   8.496  18.295  0.00  0.00    +0.000 A 
ATOM     22  C   UNL     1       0.769   9.580  17.550  0.00  0.00    +0.000 A 
ATOM     23  C   UNL     1      -0.402  10.020  18.027  0.00  0.00    +0.000 A 
ATOM     24  C   UNL     1      -0.408  10.425  19.346  0.00  0.00    +0.000 A 
ATOM     25  C   UNL     1      -1.405  11.372  19.602  0.00  0.00    +0.000 A 
ATOM     26  C   UNL     1      -1.308  12.212  20.683  0.00  0.00    +0.000 A 
ATOM     27  C   UNL     1      -0.236  12.034  21.529  0.00  0.00    +0.000 A 
ATOM     28  C   UNL     1       0.643  10.895  21.382  0.00  0.00    +0.000 A 
ATOM     29  C   UNL     1       0.623   9.954  20.229  0.00  0.00    +0.000 A 
ENDBRANCH  18  20
ENDBRANCH   4  18
TORSDOF 7
ENDMDL
MODEL 8
REMARK VINA RESULT:      -7.7      1.996      3.678
REMARK  Name = 
REMARK  10 active torsions:
REMARK  status: ('A' for Active; 'I' for Inactive)
REMARK    1  A    between atoms: C_1  and  C_2
REMARK    2  A    between atoms: C_2  and  C_3
REMARK    3  A    between atoms: C_3  and  C_4
REMARK    4  A    between atoms: C_4  and  C_5
REMARK    5  A    between atoms: C_5  and  C_6
REMARK    6  A    between atoms: C_6  and  C_7
REMARK    7  A    between atoms: C_6  and  N_8
REMARK    8  A    between atoms: C_9  and  C_10
REMARK    9  A    between atoms: C_11  and  C_12
REMARK   10  A    between atoms: C_12  and  C_14
REMARK                            x       y       z     vdW  Elec       q    Type
REMARK                         _______ _______ _______ _____ _____    ______ ____
ROOT
ATOM      1  N   UNL     1       3.126   6.834  18.139  0.00  0.00    +0.000 N 
ATOM      2  C   UNL     1       2.415   7.975  18.602  0.00  0.00    +0.000 A 
ATOM      3  C   UNL     1       2.368   9.241  17.817  0.00  0.00    +0.000 C 
ATOM      4  C   UNL     1       1.840   7.708  19.854  0.00  0.00    +0.000 A 
ATOM      5  C   UNL     1       2.011   6.242  20.006  0.00  0.00    +0.000 A 
ATOM      6  C   UNL     1       1.595   5.255  20.960  0.00  0.00    +0.000 A 
ATOM      7  C   UNL     1       2.032   3.914  20.876  0.00  0.00    +0.000 A 
ATOM      8  C   UNL     1       2.882   3.496  19.861  0.00  0.00    +0.000 A 
ATOM      9  C   UNL     1       3.296   4.423  18.917  0.00  0.00    +0.000 A 
ATOM     10  C   UNL     1       2.848   5.759  18.967  0.00  0.00    +0.000 A 
ENDROOT
BRANCH   1  11
ATOM     11  C   UNL     1       4.187   6.822  17.085  0.00  0.00    +0.000 C 
ATOM     12  C   UNL     1       4.533   5.489  16.372  0.00  0.00    +0.000 C 
BRANCH  11  13
ATOM     13  C   UNL     1       5.481   7.466  17.640  0.00  0.00    +0.000 C 
BRANCH  13  14
ATOM     14  C   UNL     1       6.682   6.510  17.688  0.00  0.00    +0.000 C 
BRANCH  14  15
ATOM     15  C   UNL     1       7.952   7.254  18.104  0.00  0.00    +0.000 C 
BRANCH  15  17
ATOM     16  C   UNL     1       8.823   9.550  18.631  0.00  0.00    +0.000 C 
ATOM     17  C   UNL     1       7.872   8.742  17.763  0.00  0.00    +0.000 C 
ENDBRANCH  15  17
ENDBRANCH  14  15
ENDBRANCH  13  14
ENDBRANCH  11  13
ENDBRANCH   1  11
BRANCH   4  18
ATOM     18  C   UNL     1       1.309   8.849  20.901  0.00  0.00    +0.000 C 
ATOM     19  O   UNL     1       1.503   8.740  22.098  0.00  0.00    +0.000 OA
BRANCH  18  20
ATOM     20  C   UNL     1       0.362   9.988  20.283  0.00  0.00    +0.000 A 
ATOM     21  C   UNL     1       0.885  11.192  20.744  0.00  0.00    +0.000 A 
ATOM     22  C   UNL     1       0.126  12.299  20.634  0.00  0.00    +0.000 A 
ATOM     23  C   UNL     1      -0.010  12.493  19.316  0.00  0.00    +0.000 A 
ATOM     24  C   UNL     1      -0.657  11.493  18.619  0.00  0.00    +0.000 A 
ATOM     25  C   UNL     1      -1.272  11.973  17.459  0.00  0.00    +0.000 A 
ATOM     26  C   UNL     1      -2.304  11.278  16.878  0.00  0.00    +0.000 A 
ATOM     27  C   UNL     1      -2.651  10.071  17.443  0.00  0.00    +0.000 A 
ATOM     28  C   UNL     1      -1.843   9.482  18.487  0.00  0.00    +0.000 A 
ATOM     29  C   UNL     1      -0.727  10.174  19.187  0.00  0.00    +0.000 A 
ENDBRANCH  18  20
ENDBRANCH   4  18
TORSDOF 7
ENDMDL
MODEL 9
REMARK VINA RESULT:      -7.7      2.793      9.292
REMARK  Name = 
REMARK  10 active torsions:
REMARK  status: ('A' for Active; 'I' for Inactive)
REMARK    1  A    between atoms: C_1  and  C_2
REMARK    2  A    between atoms: C_2  and  C_3
REMARK    3  A    between atoms: C_3  and  C_4
REMARK    4  A    between atoms: C_4  and  C_5
REMARK    5  A    between atoms: C_5  and  C_6
REMARK    6  A    between atoms: C_6  and  C_7
REMARK    7  A    between atoms: C_6  and  N_8
REMARK    8  A    between atoms: C_9  and  C_10
REMARK    9  A    between atoms: C_11  and  C_12
REMARK   10  A    between atoms: C_12  and  C_14
REMARK                            x       y       z     vdW  Elec       q    Type
REMARK                         _______ _______ _______ _____ _____    ______ ____
ROOT
ATOM      1  N   UNL     1      -1.250  12.290  19.767  0.00  0.00    +0.000 N 
ATOM      2  C   UNL     1       0.056  11.734  19.858  0.00  0.00    +0.000 A 
ATOM      3  C   UNL     1       1.037  12.199  20.879  0.00  0.00    +0.000 C 
ATOM      4  C   UNL     1       0.236  10.764  18.859  0.00  0.00    +0.000 A 
ATOM      5  C   UNL     1      -1.134  10.563  18.324  0.00  0.00    +0.000 A 
ATOM      6  C   UNL     1      -1.743   9.677  17.375  0.00  0.00    +0.000 A 
ATOM      7  C   UNL     1      -3.095   9.822  16.990  0.00  0.00    +0.000 A 
ATOM      8  C   UNL     1      -3.891  10.828  17.519  0.00  0.00    +0.000 A 
ATOM      9  C   UNL     1      -3.335  11.696  18.446  0.00  0.00    +0.000 A 
ATOM     10  C   UNL     1      -1.996  11.552  18.865  0.00  0.00    +0.000 A 
ENDROOT
BRANCH   1  11
ATOM     11  C   UNL     1      -1.698  13.592  20.352  0.00  0.00    +0.000 C 
ATOM     12  C   UNL     1      -0.882  14.876  20.058  0.00  0.00    +0.000 C 
BRANCH  11  13
ATOM     13  C   UNL     1      -1.893  13.437  21.880  0.00  0.00    +0.000 C 
BRANCH  13  14
ATOM     14  C   UNL     1      -3.216  12.762  22.274  0.00  0.00    +0.000 C 
BRANCH  14  15
ATOM     15  C   UNL     1      -3.089  12.068  23.631  0.00  0.00    +0.000 C 
BRANCH  15  17
ATOM     16  C   UNL     1      -5.174  13.439  23.919  0.00  0.00    +0.000 C 
ATOM     17  C   UNL     1      -4.288  12.366  24.531  0.00  0.00    +0.000 C 
ENDBRANCH  15  17
ENDBRANCH  14  15
ENDBRANCH  13  14
ENDBRANCH  11  13
ENDBRANCH   1  11
BRANCH   4  18
ATOM     18  C   UNL     1       1.687  10.198  18.356  0.00  0.00    +0.000 C 
ATOM     19  O   UNL     1       2.335  10.795  17.516  0.00  0.00    +0.000 OA
BRANCH  18  20
ATOM     20  C   UNL     1       2.095   8.737  18.879  0.00  0.00    +0.000 A 
ATOM     21  C   UNL     1       1.397   8.564  20.070  0.00  0.00    +0.000 A 
ATOM     22  C   UNL     1       1.769   7.559  20.886  0.00  0.00    +0.000 A 
ATOM     23  C   UNL     1       1.506   6.442  20.196  0.00  0.00    +0.000 A 
ATOM     24  C   UNL     1       2.202   6.279  19.015  0.00  0.00    +0.000 A 
ATOM     25  C   UNL     1       2.345   4.931  18.670  0.00  0.00    +0.000 A 
ATOM     26  C   UNL     1       3.344   4.532  17.817  0.00  0.00    +0.000 A 
ATOM     27  C   UNL     1       4.141   5.514  17.272  0.00  0.00    +0.000 A 
ATOM     28  C   UNL     1       3.820   6.913  17.450  0.00  0.00    +0.000 A 
ATOM     29  C   UNL     1       2.774   7.431  18.373  0.00  0.00    +0.000 A 
ENDBRANCH  18  20
ENDBRANCH   4  18
TORSDOF 7
ENDMDL
