MODEL 1
REMARK VINA RESULT:      -7.9      0.000      0.000
REMARK  Name = 
REMARK  2 active torsions:
REMARK  status: ('A' for Active; 'I' for Inactive)
REMARK    1  A    between atoms: O_1  and  C_2
REMARK    2  A    between atoms: N_13  and  C_14
REMARK                            x       y       z     vdW  Elec       q    Type
REMARK                         _______ _______ _______ _____ _____    ______ ____
ROOT
ATOM      1  C   UNL     1       1.832   7.565  20.049  0.00  0.00    +0.000 A 
ATOM      2  C   UNL     1       2.653   7.493  18.936  0.00  0.00    +0.000 A 
ATOM      3  C   UNL     1       3.054   6.241  18.454  0.00  0.00    +0.000 A 
ATOM      4  C   UNL     1       2.721   5.055  19.119  0.00  0.00    +0.000 A 
ATOM      5  C   UNL     1       1.829   5.146  20.215  0.00  0.00    +0.000 A 
ATOM      6  C   UNL     1       1.398   6.406  20.672  0.00  0.00    +0.000 A 
ATOM      7  C   UNL     1       1.236   3.926  20.894  0.00  0.00    +0.000 C 
ATOM      8  C   UNL     1       1.709   2.536  20.442  0.00  0.00    +0.000 C 
ATOM      9  C   UNL     1       2.669   2.561  19.321  0.00  0.00    +0.000 A 
ATOM     10  C   UNL     1       3.201   1.488  18.602  0.00  0.00    +0.000 A 
ATOM     11  N   UNL     1       3.986   1.892  17.611  0.00  0.00    +0.000 NA
ATOM     12  N   UNL     1       4.084   3.248  17.765  0.00  0.00    +0.000 N 
ATOM     13  C   UNL     1       3.184   3.709  18.734  0.00  0.00    +0.000 A 
ENDROOT
BRANCH  12  14
ATOM     14  C   UNL     1       5.038   3.926  16.956  0.00  0.00    +0.000 A 
ATOM     15  C   UNL     1       6.217   4.397  17.559  0.00  0.00    +0.000 A 
ATOM     16  C   UNL     1       7.220   4.980  16.785  0.00  0.00    +0.000 A 
ATOM     17  C   UNL     1       7.044   5.119  15.410  0.00  0.00    +0.000 A 
ATOM     18  C   UNL     1       5.844   4.724  14.817  0.00  0.00    +0.000 A 
ATOM     19  C   UNL     1       4.829   4.154  15.593  0.00  0.00    +0.000 A 
ENDBRANCH  12  14
BRANCH   1  20
ATOM     20  O   UNL     1       1.404   8.758  20.548  0.00  0.00    +0.000 OA
ATOM     21  H   UNL     1       2.181   9.309  20.742  0.00  0.00    +0.000 HD
ENDBRANCH   1  20
TORSDOF 2
ENDMDL
MODEL 2
REMARK VINA RESULT:      -7.8      0.135      1.086
REMARK  Name = 
REMARK  2 active torsions:
REMARK  status: ('A' for Active; 'I' for Inactive)
REMARK    1  A    between atoms: O_1  and  C_2
REMARK    2  A    between atoms: N_13  and  C_14
REMARK                            x       y       z     vdW  Elec       q    Type
REMARK                         _______ _______ _______ _____ _____    ______ ____
ROOT
ATOM      1  C   UNL     1       1.831   7.599  20.081  0.00  0.00    +0.000 A 
ATOM      2  C   UNL     1       2.692   7.533  18.999  0.00  0.00    +0.000 A 
ATOM      3  C   UNL     1       3.098   6.283  18.514  0.00  0.00    +0.000 A 
ATOM      4  C   UNL     1       2.727   5.092  19.148  0.00  0.00    +0.000 A 
ATOM      5  C   UNL     1       1.796   5.177  20.212  0.00  0.00    +0.000 A 
ATOM      6  C   UNL     1       1.362   6.435  20.671  0.00  0.00    +0.000 A 
ATOM      7  C   UNL     1       1.164   3.955  20.850  0.00  0.00    +0.000 C 
ATOM      8  C   UNL     1       1.639   2.565  20.395  0.00  0.00    +0.000 C 
ATOM      9  C   UNL     1       2.640   2.596  19.311  0.00  0.00    +0.000 A 
ATOM     10  C   UNL     1       3.187   1.527  18.597  0.00  0.00    +0.000 A 
ATOM     11  N   UNL     1       4.013   1.937  17.642  0.00  0.00    +0.000 NA
ATOM     12  N   UNL     1       4.120   3.289  17.820  0.00  0.00    +0.000 N 
ATOM     13  C   UNL     1       3.189   3.746  18.761  0.00  0.00    +0.000 A 
ENDROOT
BRANCH  12  14
ATOM     14  C   UNL     1       5.111   3.968  17.056  0.00  0.00    +0.000 A 
ATOM     15  C   UNL     1       4.947   4.048  15.663  0.00  0.00    +0.000 A 
ATOM     16  C   UNL     1       5.844   4.785  14.890  0.00  0.00    +0.000 A 
ATOM     17  C   UNL     1       6.920   5.426  15.496  0.00  0.00    +0.000 A 
ATOM     18  C   UNL     1       7.133   5.286  16.868  0.00  0.00    +0.000 A 
ATOM     19  C   UNL     1       6.246   4.533  17.645  0.00  0.00    +0.000 A 
ENDBRANCH  12  14
BRANCH   1  20
ATOM     20  O   UNL     1       1.398   8.789  20.582  0.00  0.00    +0.000 OA
ATOM     21  H   UNL     1       1.126   9.355  19.841  0.00  0.00    +0.000 HD
ENDBRANCH   1  20
TORSDOF 2
ENDMDL
MODEL 3
REMARK VINA RESULT:      -7.7      1.075      1.352
REMARK  Name = 
REMARK  2 active torsions:
REMARK  status: ('A' for Active; 'I' for Inactive)
REMARK    1  A    between atoms: O_1  and  C_2
REMARK    2  A    between atoms: N_13  and  C_14
REMARK                            x       y       z     vdW  Elec       q    Type
REMARK                         _______ _______ _______ _____ _____    ______ ____
ROOT
ATOM      1  C   UNL     1       2.006   8.789  18.747  0.00  0.00    +0.000 A 
ATOM      2  C   UNL     1       2.788   8.271  17.728  0.00  0.00    +0.000 A 
ATOM      3  C   UNL     1       3.202   6.935  17.787  0.00  0.00    +0.000 A 
ATOM      4  C   UNL     1       2.922   6.125  18.893  0.00  0.00    +0.000 A 
ATOM      5  C   UNL     1       2.068   6.652  19.892  0.00  0.00    +0.000 A 
ATOM      6  C   UNL     1       1.623   7.985  19.809  0.00  0.00    +0.000 A 
ATOM      7  C   UNL     1       1.529   5.815  21.037  0.00  0.00    +0.000 C 
ATOM      8  C   UNL     1       2.020   4.365  21.176  0.00  0.00    +0.000 C 
ATOM      9  C   UNL     1       2.938   3.935  20.104  0.00  0.00    +0.000 A 
ATOM     10  C   UNL     1       3.470   2.665  19.867  0.00  0.00    +0.000 A 
ATOM     11  N   UNL     1       4.209   2.631  18.765  0.00  0.00    +0.000 NA
ATOM     12  N   UNL     1       4.280   3.931  18.345  0.00  0.00    +0.000 N 
ATOM     13  C   UNL     1       3.403   4.743  19.076  0.00  0.00    +0.000 A 
ENDROOT
BRANCH  12  14
ATOM     14  C   UNL     1       5.187   4.223  17.288  0.00  0.00    +0.000 A 
ATOM     15  C   UNL     1       6.495   4.617  17.617  0.00  0.00    +0.000 A 
ATOM     16  C   UNL     1       7.443   4.819  16.614  0.00  0.00    +0.000 A 
ATOM     17  C   UNL     1       7.087   4.652  15.278  0.00  0.00    +0.000 A 
ATOM     18  C   UNL     1       5.770   4.337  14.942  0.00  0.00    +0.000 A 
ATOM     19  C   UNL     1       4.813   4.151  15.944  0.00  0.00    +0.000 A 
ENDBRANCH  12  14
BRANCH   1  20
ATOM     20  O   UNL     1       1.567  10.078  18.730  0.00  0.00    +0.000 OA
ATOM     21  H   UNL     1       2.253  10.643  19.120  0.00  0.00    +0.000 HD
ENDBRANCH   1  20
TORSDOF 2
ENDMDL
MODEL 4
REMARK VINA RESULT:      -7.7      1.114      1.766
REMARK  Name = 
REMARK  2 active torsions:
REMARK  status: ('A' for Active; 'I' for Inactive)
REMARK    1  A    between atoms: O_1  and  C_2
REMARK    2  A    between atoms: N_13  and  C_14
REMARK                            x       y       z     vdW  Elec       q    Type
REMARK                         _______ _______ _______ _____ _____    ______ ____
ROOT
ATOM      1  C   UNL     1       2.086   8.769  18.612  0.00  0.00    +0.000 A 
ATOM      2  C   UNL     1       2.883   8.215  17.624  0.00  0.00    +0.000 A 
ATOM      3  C   UNL     1       3.292   6.880  17.734  0.00  0.00    +0.000 A 
ATOM      4  C   UNL     1       2.992   6.108  18.862  0.00  0.00    +0.000 A 
ATOM      5  C   UNL     1       2.123   6.671  19.830  0.00  0.00    +0.000 A 
ATOM      6  C   UNL     1       1.684   8.002  19.695  0.00  0.00    +0.000 A 
ATOM      7  C   UNL     1       1.564   5.875  20.993  0.00  0.00    +0.000 C 
ATOM      8  C   UNL     1       2.047   4.430  21.188  0.00  0.00    +0.000 C 
ATOM      9  C   UNL     1       2.981   3.960  20.146  0.00  0.00    +0.000 A 
ATOM     10  C   UNL     1       3.512   2.682  19.961  0.00  0.00    +0.000 A 
ATOM     11  N   UNL     1       4.268   2.610  18.872  0.00  0.00    +0.000 NA
ATOM     12  N   UNL     1       4.350   3.894  18.410  0.00  0.00    +0.000 N 
ATOM     13  C   UNL     1       3.465   4.733  19.100  0.00  0.00    +0.000 A 
ENDROOT
BRANCH  12  14
ATOM     14  C   UNL     1       5.276   4.148  17.359  0.00  0.00    +0.000 A 
ATOM     15  C   UNL     1       4.852   3.962  16.032  0.00  0.00    +0.000 A 
ATOM     16  C   UNL     1       5.695   4.291  14.971  0.00  0.00    +0.000 A 
ATOM     17  C   UNL     1       6.972   4.784  15.225  0.00  0.00    +0.000 A 
ATOM     18  C   UNL     1       7.427   4.898  16.540  0.00  0.00    +0.000 A 
ATOM     19  C   UNL     1       6.590   4.553  17.607  0.00  0.00    +0.000 A 
ENDBRANCH  12  14
BRANCH   1  20
ATOM     20  O   UNL     1       1.652  10.058  18.545  0.00  0.00    +0.000 OA
ATOM     21  H   UNL     1       1.867  10.411  17.666  0.00  0.00    +0.000 HD
ENDBRANCH   1  20
TORSDOF 2
ENDMDL
MODEL 5
REMARK VINA RESULT:      -7.1      2.731      5.422
REMARK  Name = 
REMARK  2 active torsions:
REMARK  status: ('A' for Active; 'I' for Inactive)
REMARK    1  A    between atoms: O_1  and  C_2
REMARK    2  A    between atoms: N_13  and  C_14
REMARK                            x       y       z     vdW  Elec       q    Type
REMARK                         _______ _______ _______ _____ _____    ______ ____
ROOT
ATOM      1  C   UNL     1       5.620   5.452  15.607  0.00  0.00    +0.000 A 
ATOM      2  C   UNL     1       5.172   6.633  16.175  0.00  0.00    +0.000 A 
ATOM      3  C   UNL     1       4.325   6.586  17.289  0.00  0.00    +0.000 A 
ATOM      4  C   UNL     1       3.843   5.374  17.798  0.00  0.00    +0.000 A 
ATOM      5  C   UNL     1       4.364   4.178  17.245  0.00  0.00    +0.000 A 
ATOM      6  C   UNL     1       5.245   4.232  16.149  0.00  0.00    +0.000 A 
ATOM      7  C   UNL     1       4.078   2.810  17.833  0.00  0.00    +0.000 C 
ATOM      8  C   UNL     1       3.095   2.711  19.010  0.00  0.00    +0.000 C 
ATOM      9  C   UNL     1       2.583   4.014  19.478  0.00  0.00    +0.000 A 
ATOM     10  C   UNL     1       1.776   4.289  20.584  0.00  0.00    +0.000 A 
ATOM     11  N   UNL     1       1.568   5.591  20.738  0.00  0.00    +0.000 NA
ATOM     12  N   UNL     1       2.131   6.174  19.636  0.00  0.00    +0.000 N 
ATOM     13  C   UNL     1       2.876   5.242  18.901  0.00  0.00    +0.000 A 
ENDROOT
BRANCH  12  14
ATOM     14  C   UNL     1       1.877   7.560  19.434  0.00  0.00    +0.000 A 
ATOM     15  C   UNL     1       2.059   8.094  18.147  0.00  0.00    +0.000 A 
ATOM     16  C   UNL     1       1.729   9.424  17.884  0.00  0.00    +0.000 A 
ATOM     17  C   UNL     1       1.239  10.233  18.905  0.00  0.00    +0.000 A 
ATOM     18  C   UNL     1       1.130   9.730  20.202  0.00  0.00    +0.000 A 
ATOM     19  C   UNL     1       1.476   8.402  20.474  0.00  0.00    +0.000 A 
ENDBRANCH  12  14
BRANCH   1  20
ATOM     20  O   UNL     1       6.454   5.445  14.531  0.00  0.00    +0.000 OA
ATOM     21  H   UNL     1       7.318   5.794  14.806  0.00  0.00    +0.000 HD
ENDBRANCH   1  20
TORSDOF 2
ENDMDL
MODEL 6
REMARK VINA RESULT:      -7.1      2.795      5.403
REMARK  Name = 
REMARK  2 active torsions:
REMARK  status: ('A' for Active; 'I' for Inactive)
REMARK    1  A    between atoms: O_1  and  C_2
REMARK    2  A    between atoms: N_13  and  C_14
REMARK                            x       y       z     vdW  Elec       q    Type
REMARK                         _______ _______ _______ _____ _____    ______ ____
ROOT
ATOM      1  C   UNL     1       5.658   5.471  15.668  0.00  0.00    +0.000 A 
ATOM      2  C   UNL     1       5.166   6.678  16.136  0.00  0.00    +0.000 A 
ATOM      3  C   UNL     1       4.327   6.694  17.257  0.00  0.00    +0.000 A 
ATOM      4  C   UNL     1       3.898   5.513  17.873  0.00  0.00    +0.000 A 
ATOM      5  C   UNL     1       4.463   4.295  17.421  0.00  0.00    +0.000 A 
ATOM      6  C   UNL     1       5.335   4.288  16.316  0.00  0.00    +0.000 A 
ATOM      7  C   UNL     1       4.235   2.972  18.127  0.00  0.00    +0.000 C 
ATOM      8  C   UNL     1       3.263   2.937  19.317  0.00  0.00    +0.000 C 
ATOM      9  C   UNL     1       2.702   4.254  19.675  0.00  0.00    +0.000 A 
ATOM     10  C   UNL     1       1.890   4.592  20.761  0.00  0.00    +0.000 A 
ATOM     11  N   UNL     1       1.631   5.893  20.804  0.00  0.00    +0.000 NA
ATOM     12  N   UNL     1       2.164   6.400  19.651  0.00  0.00    +0.000 N 
ATOM     13  C   UNL     1       2.942   5.439  18.992  0.00  0.00    +0.000 A 
ENDROOT
BRANCH  12  14
ATOM     14  C   UNL     1       1.854   7.752  19.332  0.00  0.00    +0.000 A 
ATOM     15  C   UNL     1       1.331   8.577  20.342  0.00  0.00    +0.000 A 
ATOM     16  C   UNL     1       1.103   9.931  20.098  0.00  0.00    +0.000 A 
ATOM     17  C   UNL     1       1.373  10.465  18.840  0.00  0.00    +0.000 A 
ATOM     18  C   UNL     1       1.818   9.635  17.811  0.00  0.00    +0.000 A 
ATOM     19  C   UNL     1       2.032   8.273  18.047  0.00  0.00    +0.000 A 
ENDBRANCH  12  14
BRANCH   1  20
ATOM     20  O   UNL     1       6.486   5.404  14.589  0.00  0.00    +0.000 OA
ATOM     21  H   UNL     1       7.052   6.193  14.584  0.00  0.00    +0.000 HD
ENDBRANCH   1  20
TORSDOF 2
ENDMDL
MODEL 7
REMARK VINA RESULT:      -7.0      2.636      5.523
REMARK  Name = 
REMARK  2 active torsions:
REMARK  status: ('A' for Active; 'I' for Inactive)
REMARK    1  A    between atoms: O_1  and  C_2
REMARK    2  A    between atoms: N_13  and  C_14
REMARK                            x       y       z     vdW  Elec       q    Type
REMARK                         _______ _______ _______ _____ _____    ______ ____
ROOT
ATOM      1  C   UNL     1       1.914   3.006  21.271  0.00  0.00    +0.000 A 
ATOM      2  C   UNL     1       1.186   4.159  21.032  0.00  0.00    +0.000 A 
ATOM      3  C   UNL     1       1.660   5.096  20.106  0.00  0.00    +0.000 A 
ATOM      4  C   UNL     1       2.900   4.944  19.474  0.00  0.00    +0.000 A 
ATOM      5  C   UNL     1       3.598   3.729  19.683  0.00  0.00    +0.000 A 
ATOM      6  C   UNL     1       3.097   2.774  20.587  0.00  0.00    +0.000 A 
ATOM      7  C   UNL     1       4.848   3.357  18.909  0.00  0.00    +0.000 C 
ATOM      8  C   UNL     1       5.440   4.391  17.937  0.00  0.00    +0.000 C 
ATOM      9  C   UNL     1       4.655   5.636  17.829  0.00  0.00    +0.000 A 
ATOM     10  C   UNL     1       4.845   6.716  16.965  0.00  0.00    +0.000 A 
ATOM     11  N   UNL     1       3.899   7.637  17.102  0.00  0.00    +0.000 NA
ATOM     12  N   UNL     1       3.152   7.223  18.171  0.00  0.00    +0.000 N 
ATOM     13  C   UNL     1       3.514   5.928  18.564  0.00  0.00    +0.000 A 
ENDROOT
BRANCH  12  14
ATOM     14  C   UNL     1       2.183   8.134  18.677  0.00  0.00    +0.000 A 
ATOM     15  C   UNL     1       1.506   8.965  17.770  0.00  0.00    +0.000 A 
ATOM     16  C   UNL     1       0.481   9.803  18.212  0.00  0.00    +0.000 A 
ATOM     17  C   UNL     1       0.142   9.833  19.562  0.00  0.00    +0.000 A 
ATOM     18  C   UNL     1       0.863   9.067  20.479  0.00  0.00    +0.000 A 
ATOM     19  C   UNL     1       1.902   8.239  20.042  0.00  0.00    +0.000 A 
ENDBRANCH  12  14
BRANCH   1  20
ATOM     20  O   UNL     1       1.489   2.059  22.153  0.00  0.00    +0.000 OA
ATOM     21  H   UNL     1       2.259   1.550  22.455  0.00  0.00    +0.000 HD
ENDBRANCH   1  20
TORSDOF 2
ENDMDL
MODEL 8
REMARK VINA RESULT:      -7.0      2.976      5.535
REMARK  Name = 
REMARK  2 active torsions:
REMARK  status: ('A' for Active; 'I' for Inactive)
REMARK    1  A    between atoms: O_1  and  C_2
REMARK    2  A    between atoms: N_13  and  C_14
REMARK                            x       y       z     vdW  Elec       q    Type
REMARK                         _______ _______ _______ _____ _____    ______ ____
ROOT
ATOM      1  C   UNL     1      -0.346   9.959  21.849  0.00  0.00    +0.000 A 
ATOM      2  C   UNL     1      -0.030   8.652  22.177  0.00  0.00    +0.000 A 
ATOM      3  C   UNL     1       0.799   7.908  21.328  0.00  0.00    +0.000 A 
ATOM      4  C   UNL     1       1.253   8.420  20.107  0.00  0.00    +0.000 A 
ATOM      5  C   UNL     1       0.974   9.779  19.822  0.00  0.00    +0.000 A 
ATOM      6  C   UNL     1       0.170  10.534  20.698  0.00  0.00    +0.000 A 
ATOM      7  C   UNL     1       1.571  10.508  18.634  0.00  0.00    +0.000 C 
ATOM      8  C   UNL     1       2.428   9.707  17.641  0.00  0.00    +0.000 C 
ATOM      9  C   UNL     1       2.618   8.292  18.014  0.00  0.00    +0.000 A 
ATOM     10  C   UNL     1       3.424   7.329  17.403  0.00  0.00    +0.000 A 
ATOM     11  N   UNL     1       3.402   6.173  18.056  0.00  0.00    +0.000 NA
ATOM     12  N   UNL     1       2.458   6.335  19.033  0.00  0.00    +0.000 N 
ATOM     13  C   UNL     1       2.045   7.671  19.116  0.00  0.00    +0.000 A 
ENDROOT
BRANCH  12  14
ATOM     14  C   UNL     1       2.074   5.175  19.763  0.00  0.00    +0.000 A 
ATOM     15  C   UNL     1       1.220   4.246  19.146  0.00  0.00    +0.000 A 
ATOM     16  C   UNL     1       0.897   3.051  19.789  0.00  0.00    +0.000 A 
ATOM     17  C   UNL     1       1.404   2.786  21.059  0.00  0.00    +0.000 A 
ATOM     18  C   UNL     1       2.190   3.739  21.709  0.00  0.00    +0.000 A 
ATOM     19  C   UNL     1       2.501   4.946  21.074  0.00  0.00    +0.000 A 
ENDBRANCH  12  14
BRANCH   1  20
ATOM     20  O   UNL     1      -1.138  10.728  22.648  0.00  0.00    +0.000 OA
ATOM     21  H   UNL     1      -1.795  11.176  22.091  0.00  0.00    +0.000 HD
ENDBRANCH   1  20
TORSDOF 2
ENDMDL
MODEL 9
REMARK VINA RESULT:      -7.0      2.652      5.411
REMARK  Name = 
REMARK  2 active torsions:
REMARK  status: ('A' for Active; 'I' for Inactive)
REMARK    1  A    between atoms: O_1  and  C_2
REMARK    2  A    between atoms: N_13  and  C_14
REMARK                            x       y       z     vdW  Elec       q    Type
REMARK                         _______ _______ _______ _____ _____    ______ ____
ROOT
ATOM      1  C   UNL     1       1.909   2.987  21.293  0.00  0.00    +0.000 A 
ATOM      2  C   UNL     1       1.166   4.119  21.001  0.00  0.00    +0.000 A 
ATOM      3  C   UNL     1       1.660   5.051  20.081  0.00  0.00    +0.000 A 
ATOM      4  C   UNL     1       2.930   4.918  19.507  0.00  0.00    +0.000 A 
ATOM      5  C   UNL     1       3.645   3.723  19.767  0.00  0.00    +0.000 A 
ATOM      6  C   UNL     1       3.126   2.771  20.665  0.00  0.00    +0.000 A 
ATOM      7  C   UNL     1       4.936   3.367  19.055  0.00  0.00    +0.000 C 
ATOM      8  C   UNL     1       5.547   4.397  18.093  0.00  0.00    +0.000 C 
ATOM      9  C   UNL     1       4.740   5.622  17.929  0.00  0.00    +0.000 A 
ATOM     10  C   UNL     1       4.944   6.692  17.055  0.00  0.00    +0.000 A 
ATOM     11  N   UNL     1       3.973   7.593  17.135  0.00  0.00    +0.000 NA
ATOM     12  N   UNL     1       3.189   7.180  18.177  0.00  0.00    +0.000 N 
ATOM     13  C   UNL     1       3.562   5.900  18.608  0.00  0.00    +0.000 A 
ENDROOT
BRANCH  12  14
ATOM     14  C   UNL     1       2.178   8.076  18.624  0.00  0.00    +0.000 A 
ATOM     15  C   UNL     1       1.881   8.122  19.997  0.00  0.00    +0.000 A 
ATOM     16  C   UNL     1       0.966   9.054  20.489  0.00  0.00    +0.000 A 
ATOM     17  C   UNL     1       0.326   9.928  19.614  0.00  0.00    +0.000 A 
ATOM     18  C   UNL     1       0.559   9.835  18.241  0.00  0.00    +0.000 A 
ATOM     19  C   UNL     1       1.462   8.890  17.742  0.00  0.00    +0.000 A 
ENDBRANCH  12  14
BRANCH   1  20
ATOM     20  O   UNL     1       1.466   2.045  22.171  0.00  0.00    +0.000 OA
ATOM     21  H   UNL     1       1.850   2.231  23.044  0.00  0.00    +0.000 HD
ENDBRANCH   1  20
TORSDOF 2
ENDMDL
