MODEL 1
REMARK VINA RESULT:      -7.2      0.000      0.000
REMARK  Name = 
REMARK  3 active torsions:
REMARK  status: ('A' for Active; 'I' for Inactive)
REMARK    1  A    between atoms: C_4  and  C_5
REMARK    2  A    between atoms: C_5  and  C_6
REMARK    3  A    between atoms: C_6  and  C_7
REMARK                            x       y       z     vdW  Elec       q    Type
REMARK                         _______ _______ _______ _____ _____    ______ ____
ROOT
ATOM      1  C   UNL     1       4.452   6.070  18.058  0.00  0.00    +0.000 C 
ENDROOT
BRANCH   1   5
ATOM      2  N   UNL     1       8.318   5.505  20.210  0.00  0.00    +0.000 N 
ATOM      3  C   UNL     1       7.446   5.572  19.188  0.00  0.00    +0.000 C 
ATOM      4  N   UNL     1       6.370   4.880  19.048  0.00  0.00    +0.000 NA
ATOM      5  C   UNL     1       5.786   5.366  17.788  0.00  0.00    +0.000 C 
ATOM      6  C   UNL     1       6.834   6.308  17.212  0.00  0.00    +0.000 C 
ATOM      7  O   UNL     1       7.775   6.495  18.260  0.00  0.00    +0.000 OA
ATOM      8  H   UNL     1       7.928   5.090  21.047  0.00  0.00    +0.000 HD
ATOM      9  H   UNL     1       8.851   6.351  20.362  0.00  0.00    +0.000 HD
ENDBRANCH   1   5
BRANCH   1  10
ATOM     10  C   UNL     1       3.249   5.226  17.625  0.00  0.00    +0.000 C 
BRANCH  10  11
ATOM     11  C   UNL     1       2.615   4.510  18.793  0.00  0.00    +0.000 A 
ATOM     12  C   UNL     1       2.619   5.078  20.076  0.00  0.00    +0.000 A 
ATOM     13  C   UNL     1       2.029   4.399  21.145  0.00  0.00    +0.000 A 
ATOM     14  C   UNL     1       1.441   3.155  20.934  0.00  0.00    +0.000 A 
ATOM     15  F   UNL     1       0.874   2.512  21.963  0.00  0.00    +0.000 F 
ATOM     16  C   UNL     1       1.434   2.571  19.675  0.00  0.00    +0.000 A 
ATOM     17  C   UNL     1       2.026   3.251  18.618  0.00  0.00    +0.000 A 
ATOM     18  F   UNL     1       2.021   2.679  17.405  0.00  0.00    +0.000 F 
ENDBRANCH  10  11
ENDBRANCH   1  10
TORSDOF 3
ENDMDL
MODEL 2
REMARK VINA RESULT:      -7.2      1.664      1.860
REMARK  Name = 
REMARK  3 active torsions:
REMARK  status: ('A' for Active; 'I' for Inactive)
REMARK    1  A    between atoms: C_4  and  C_5
REMARK    2  A    between atoms: C_5  and  C_6
REMARK    3  A    between atoms: C_6  and  C_7
REMARK                            x       y       z     vdW  Elec       q    Type
REMARK                         _______ _______ _______ _____ _____    ______ ____
ROOT
ATOM      1  C   UNL     1       4.462   4.939  17.046  0.00  0.00    +0.000 C 
ENDROOT
BRANCH   1   5
ATOM      2  N   UNL     1       7.777   7.913  17.302  0.00  0.00    +0.000 N 
ATOM      3  C   UNL     1       7.162   6.721  17.206  0.00  0.00    +0.000 C 
ATOM      4  N   UNL     1       6.319   6.220  18.039  0.00  0.00    +0.000 NA
ATOM      5  C   UNL     1       5.942   4.928  17.446  0.00  0.00    +0.000 C 
ATOM      6  C   UNL     1       6.866   4.768  16.246  0.00  0.00    +0.000 C 
ATOM      7  O   UNL     1       7.486   6.036  16.088  0.00  0.00    +0.000 OA
ATOM      8  H   UNL     1       7.307   8.560  17.922  0.00  0.00    +0.000 HD
ATOM      9  H   UNL     1       8.068   8.306  16.417  0.00  0.00    +0.000 HD
ENDBRANCH   1   5
BRANCH   1  10
ATOM     10  C   UNL     1       3.827   3.546  17.125  0.00  0.00    +0.000 C 
BRANCH  10  11
ATOM     11  C   UNL     1       3.085   3.339  18.423  0.00  0.00    +0.000 A 
ATOM     12  C   UNL     1       3.713   2.740  19.525  0.00  0.00    +0.000 A 
ATOM     13  C   UNL     1       3.008   2.556  20.718  0.00  0.00    +0.000 A 
ATOM     14  C   UNL     1       1.681   2.965  20.807  0.00  0.00    +0.000 A 
ATOM     15  F   UNL     1       1.013   2.788  21.955  0.00  0.00    +0.000 F 
ATOM     16  C   UNL     1       1.038   3.551  19.726  0.00  0.00    +0.000 A 
ATOM     17  C   UNL     1       1.744   3.728  18.542  0.00  0.00    +0.000 A 
ATOM     18  F   UNL     1       1.117   4.290  17.499  0.00  0.00    +0.000 F 
ENDBRANCH  10  11
ENDBRANCH   1  10
TORSDOF 3
ENDMDL
MODEL 3
REMARK VINA RESULT:      -7.2      1.230      1.554
REMARK  Name = 
REMARK  3 active torsions:
REMARK  status: ('A' for Active; 'I' for Inactive)
REMARK    1  A    between atoms: C_4  and  C_5
REMARK    2  A    between atoms: C_5  and  C_6
REMARK    3  A    between atoms: C_6  and  C_7
REMARK                            x       y       z     vdW  Elec       q    Type
REMARK                         _______ _______ _______ _____ _____    ______ ____
ROOT
ATOM      1  C   UNL     1       5.715   4.229  16.677  0.00  0.00    +0.000 C 
ENDROOT
BRANCH   1   5
ATOM      2  N   UNL     1       8.234   5.565  20.108  0.00  0.00    +0.000 N 
ATOM      3  C   UNL     1       7.773   5.472  18.848  0.00  0.00    +0.000 C 
ATOM      4  N   UNL     1       7.697   4.405  18.132  0.00  0.00    +0.000 NA
ATOM      5  C   UNL     1       7.101   4.857  16.865  0.00  0.00    +0.000 C 
ATOM      6  C   UNL     1       7.040   6.373  16.983  0.00  0.00    +0.000 C 
ATOM      7  O   UNL     1       7.337   6.647  18.345  0.00  0.00    +0.000 OA
ATOM      8  H   UNL     1       8.239   4.682  20.601  0.00  0.00    +0.000 HD
ATOM      9  H   UNL     1       7.862   6.345  20.633  0.00  0.00    +0.000 HD
ENDBRANCH   1   5
BRANCH   1  10
ATOM     10  C   UNL     1       4.598   5.277  16.662  0.00  0.00    +0.000 C 
BRANCH  10  11
ATOM     11  C   UNL     1       3.591   5.041  17.761  0.00  0.00    +0.000 A 
ATOM     12  C   UNL     1       3.618   5.800  18.941  0.00  0.00    +0.000 A 
ATOM     13  C   UNL     1       2.678   5.565  19.947  0.00  0.00    +0.000 A 
ATOM     14  C   UNL     1       1.717   4.573  19.778  0.00  0.00    +0.000 A 
ATOM     15  F   UNL     1       0.817   4.356  20.745  0.00  0.00    +0.000 F 
ATOM     16  C   UNL     1       1.678   3.804  18.622  0.00  0.00    +0.000 A 
ATOM     17  C   UNL     1       2.617   4.041  17.627  0.00  0.00    +0.000 A 
ATOM     18  F   UNL     1       2.578   3.292  16.517  0.00  0.00    +0.000 F 
ENDBRANCH  10  11
ENDBRANCH   1  10
TORSDOF 3
ENDMDL
MODEL 4
REMARK VINA RESULT:      -7.1      1.297      1.437
REMARK  Name = 
REMARK  3 active torsions:
REMARK  status: ('A' for Active; 'I' for Inactive)
REMARK    1  A    between atoms: C_4  and  C_5
REMARK    2  A    between atoms: C_5  and  C_6
REMARK    3  A    between atoms: C_6  and  C_7
REMARK                            x       y       z     vdW  Elec       q    Type
REMARK                         _______ _______ _______ _____ _____    ______ ____
ROOT
ATOM      1  C   UNL     1       5.342   4.040  16.744  0.00  0.00    +0.000 C 
ENDROOT
BRANCH   1   5
ATOM      2  N   UNL     1       8.150   5.584  19.848  0.00  0.00    +0.000 N 
ATOM      3  C   UNL     1       7.531   5.465  18.659  0.00  0.00    +0.000 C 
ATOM      4  N   UNL     1       7.475   4.412  17.922  0.00  0.00    +0.000 NA
ATOM      5  C   UNL     1       6.663   4.819  16.765  0.00  0.00    +0.000 C 
ATOM      6  C   UNL     1       6.451   6.315  16.946  0.00  0.00    +0.000 C 
ATOM      7  O   UNL     1       6.902   6.593  18.264  0.00  0.00    +0.000 OA
ATOM      8  H   UNL     1       8.321   4.697  20.303  0.00  0.00    +0.000 HD
ATOM      9  H   UNL     1       7.771   6.305  20.447  0.00  0.00    +0.000 HD
ENDBRANCH   1   5
BRANCH   1  10
ATOM     10  C   UNL     1       4.162   4.881  17.240  0.00  0.00    +0.000 C 
BRANCH  10  11
ATOM     11  C   UNL     1       3.399   4.185  18.342  0.00  0.00    +0.000 A 
ATOM     12  C   UNL     1       4.074   3.511  19.371  0.00  0.00    +0.000 A 
ATOM     13  C   UNL     1       3.351   2.871  20.381  0.00  0.00    +0.000 A 
ATOM     14  C   UNL     1       1.959   2.901  20.360  0.00  0.00    +0.000 A 
ATOM     15  F   UNL     1       1.273   2.289  21.334  0.00  0.00    +0.000 F 
ATOM     16  C   UNL     1       1.273   3.555  19.346  0.00  0.00    +0.000 A 
ATOM     17  C   UNL     1       1.998   4.186  18.344  0.00  0.00    +0.000 A 
ATOM     18  F   UNL     1       1.330   4.810  17.364  0.00  0.00    +0.000 F 
ENDBRANCH  10  11
ENDBRANCH   1  10
TORSDOF 3
ENDMDL
MODEL 5
REMARK VINA RESULT:      -7.1      1.349      2.091
REMARK  Name = 
REMARK  3 active torsions:
REMARK  status: ('A' for Active; 'I' for Inactive)
REMARK    1  A    between atoms: C_4  and  C_5
REMARK    2  A    between atoms: C_5  and  C_6
REMARK    3  A    between atoms: C_6  and  C_7
REMARK                            x       y       z     vdW  Elec       q    Type
REMARK                         _______ _______ _______ _____ _____    ______ ____
ROOT
ATOM      1  C   UNL     1       4.945   6.049  17.723  0.00  0.00    +0.000 C 
ENDROOT
BRANCH   1   5
ATOM      2  N   UNL     1       8.492   5.298  20.322  0.00  0.00    +0.000 N 
ATOM      3  C   UNL     1       7.781   5.587  19.217  0.00  0.00    +0.000 C 
ATOM      4  N   UNL     1       6.881   4.850  18.666  0.00  0.00    +0.000 NA
ATOM      5  C   UNL     1       6.410   5.646  17.521  0.00  0.00    +0.000 C 
ATOM      6  C   UNL     1       7.343   6.848  17.474  0.00  0.00    +0.000 C 
ATOM      7  O   UNL     1       8.070   6.797  18.693  0.00  0.00    +0.000 OA
ATOM      8  H   UNL     1       8.064   4.586  20.901  0.00  0.00    +0.000 HD
ATOM      9  H   UNL     1       8.833   6.106  20.823  0.00  0.00    +0.000 HD
ENDBRANCH   1   5
BRANCH   1  10
ATOM     10  C   UNL     1       4.400   5.604  19.083  0.00  0.00    +0.000 C 
BRANCH  10  11
ATOM     11  C   UNL     1       3.265   4.620  18.940  0.00  0.00    +0.000 A 
ATOM     12  C   UNL     1       3.267   3.660  17.916  0.00  0.00    +0.000 A 
ATOM     13  C   UNL     1       2.206   2.758  17.798  0.00  0.00    +0.000 A 
ATOM     14  C   UNL     1       1.145   2.818  18.697  0.00  0.00    +0.000 A 
ATOM     15  F   UNL     1       0.134   1.948  18.580  0.00  0.00    +0.000 F 
ATOM     16  C   UNL     1       1.118   3.766  19.711  0.00  0.00    +0.000 A 
ATOM     17  C   UNL     1       2.175   4.661  19.820  0.00  0.00    +0.000 A 
ATOM     18  F   UNL     1       2.141   5.577  20.797  0.00  0.00    +0.000 F 
ENDBRANCH  10  11
ENDBRANCH   1  10
TORSDOF 3
ENDMDL
MODEL 6
REMARK VINA RESULT:      -7.1      1.128      1.187
REMARK  Name = 
REMARK  3 active torsions:
REMARK  status: ('A' for Active; 'I' for Inactive)
REMARK    1  A    between atoms: C_4  and  C_5
REMARK    2  A    between atoms: C_5  and  C_6
REMARK    3  A    between atoms: C_6  and  C_7
REMARK                            x       y       z     vdW  Elec       q    Type
REMARK                         _______ _______ _______ _____ _____    ______ ____
ROOT
ATOM      1  C   UNL     1       4.558   5.018  17.020  0.00  0.00    +0.000 C 
ENDROOT
BRANCH   1   5
ATOM      2  N   UNL     1       8.036   5.597  19.751  0.00  0.00    +0.000 N 
ATOM      3  C   UNL     1       7.353   5.301  18.631  0.00  0.00    +0.000 C 
ATOM      4  N   UNL     1       6.429   4.413  18.505  0.00  0.00    +0.000 NA
ATOM      5  C   UNL     1       6.007   4.524  17.100  0.00  0.00    +0.000 C 
ATOM      6  C   UNL     1       6.989   5.504  16.475  0.00  0.00    +0.000 C 
ATOM      7  O   UNL     1       7.699   6.063  17.572  0.00  0.00    +0.000 OA
ATOM      8  H   UNL     1       7.572   5.295  20.599  0.00  0.00    +0.000 HD
ATOM      9  H   UNL     1       8.406   6.538  19.780  0.00  0.00    +0.000 HD
ENDBRANCH   1   5
BRANCH   1  10
ATOM     10  C   UNL     1       3.561   3.870  16.828  0.00  0.00    +0.000 C 
BRANCH  10  11
ATOM     11  C   UNL     1       2.788   3.580  18.092  0.00  0.00    +0.000 A 
ATOM     12  C   UNL     1       2.028   4.580  18.718  0.00  0.00    +0.000 A 
ATOM     13  C   UNL     1       1.320   4.293  19.889  0.00  0.00    +0.000 A 
ATOM     14  C   UNL     1       1.375   3.013  20.433  0.00  0.00    +0.000 A 
ATOM     15  F   UNL     1       0.691   2.744  21.552  0.00  0.00    +0.000 F 
ATOM     16  C   UNL     1       2.127   2.012  19.834  0.00  0.00    +0.000 A 
ATOM     17  C   UNL     1       2.831   2.306  18.673  0.00  0.00    +0.000 A 
ATOM     18  F   UNL     1       3.560   1.337  18.103  0.00  0.00    +0.000 F 
ENDBRANCH  10  11
ENDBRANCH   1  10
TORSDOF 3
ENDMDL
MODEL 7
REMARK VINA RESULT:      -7.0      2.114      2.917
REMARK  Name = 
REMARK  3 active torsions:
REMARK  status: ('A' for Active; 'I' for Inactive)
REMARK    1  A    between atoms: C_4  and  C_5
REMARK    2  A    between atoms: C_5  and  C_6
REMARK    3  A    between atoms: C_6  and  C_7
REMARK                            x       y       z     vdW  Elec       q    Type
REMARK                         _______ _______ _______ _____ _____    ______ ____
ROOT
ATOM      1  C   UNL     1       5.043   5.945  18.224  0.00  0.00    +0.000 C 
ENDROOT
BRANCH   1   5
ATOM      2  N   UNL     1       7.464   5.191  14.554  0.00  0.00    +0.000 N 
ATOM      3  C   UNL     1       7.182   5.429  15.847  0.00  0.00    +0.000 C 
ATOM      4  N   UNL     1       6.532   6.433  16.322  0.00  0.00    +0.000 NA
ATOM      5  C   UNL     1       6.488   6.187  17.772  0.00  0.00    +0.000 C 
ATOM      6  C   UNL     1       7.375   4.969  17.986  0.00  0.00    +0.000 C 
ATOM      7  O   UNL     1       7.632   4.468  16.682  0.00  0.00    +0.000 OA
ATOM      8  H   UNL     1       6.863   5.693  13.912  0.00  0.00    +0.000 HD
ATOM      9  H   UNL     1       7.608   4.216  14.329  0.00  0.00    +0.000 HD
ENDBRANCH   1   5
BRANCH   1  10
ATOM     10  C   UNL     1       4.930   4.775  19.208  0.00  0.00    +0.000 C 
BRANCH  10  11
ATOM     11  C   UNL     1       3.644   4.007  19.021  0.00  0.00    +0.000 A 
ATOM     12  C   UNL     1       3.510   3.063  17.992  0.00  0.00    +0.000 A 
ATOM     13  C   UNL     1       2.312   2.362  17.834  0.00  0.00    +0.000 A 
ATOM     14  C   UNL     1       1.249   2.607  18.699  0.00  0.00    +0.000 A 
ATOM     15  F   UNL     1       0.105   1.929  18.544  0.00  0.00    +0.000 F 
ATOM     16  C   UNL     1       1.357   3.543  19.719  0.00  0.00    +0.000 A 
ATOM     17  C   UNL     1       2.551   4.237  19.867  0.00  0.00    +0.000 A 
ATOM     18  F   UNL     1       2.647   5.144  20.849  0.00  0.00    +0.000 F 
ENDBRANCH  10  11
ENDBRANCH   1  10
TORSDOF 3
ENDMDL
MODEL 8
REMARK VINA RESULT:      -7.0      2.117      2.409
REMARK  Name = 
REMARK  3 active torsions:
REMARK  status: ('A' for Active; 'I' for Inactive)
REMARK    1  A    between atoms: C_4  and  C_5
REMARK    2  A    between atoms: C_5  and  C_6
REMARK    3  A    between atoms: C_6  and  C_7
REMARK                            x       y       z     vdW  Elec       q    Type
REMARK                         _______ _______ _______ _____ _____    ______ ____
ROOT
ATOM      1  C   UNL     1       5.131   4.292  17.844  0.00  0.00    +0.000 C 
ENDROOT
BRANCH   1   5
ATOM      2  N   UNL     1       7.571   5.249  14.234  0.00  0.00    +0.000 N 
ATOM      3  C   UNL     1       6.824   5.446  15.334  0.00  0.00    +0.000 C 
ATOM      4  N   UNL     1       5.628   5.016  15.540  0.00  0.00    +0.000 NA
ATOM      5  C   UNL     1       5.300   5.485  16.895  0.00  0.00    +0.000 C 
ATOM      6  C   UNL     1       6.467   6.379  17.290  0.00  0.00    +0.000 C 
ATOM      7  O   UNL     1       7.455   6.153  16.295  0.00  0.00    +0.000 OA
ATOM      8  H   UNL     1       7.263   4.465  13.672  0.00  0.00    +0.000 HD
ATOM      9  H   UNL     1       8.569   5.295  14.392  0.00  0.00    +0.000 HD
ENDBRANCH   1   5
BRANCH   1  10
ATOM     10  C   UNL     1       3.847   3.504  17.566  0.00  0.00    +0.000 C 
BRANCH  10  11
ATOM     11  C   UNL     1       3.048   3.269  18.825  0.00  0.00    +0.000 A 
ATOM     12  C   UNL     1       3.665   2.796  19.993  0.00  0.00    +0.000 A 
ATOM     13  C   UNL     1       2.908   2.584  21.148  0.00  0.00    +0.000 A 
ATOM     14  C   UNL     1       1.540   2.838  21.136  0.00  0.00    +0.000 A 
ATOM     15  F   UNL     1       0.822   2.636  22.247  0.00  0.00    +0.000 F 
ATOM     16  C   UNL     1       0.909   3.298  19.988  0.00  0.00    +0.000 A 
ATOM     17  C   UNL     1       1.667   3.504  18.842  0.00  0.00    +0.000 A 
ATOM     18  F   UNL     1       1.050   3.942  17.736  0.00  0.00    +0.000 F 
ENDBRANCH  10  11
ENDBRANCH   1  10
TORSDOF 3
ENDMDL
MODEL 9
REMARK VINA RESULT:      -7.0      2.732      3.330
REMARK  Name = 
REMARK  3 active torsions:
REMARK  status: ('A' for Active; 'I' for Inactive)
REMARK    1  A    between atoms: C_4  and  C_5
REMARK    2  A    between atoms: C_5  and  C_6
REMARK    3  A    between atoms: C_6  and  C_7
REMARK                            x       y       z     vdW  Elec       q    Type
REMARK                         _______ _______ _______ _____ _____    ______ ____
ROOT
ATOM      1  C   UNL     1       5.085   5.899  16.692  0.00  0.00    +0.000 C 
ENDROOT
BRANCH   1   5
ATOM      2  N   UNL     1       8.036   5.446  13.377  0.00  0.00    +0.000 N 
ATOM      3  C   UNL     1       7.289   5.124  14.449  0.00  0.00    +0.000 C 
ATOM      4  N   UNL     1       7.282   5.719  15.590  0.00  0.00    +0.000 NA
ATOM      5  C   UNL     1       6.277   4.988  16.377  0.00  0.00    +0.000 C 
ATOM      6  C   UNL     1       5.887   3.803  15.504  0.00  0.00    +0.000 C 
ATOM      7  O   UNL     1       6.465   4.076  14.235  0.00  0.00    +0.000 OA
ATOM      8  H   UNL     1       8.386   6.396  13.401  0.00  0.00    +0.000 HD
ATOM      9  H   UNL     1       7.643   5.158  12.492  0.00  0.00    +0.000 HD
ENDBRANCH   1   5
BRANCH   1  10
ATOM     10  C   UNL     1       4.607   5.753  18.140  0.00  0.00    +0.000 C 
BRANCH  10  11
ATOM     11  C   UNL     1       3.538   4.697  18.276  0.00  0.00    +0.000 A 
ATOM     12  C   UNL     1       2.225   4.940  17.844  0.00  0.00    +0.000 A 
ATOM     13  C   UNL     1       1.248   3.950  17.979  0.00  0.00    +0.000 A 
ATOM     14  C   UNL     1       1.580   2.724  18.547  0.00  0.00    +0.000 A 
ATOM     15  F   UNL     1       0.640   1.779  18.670  0.00  0.00    +0.000 F 
ATOM     16  C   UNL     1       2.871   2.466  18.989  0.00  0.00    +0.000 A 
ATOM     17  C   UNL     1       3.836   3.456  18.854  0.00  0.00    +0.000 A 
ATOM     18  F   UNL     1       5.079   3.204  19.288  0.00  0.00    +0.000 F 
ENDBRANCH  10  11
ENDBRANCH   1  10
TORSDOF 3
ENDMDL
