MODEL 1
REMARK VINA RESULT:      -7.2      0.000      0.000
REMARK  Name = 
REMARK  5 active torsions:
REMARK  status: ('A' for Active; 'I' for Inactive)
REMARK    1  A    between atoms: C_1  and  C_2
REMARK    2  A    between atoms: C_2  and  O_3
REMARK    3  A    between atoms: O_3  and  C_4
REMARK    4  A    between atoms: C_7  and  N_8
REMARK    5  A    between atoms: N_8  and  C_9
REMARK                            x       y       z     vdW  Elec       q    Type
REMARK                         _______ _______ _______ _____ _____    ______ ____
ROOT
ATOM      1  N   UNL     1       5.729   6.436  16.397  0.00  0.00    +0.000 N 
ATOM      2  H   UNL     1       5.507   7.429  16.420  0.00  0.00    +0.000 HD
ENDROOT
BRANCH   1   3
ATOM      3  C   UNL     1       7.133   6.237  16.753  0.00  0.00    +0.000 C 
ATOM      4  S   UNL     1       7.178   4.779  17.851  0.00  0.00    +0.000 S 
ATOM      5  C   UNL     1       7.730   5.701  19.220  0.00  0.00    +0.000 C 
ATOM      6  O   UNL     1       7.796   5.260  20.355  0.00  0.00    +0.000 OA
ATOM      7  N   UNL     1       8.055   6.958  18.853  0.00  0.00    +0.000 N 
ATOM      8  C   UNL     1       7.721   7.371  17.601  0.00  0.00    +0.000 C 
ATOM      9  O   UNL     1       7.898   8.534  17.243  0.00  0.00    +0.000 OA
ATOM     10  H   UNL     1       8.385   7.621  19.537  0.00  0.00    +0.000 HD
ENDBRANCH   1   3
BRANCH   1  14
ATOM     11  C   UNL     1       2.524   4.318  18.176  0.00  0.00    +0.000 A 
ATOM     12  C   UNL     1       2.839   5.616  18.571  0.00  0.00    +0.000 A 
ATOM     13  C   UNL     1       3.914   6.294  17.982  0.00  0.00    +0.000 A 
ATOM     14  C   UNL     1       4.734   5.678  17.024  0.00  0.00    +0.000 A 
ATOM     15  C   UNL     1       4.408   4.369  16.652  0.00  0.00    +0.000 A 
ATOM     16  C   UNL     1       3.327   3.689  17.230  0.00  0.00    +0.000 A 
BRANCH  11  17
ATOM     17  O   UNL     1       1.419   3.770  18.765  0.00  0.00    +0.000 OA
BRANCH  17  19
ATOM     18  C   UNL     1       1.432   2.964  21.016  0.00  0.00    +0.000 C 
ATOM     19  C   UNL     1       1.180   4.162  20.119  0.00  0.00    +0.000 C 
ENDBRANCH  17  19
ENDBRANCH  11  17
ENDBRANCH   1  14
TORSDOF 4
ENDMDL
MODEL 2
REMARK VINA RESULT:      -7.1      3.153      6.144
REMARK  Name = 
REMARK  5 active torsions:
REMARK  status: ('A' for Active; 'I' for Inactive)
REMARK    1  A    between atoms: C_1  and  C_2
REMARK    2  A    between atoms: C_2  and  O_3
REMARK    3  A    between atoms: O_3  and  C_4
REMARK    4  A    between atoms: C_7  and  N_8
REMARK    5  A    between atoms: N_8  and  C_9
REMARK                            x       y       z     vdW  Elec       q    Type
REMARK                         _______ _______ _______ _____ _____    ______ ____
ROOT
ATOM      1  N   UNL     1       4.102   5.227  19.421  0.00  0.00    +0.000 N 
ATOM      2  H   UNL     1       3.982   6.106  19.921  0.00  0.00    +0.000 HD
ENDROOT
BRANCH   1   3
ATOM      3  C   UNL     1       2.804   4.579  19.243  0.00  0.00    +0.000 C 
ATOM      4  S   UNL     1       1.924   4.759  20.833  0.00  0.00    +0.000 S 
ATOM      5  C   UNL     1       1.907   3.044  21.133  0.00  0.00    +0.000 C 
ATOM      6  O   UNL     1       1.564   2.542  22.190  0.00  0.00    +0.000 OA
ATOM      7  N   UNL     1       2.338   2.362  20.051  0.00  0.00    +0.000 N 
ATOM      8  C   UNL     1       2.895   3.064  19.027  0.00  0.00    +0.000 C 
ATOM      9  O   UNL     1       3.398   2.493  18.061  0.00  0.00    +0.000 OA
ATOM     10  H   UNL     1       2.395   1.357  20.069  0.00  0.00    +0.000 HD
ENDBRANCH   1   3
BRANCH   1  14
ATOM     11  C   UNL     1       6.702   5.400  16.085  0.00  0.00    +0.000 A 
ATOM     12  C   UNL     1       7.114   4.843  17.292  0.00  0.00    +0.000 A 
ATOM     13  C   UNL     1       6.245   4.810  18.389  0.00  0.00    +0.000 A 
ATOM     14  C   UNL     1       4.964   5.379  18.328  0.00  0.00    +0.000 A 
ATOM     15  C   UNL     1       4.575   5.946  17.110  0.00  0.00    +0.000 A 
ATOM     16  C   UNL     1       5.437   5.972  16.004  0.00  0.00    +0.000 A 
BRANCH  11  17
ATOM     17  O   UNL     1       7.602   5.325  15.058  0.00  0.00    +0.000 OA
BRANCH  17  19
ATOM     18  C   UNL     1       7.919   5.361  12.688  0.00  0.00    +0.000 C 
ATOM     19  C   UNL     1       7.099   4.791  13.831  0.00  0.00    +0.000 C 
ENDBRANCH  17  19
ENDBRANCH  11  17
ENDBRANCH   1  14
TORSDOF 4
ENDMDL
MODEL 3
REMARK VINA RESULT:      -7.0      4.016      5.183
REMARK  Name = 
REMARK  5 active torsions:
REMARK  status: ('A' for Active; 'I' for Inactive)
REMARK    1  A    between atoms: C_1  and  C_2
REMARK    2  A    between atoms: C_2  and  O_3
REMARK    3  A    between atoms: O_3  and  C_4
REMARK    4  A    between atoms: C_7  and  N_8
REMARK    5  A    between atoms: N_8  and  C_9
REMARK                            x       y       z     vdW  Elec       q    Type
REMARK                         _______ _______ _______ _____ _____    ______ ____
ROOT
ATOM      1  N   UNL     1       3.270   6.046  19.732  0.00  0.00    +0.000 N 
ATOM      2  H   UNL     1       2.735   5.384  20.290  0.00  0.00    +0.000 HD
ENDROOT
BRANCH   1   3
ATOM      3  C   UNL     1       4.021   5.330  18.703  0.00  0.00    +0.000 C 
ATOM      4  S   UNL     1       2.931   3.986  18.120  0.00  0.00    +0.000 S 
ATOM      5  C   UNL     1       3.987   2.736  18.712  0.00  0.00    +0.000 C 
ATOM      6  O   UNL     1       3.688   1.554  18.750  0.00  0.00    +0.000 OA
ATOM      7  N   UNL     1       5.159   3.256  19.133  0.00  0.00    +0.000 N 
ATOM      8  C   UNL     1       5.264   4.608  19.237  0.00  0.00    +0.000 C 
ATOM      9  O   UNL     1       6.269   5.137  19.709  0.00  0.00    +0.000 OA
ATOM     10  H   UNL     1       5.876   2.659  19.514  0.00  0.00    +0.000 HD
ENDBRANCH   1   3
BRANCH   1  14
ATOM     11  C   UNL     1       1.095   9.572  18.862  0.00  0.00    +0.000 A 
ATOM     12  C   UNL     1       1.034   8.979  20.120  0.00  0.00    +0.000 A 
ATOM     13  C   UNL     1       1.748   7.803  20.383  0.00  0.00    +0.000 A 
ATOM     14  C   UNL     1       2.497   7.160  19.387  0.00  0.00    +0.000 A 
ATOM     15  C   UNL     1       2.534   7.766  18.126  0.00  0.00    +0.000 A 
ATOM     16  C   UNL     1       1.830   8.949  17.859  0.00  0.00    +0.000 A 
BRANCH  11  17
ATOM     17  O   UNL     1       0.415  10.750  18.727  0.00  0.00    +0.000 OA
BRANCH  17  19
ATOM     18  C   UNL     1      -1.688  10.199  17.732  0.00  0.00    +0.000 C 
ATOM     19  C   UNL     1      -0.990  10.688  18.988  0.00  0.00    +0.000 C 
ENDBRANCH  17  19
ENDBRANCH  11  17
ENDBRANCH   1  14
TORSDOF 4
ENDMDL
MODEL 4
REMARK VINA RESULT:      -7.0      3.068      6.242
REMARK  Name = 
REMARK  5 active torsions:
REMARK  status: ('A' for Active; 'I' for Inactive)
REMARK    1  A    between atoms: C_1  and  C_2
REMARK    2  A    between atoms: C_2  and  O_3
REMARK    3  A    between atoms: O_3  and  C_4
REMARK    4  A    between atoms: C_7  and  N_8
REMARK    5  A    between atoms: N_8  and  C_9
REMARK                            x       y       z     vdW  Elec       q    Type
REMARK                         _______ _______ _______ _____ _____    ______ ____
ROOT
ATOM      1  N   UNL     1       3.593   4.862  19.854  0.00  0.00    +0.000 N 
ATOM      2  H   UNL     1       2.729   5.401  19.831  0.00  0.00    +0.000 HD
ENDROOT
BRANCH   1   3
ATOM      3  C   UNL     1       3.284   3.446  20.050  0.00  0.00    +0.000 C 
ATOM      4  S   UNL     1       2.606   2.849  18.463  0.00  0.00    +0.000 S 
ATOM      5  C   UNL     1       1.037   2.522  19.141  0.00  0.00    +0.000 C 
ATOM      6  O   UNL     1       0.056   2.232  18.476  0.00  0.00    +0.000 OA
ATOM      7  N   UNL     1       1.057   2.650  20.484  0.00  0.00    +0.000 N 
ATOM      8  C   UNL     1       2.161   3.193  21.063  0.00  0.00    +0.000 C 
ATOM      9  O   UNL     1       2.200   3.430  22.269  0.00  0.00    +0.000 OA
ATOM     10  H   UNL     1       0.220   2.501  21.024  0.00  0.00    +0.000 HD
ENDBRANCH   1   3
BRANCH   1  14
ATOM     11  C   UNL     1       6.202   5.783  16.651  0.00  0.00    +0.000 A 
ATOM     12  C   UNL     1       6.572   4.883  17.647  0.00  0.00    +0.000 A 
ATOM     13  C   UNL     1       5.701   4.604  18.708  0.00  0.00    +0.000 A 
ATOM     14  C   UNL     1       4.464   5.253  18.832  0.00  0.00    +0.000 A 
ATOM     15  C   UNL     1       4.118   6.164  17.827  0.00  0.00    +0.000 A 
ATOM     16  C   UNL     1       4.981   6.439  16.757  0.00  0.00    +0.000 A 
BRANCH  11  17
ATOM     17  O   UNL     1       7.096   5.936  15.628  0.00  0.00    +0.000 OA
BRANCH  17  19
ATOM     18  C   UNL     1       6.080   4.406  14.096  0.00  0.00    +0.000 C 
ATOM     19  C   UNL     1       7.350   4.765  14.847  0.00  0.00    +0.000 C 
ENDBRANCH  17  19
ENDBRANCH  11  17
ENDBRANCH   1  14
TORSDOF 4
ENDMDL
MODEL 5
REMARK VINA RESULT:      -6.9      1.822      2.339
REMARK  Name = 
REMARK  5 active torsions:
REMARK  status: ('A' for Active; 'I' for Inactive)
REMARK    1  A    between atoms: C_1  and  C_2
REMARK    2  A    between atoms: C_2  and  O_3
REMARK    3  A    between atoms: O_3  and  C_4
REMARK    4  A    between atoms: C_7  and  N_8
REMARK    5  A    between atoms: N_8  and  C_9
REMARK                            x       y       z     vdW  Elec       q    Type
REMARK                         _______ _______ _______ _____ _____    ______ ____
ROOT
ATOM      1  N   UNL     1       4.721   4.269  16.071  0.00  0.00    +0.000 N 
ATOM      2  H   UNL     1       4.451   5.202  15.765  0.00  0.00    +0.000 HD
ENDROOT
BRANCH   1   3
ATOM      3  C   UNL     1       6.170   4.209  16.250  0.00  0.00    +0.000 C 
ATOM      4  S   UNL     1       6.497   4.779  17.953  0.00  0.00    +0.000 S 
ATOM      5  C   UNL     1       7.366   6.191  17.422  0.00  0.00    +0.000 C 
ATOM      6  O   UNL     1       7.714   7.094  18.164  0.00  0.00    +0.000 OA
ATOM      7  N   UNL     1       7.580   6.151  16.091  0.00  0.00    +0.000 N 
ATOM      8  C   UNL     1       6.943   5.194  15.364  0.00  0.00    +0.000 C 
ATOM      9  O   UNL     1       7.017   5.168  14.137  0.00  0.00    +0.000 OA
ATOM     10  H   UNL     1       8.064   6.903  15.628  0.00  0.00    +0.000 HD
ENDBRANCH   1   3
BRANCH   1  14
ATOM     11  C   UNL     1       1.930   2.899  18.944  0.00  0.00    +0.000 A 
ATOM     12  C   UNL     1       1.988   4.241  18.576  0.00  0.00    +0.000 A 
ATOM     13  C   UNL     1       2.930   4.677  17.636  0.00  0.00    +0.000 A 
ATOM     14  C   UNL     1       3.871   3.800  17.079  0.00  0.00    +0.000 A 
ATOM     15  C   UNL     1       3.804   2.458  17.472  0.00  0.00    +0.000 A 
ATOM     16  C   UNL     1       2.857   2.013  18.405  0.00  0.00    +0.000 A 
BRANCH  11  17
ATOM     17  O   UNL     1       0.934   2.565  19.819  0.00  0.00    +0.000 OA
BRANCH  17  19
ATOM     18  C   UNL     1       2.343   2.654  21.748  0.00  0.00    +0.000 C 
ATOM     19  C   UNL     1       1.043   3.132  21.127  0.00  0.00    +0.000 C 
ENDBRANCH  17  19
ENDBRANCH  11  17
ENDBRANCH   1  14
TORSDOF 4
ENDMDL
MODEL 6
REMARK VINA RESULT:      -6.9      4.171      5.212
REMARK  Name = 
REMARK  5 active torsions:
REMARK  status: ('A' for Active; 'I' for Inactive)
REMARK    1  A    between atoms: C_1  and  C_2
REMARK    2  A    between atoms: C_2  and  O_3
REMARK    3  A    between atoms: O_3  and  C_4
REMARK    4  A    between atoms: C_7  and  N_8
REMARK    5  A    between atoms: N_8  and  C_9
REMARK                            x       y       z     vdW  Elec       q    Type
REMARK                         _______ _______ _______ _____ _____    ______ ____
ROOT
ATOM      1  N   UNL     1       2.988   5.966  20.065  0.00  0.00    +0.000 N 
ATOM      2  H   UNL     1       2.448   5.487  20.783  0.00  0.00    +0.000 HD
ENDROOT
BRANCH   1   3
ATOM      3  C   UNL     1       3.378   5.016  19.025  0.00  0.00    +0.000 C 
ATOM      4  S   UNL     1       2.902   3.364  19.641  0.00  0.00    +0.000 S 
ATOM      5  C   UNL     1       4.550   2.810  19.727  0.00  0.00    +0.000 C 
ATOM      6  O   UNL     1       4.888   1.762  20.251  0.00  0.00    +0.000 OA
ATOM      7  N   UNL     1       5.387   3.700  19.156  0.00  0.00    +0.000 N 
ATOM      8  C   UNL     1       4.894   4.921  18.813  0.00  0.00    +0.000 C 
ATOM      9  O   UNL     1       5.628   5.809  18.384  0.00  0.00    +0.000 OA
ATOM     10  H   UNL     1       6.379   3.528  19.134  0.00  0.00    +0.000 HD
ENDBRANCH   1   3
BRANCH   1  14
ATOM     11  C   UNL     1       1.020   9.506  18.832  0.00  0.00    +0.000 A 
ATOM     12  C   UNL     1       1.798   8.766  17.945  0.00  0.00    +0.000 A 
ATOM     13  C   UNL     1       2.454   7.607  18.377  0.00  0.00    +0.000 A 
ATOM     14  C   UNL     1       2.397   7.185  19.713  0.00  0.00    +0.000 A 
ATOM     15  C   UNL     1       1.622   7.950  20.591  0.00  0.00    +0.000 A 
ATOM     16  C   UNL     1       0.953   9.106  20.163  0.00  0.00    +0.000 A 
BRANCH  11  17
ATOM     17  O   UNL     1       0.370  10.583  18.297  0.00  0.00    +0.000 OA
BRANCH  17  19
ATOM     18  C   UNL     1      -1.728   9.995  17.312  0.00  0.00    +0.000 C 
ATOM     19  C   UNL     1      -1.043  10.623  18.512  0.00  0.00    +0.000 C 
ENDBRANCH  17  19
ENDBRANCH  11  17
ENDBRANCH   1  14
TORSDOF 4
ENDMDL
MODEL 7
REMARK VINA RESULT:      -6.9      2.713      6.035
REMARK  Name = 
REMARK  5 active torsions:
REMARK  status: ('A' for Active; 'I' for Inactive)
REMARK    1  A    between atoms: C_1  and  C_2
REMARK    2  A    between atoms: C_2  and  O_3
REMARK    3  A    between atoms: O_3  and  C_4
REMARK    4  A    between atoms: C_7  and  N_8
REMARK    5  A    between atoms: N_8  and  C_9
REMARK                            x       y       z     vdW  Elec       q    Type
REMARK                         _______ _______ _______ _____ _____    ______ ____
ROOT
ATOM      1  N   UNL     1       2.827   3.665  17.511  0.00  0.00    +0.000 N 
ATOM      2  H   UNL     1       3.095   2.683  17.553  0.00  0.00    +0.000 HD
ENDROOT
BRANCH   1   3
ATOM      3  C   UNL     1       1.981   3.994  18.657  0.00  0.00    +0.000 C 
ATOM      4  S   UNL     1       3.111   4.235  20.071  0.00  0.00    +0.000 S 
ATOM      5  C   UNL     1       2.478   2.865  20.939  0.00  0.00    +0.000 C 
ATOM      6  O   UNL     1       2.983   2.409  21.952  0.00  0.00    +0.000 OA
ATOM      7  N   UNL     1       1.376   2.378  20.331  0.00  0.00    +0.000 N 
ATOM      8  C   UNL     1       1.062   2.848  19.094  0.00  0.00    +0.000 C 
ATOM      9  O   UNL     1       0.131   2.372  18.447  0.00  0.00    +0.000 OA
ATOM     10  H   UNL     1       0.897   1.576  20.708  0.00  0.00    +0.000 HD
ENDBRANCH   1   3
BRANCH   1  14
ATOM     11  C   UNL     1       6.151   6.195  16.827  0.00  0.00    +0.000 A 
ATOM     12  C   UNL     1       4.906   6.716  17.168  0.00  0.00    +0.000 A 
ATOM     13  C   UNL     1       3.814   5.864  17.374  0.00  0.00    +0.000 A 
ATOM     14  C   UNL     1       3.922   4.477  17.193  0.00  0.00    +0.000 A 
ATOM     15  C   UNL     1       5.179   3.975  16.837  0.00  0.00    +0.000 A 
ATOM     16  C   UNL     1       6.278   4.823  16.640  0.00  0.00    +0.000 A 
BRANCH  11  17
ATOM     17  O   UNL     1       7.165   7.106  16.712  0.00  0.00    +0.000 OA
BRANCH  17  19
ATOM     18  C   UNL     1       8.122   8.935  17.918  0.00  0.00    +0.000 C 
ATOM     19  C   UNL     1       7.834   7.445  17.929  0.00  0.00    +0.000 C 
ENDBRANCH  17  19
ENDBRANCH  11  17
ENDBRANCH   1  14
TORSDOF 4
ENDMDL
MODEL 8
REMARK VINA RESULT:      -6.9      2.897      6.312
REMARK  Name = 
REMARK  5 active torsions:
REMARK  status: ('A' for Active; 'I' for Inactive)
REMARK    1  A    between atoms: C_1  and  C_2
REMARK    2  A    between atoms: C_2  and  O_3
REMARK    3  A    between atoms: O_3  and  C_4
REMARK    4  A    between atoms: C_7  and  N_8
REMARK    5  A    between atoms: N_8  and  C_9
REMARK                            x       y       z     vdW  Elec       q    Type
REMARK                         _______ _______ _______ _____ _____    ______ ____
ROOT
ATOM      1  N   UNL     1       2.983   3.827  18.005  0.00  0.00    +0.000 N 
ATOM      2  H   UNL     1       3.266   2.865  18.180  0.00  0.00    +0.000 HD
ENDROOT
BRANCH   1   3
ATOM      3  C   UNL     1       1.805   4.149  18.808  0.00  0.00    +0.000 C 
ATOM      4  S   UNL     1       2.431   4.705  20.430  0.00  0.00    +0.000 S 
ATOM      5  C   UNL     1       1.725   3.358  21.278  0.00  0.00    +0.000 C 
ATOM      6  O   UNL     1       1.954   3.094  22.446  0.00  0.00    +0.000 OA
ATOM      7  N   UNL     1       0.914   2.650  20.464  0.00  0.00    +0.000 N 
ATOM      8  C   UNL     1       0.930   2.932  19.134  0.00  0.00    +0.000 C 
ATOM      9  O   UNL     1       0.291   2.257  18.329  0.00  0.00    +0.000 OA
ATOM     10  H   UNL     1       0.436   1.832  20.805  0.00  0.00    +0.000 HD
ENDBRANCH   1   3
BRANCH   1  14
ATOM     11  C   UNL     1       6.455   6.244  17.835  0.00  0.00    +0.000 A 
ATOM     12  C   UNL     1       6.458   5.021  18.502  0.00  0.00    +0.000 A 
ATOM     13  C   UNL     1       5.295   4.244  18.561  0.00  0.00    +0.000 A 
ATOM     14  C   UNL     1       4.086   4.688  18.005  0.00  0.00    +0.000 A 
ATOM     15  C   UNL     1       4.101   5.925  17.351  0.00  0.00    +0.000 A 
ATOM     16  C   UNL     1       5.266   6.703  17.279  0.00  0.00    +0.000 A 
BRANCH  11  17
ATOM     17  O   UNL     1       7.656   6.893  17.780  0.00  0.00    +0.000 OA
BRANCH  17  19
ATOM     18  C   UNL     1       8.540   9.032  18.380  0.00  0.00    +0.000 C 
ATOM     19  C   UNL     1       7.594   8.285  17.458  0.00  0.00    +0.000 C 
ENDBRANCH  17  19
ENDBRANCH  11  17
ENDBRANCH   1  14
TORSDOF 4
ENDMDL
MODEL 9
REMARK VINA RESULT:      -6.9      0.396      1.222
REMARK  Name = 
REMARK  5 active torsions:
REMARK  status: ('A' for Active; 'I' for Inactive)
REMARK    1  A    between atoms: C_1  and  C_2
REMARK    2  A    between atoms: C_2  and  O_3
REMARK    3  A    between atoms: O_3  and  C_4
REMARK    4  A    between atoms: C_7  and  N_8
REMARK    5  A    between atoms: N_8  and  C_9
REMARK                            x       y       z     vdW  Elec       q    Type
REMARK                         _______ _______ _______ _____ _____    ______ ____
ROOT
ATOM      1  N   UNL     1       5.871   6.233  16.153  0.00  0.00    +0.000 N 
ATOM      2  H   UNL     1       5.661   7.197  15.902  0.00  0.00    +0.000 HD
ENDROOT
BRANCH   1   3
ATOM      3  C   UNL     1       7.252   6.135  16.622  0.00  0.00    +0.000 C 
ATOM      4  S   UNL     1       7.310   4.688  17.734  0.00  0.00    +0.000 S 
ATOM      5  C   UNL     1       7.685   5.652  19.134  0.00  0.00    +0.000 C 
ATOM      6  O   UNL     1       7.689   5.221  20.275  0.00  0.00    +0.000 OA
ATOM      7  N   UNL     1       7.949   6.927  18.783  0.00  0.00    +0.000 N 
ATOM      8  C   UNL     1       7.688   7.311  17.504  0.00  0.00    +0.000 C 
ATOM      9  O   UNL     1       7.811   8.482  17.150  0.00  0.00    +0.000 OA
ATOM     10  H   UNL     1       8.175   7.614  19.484  0.00  0.00    +0.000 HD
ENDBRANCH   1   3
BRANCH   1  14
ATOM     11  C   UNL     1       2.925   4.328  18.523  0.00  0.00    +0.000 A 
ATOM     12  C   UNL     1       3.469   3.700  17.405  0.00  0.00    +0.000 A 
ATOM     13  C   UNL     1       4.430   4.354  16.624  0.00  0.00    +0.000 A 
ATOM     14  C   UNL     1       4.835   5.667  16.905  0.00  0.00    +0.000 A 
ATOM     15  C   UNL     1       4.266   6.285  18.025  0.00  0.00    +0.000 A 
ATOM     16  C   UNL     1       3.311   5.631  18.817  0.00  0.00    +0.000 A 
BRANCH  11  17
ATOM     17  O   UNL     1       2.044   3.580  19.253  0.00  0.00    +0.000 OA
BRANCH  17  19
ATOM     18  C   UNL     1       1.798   2.890  21.529  0.00  0.00    +0.000 C 
ATOM     19  C   UNL     1       1.763   4.065  20.569  0.00  0.00    +0.000 C 
ENDBRANCH  17  19
ENDBRANCH  11  17
ENDBRANCH   1  14
TORSDOF 4
ENDMDL
