MODEL 1
REMARK VINA RESULT:      -6.5      0.000      0.000
REMARK  Name = 
REMARK  6 active torsions:
REMARK  status: ('A' for Active; 'I' for Inactive)
REMARK    1  A    between atoms: C_1  and  O_2
REMARK    2  A    between atoms: O_2  and  C_3
REMARK    3  A    between atoms: C_6  and  C_7
REMARK    4  A    between atoms: C_12  and  C_13
REMARK    5  A    between atoms: C_19  and  C_20
REMARK    6  A    between atoms: C_22  and  N_23
REMARK                            x       y       z     vdW  Elec       q    Type
REMARK                         _______ _______ _______ _____ _____    ______ ____
ROOT
ATOM      1  C   UNL     1       9.231  12.164  20.663  0.00  0.00    +0.000 A 
ATOM      2  N   UNL     1       9.424  10.827  20.371  0.00  0.00    +0.000 N 
ATOM      3  N   UNL     1       9.942  10.589  19.149  0.00  0.00    +0.000 NA
ATOM      4  C   UNL     1      10.076  11.813  18.657  0.00  0.00    +0.000 A 
ATOM      5  C   UNL     1       9.636  12.828  19.514  0.00  0.00    +0.000 A 
ATOM      6  C   UNL     1       9.714  14.249  19.098  0.00  0.00    +0.000 C 
ATOM      7  C   UNL     1      10.549  14.382  17.853  0.00  0.00    +0.000 C 
ATOM      8  C   UNL     1      10.913  13.332  17.073  0.00  0.00    +0.000 C 
ATOM      9  O   UNL     1      10.626  12.008  17.442  0.00  0.00    +0.000 OA
ATOM     10  H   UNL     1       9.254  10.031  20.976  0.00  0.00    +0.000 HD
ENDROOT
BRANCH   1  14
ATOM     11  C   UNL     1       7.747  13.569  24.429  0.00  0.00    +0.000 A 
ATOM     12  C   UNL     1       7.361  12.333  23.927  0.00  0.00    +0.000 A 
ATOM     13  C   UNL     1       7.851  11.887  22.703  0.00  0.00    +0.000 A 
ATOM     14  C   UNL     1       8.750  12.655  21.955  0.00  0.00    +0.000 A 
ATOM     15  C   UNL     1       9.143  13.895  22.471  0.00  0.00    +0.000 A 
ATOM     16  C   UNL     1       8.638  14.354  23.698  0.00  0.00    +0.000 A 
BRANCH  11  18
ATOM     17  C   UNL     1       5.844  13.388  25.815  0.00  0.00    +0.000 C 
ATOM     18  O   UNL     1       7.147  13.909  25.606  0.00  0.00    +0.000 OA
ENDBRANCH  11  18
ENDBRANCH   1  14
BRANCH   6  19
ATOM     19  C   UNL     1       8.281  14.707  18.872  0.00  0.00    +0.000 A 
ATOM     20  C   UNL     1       7.770  15.792  19.592  0.00  0.00    +0.000 A 
ATOM     21  C   UNL     1       6.471  16.215  19.338  0.00  0.00    +0.000 A 
ATOM     22  N   UNL     1       5.655  15.641  18.424  0.00  0.00    +0.000 NA
ATOM     23  C   UNL     1       6.165  14.602  17.731  0.00  0.00    +0.000 A 
ATOM     24  C   UNL     1       7.446  14.108  17.915  0.00  0.00    +0.000 A 
ENDBRANCH   6  19
BRANCH   8  25
ATOM     25  N   UNL     1      11.561  13.430  15.864  0.00  0.00    +0.000 N 
ATOM     26  H   UNL     1      11.542  12.618  15.251  0.00  0.00    +0.000 HD
ATOM     27  H   UNL     1      11.410  14.318  15.392  0.00  0.00    +0.000 HD
ENDBRANCH   8  25
BRANCH   7  28
ATOM     28  C   UNL     1      10.964  15.790  17.456  0.00  0.00    +0.000 C 
ATOM     29  N   UNL     1      11.309  16.957  17.125  0.00  0.00    +0.000 NA
ENDBRANCH   7  28
TORSDOF 5
ENDMDL
MODEL 2
REMARK VINA RESULT:      -6.5      0.507      1.051
REMARK  Name = 
REMARK  6 active torsions:
REMARK  status: ('A' for Active; 'I' for Inactive)
REMARK    1  A    between atoms: C_1  and  O_2
REMARK    2  A    between atoms: O_2  and  C_3
REMARK    3  A    between atoms: C_6  and  C_7
REMARK    4  A    between atoms: C_12  and  C_13
REMARK    5  A    between atoms: C_19  and  C_20
REMARK    6  A    between atoms: C_22  and  N_23
REMARK                            x       y       z     vdW  Elec       q    Type
REMARK                         _______ _______ _______ _____ _____    ______ ____
ROOT
ATOM      1  C   UNL     1       9.309  12.119  20.646  0.00  0.00    +0.000 A 
ATOM      2  N   UNL     1       9.430  10.775  20.348  0.00  0.00    +0.000 N 
ATOM      3  N   UNL     1       9.958  10.513  19.136  0.00  0.00    +0.000 NA
ATOM      4  C   UNL     1      10.173  11.731  18.655  0.00  0.00    +0.000 A 
ATOM      5  C   UNL     1       9.776  12.764  19.510  0.00  0.00    +0.000 A 
ATOM      6  C   UNL     1       9.944  14.181  19.105  0.00  0.00    +0.000 C 
ATOM      7  C   UNL     1      10.811  14.272  17.879  0.00  0.00    +0.000 C 
ATOM      8  C   UNL     1      11.129  13.207  17.098  0.00  0.00    +0.000 C 
ATOM      9  O   UNL     1      10.758  11.900  17.453  0.00  0.00    +0.000 OA
ATOM     10  H   UNL     1       9.202   9.986  20.944  0.00  0.00    +0.000 HD
ENDROOT
BRANCH   1  14
ATOM     11  C   UNL     1       7.834  13.579  24.394  0.00  0.00    +0.000 A 
ATOM     12  C   UNL     1       7.476  12.321  23.929  0.00  0.00    +0.000 A 
ATOM     13  C   UNL     1       7.963  11.857  22.710  0.00  0.00    +0.000 A 
ATOM     14  C   UNL     1       8.831  12.629  21.931  0.00  0.00    +0.000 A 
ATOM     15  C   UNL     1       9.197  13.893  22.411  0.00  0.00    +0.000 A 
ATOM     16  C   UNL     1       8.694  14.369  23.633  0.00  0.00    +0.000 A 
BRANCH  11  18
ATOM     17  C   UNL     1       7.973  13.642  26.750  0.00  0.00    +0.000 C 
ATOM     18  O   UNL     1       7.240  13.933  25.570  0.00  0.00    +0.000 OA
ENDBRANCH  11  18
ENDBRANCH   1  14
BRANCH   6  19
ATOM     19  C   UNL     1       8.545  14.723  18.854  0.00  0.00    +0.000 A 
ATOM     20  C   UNL     1       7.698  14.080  17.945  0.00  0.00    +0.000 A 
ATOM     21  C   UNL     1       6.412  14.571  17.763  0.00  0.00    +0.000 A 
ATOM     22  N   UNL     1       5.914  15.645  18.418  0.00  0.00    +0.000 NA
ATOM     23  C   UNL     1       6.738  16.249  19.298  0.00  0.00    +0.000 A 
ATOM     24  C   UNL     1       8.037  15.834  19.545  0.00  0.00    +0.000 A 
ENDBRANCH   6  19
BRANCH   8  25
ATOM     25  N   UNL     1      11.806  13.274  15.904  0.00  0.00    +0.000 N 
ATOM     26  H   UNL     1      11.573  12.589  15.189  0.00  0.00    +0.000 HD
ATOM     27  H   UNL     1      11.926  14.222  15.556  0.00  0.00    +0.000 HD
ENDBRANCH   8  25
BRANCH   7  28
ATOM     28  C   UNL     1      11.315  15.655  17.500  0.00  0.00    +0.000 C 
ATOM     29  N   UNL     1      11.735  16.802  17.184  0.00  0.00    +0.000 NA
ENDBRANCH   7  28
TORSDOF 5
ENDMDL
MODEL 3
REMARK VINA RESULT:      -6.4      9.913     13.299
REMARK  Name = 
REMARK  6 active torsions:
REMARK  status: ('A' for Active; 'I' for Inactive)
REMARK    1  A    between atoms: C_1  and  O_2
REMARK    2  A    between atoms: O_2  and  C_3
REMARK    3  A    between atoms: C_6  and  C_7
REMARK    4  A    between atoms: C_12  and  C_13
REMARK    5  A    between atoms: C_19  and  C_20
REMARK    6  A    between atoms: C_22  and  N_23
REMARK                            x       y       z     vdW  Elec       q    Type
REMARK                         _______ _______ _______ _____ _____    ______ ____
ROOT
ATOM      1  C   UNL     1      -4.233  12.309  20.688  0.00  0.00    +0.000 A 
ATOM      2  N   UNL     1      -5.522  12.069  21.125  0.00  0.00    +0.000 N 
ATOM      3  N   UNL     1      -5.773  12.478  22.384  0.00  0.00    +0.000 NA
ATOM      4  C   UNL     1      -4.606  12.989  22.752  0.00  0.00    +0.000 A 
ATOM      5  C   UNL     1      -3.607  12.897  21.777  0.00  0.00    +0.000 A 
ATOM      6  C   UNL     1      -2.243  13.416  22.046  0.00  0.00    +0.000 C 
ATOM      7  C   UNL     1      -2.241  14.243  23.302  0.00  0.00    +0.000 C 
ATOM      8  C   UNL     1      -3.259  14.253  24.202  0.00  0.00    +0.000 C 
ATOM      9  O   UNL     1      -4.459  13.565  23.960  0.00  0.00    +0.000 OA
ATOM     10  H   UNL     1      -6.287  11.660  20.599  0.00  0.00    +0.000 HD
ENDROOT
BRANCH   1  14
ATOM     11  C   UNL     1      -2.917  11.388  16.716  0.00  0.00    +0.000 A 
ATOM     12  C   UNL     1      -4.269  11.412  17.030  0.00  0.00    +0.000 A 
ATOM     13  C   UNL     1      -4.684  11.714  18.324  0.00  0.00    +0.000 A 
ATOM     14  C   UNL     1      -3.763  12.014  19.333  0.00  0.00    +0.000 A 
ATOM     15  C   UNL     1      -2.402  11.999  19.007  0.00  0.00    +0.000 A 
ATOM     16  C   UNL     1      -1.980  11.679  17.706  0.00  0.00    +0.000 A 
BRANCH  11  18
ATOM     17  C   UNL     1      -3.600  10.172  14.811  0.00  0.00    +0.000 C 
ATOM     18  O   UNL     1      -2.646  11.020  15.430  0.00  0.00    +0.000 OA
ENDBRANCH  11  18
ENDBRANCH   1  14
BRANCH   6  19
ATOM     19  C   UNL     1      -1.338  12.199  22.165  0.00  0.00    +0.000 A 
ATOM     20  C   UNL     1      -0.198  12.093  21.362  0.00  0.00    +0.000 A 
ATOM     21  C   UNL     1       0.633  10.991  21.519  0.00  0.00    +0.000 A 
ATOM     22  N   UNL     1       0.413  10.000  22.412  0.00  0.00    +0.000 NA
ATOM     23  C   UNL     1      -0.685  10.121  23.187  0.00  0.00    +0.000 A 
ATOM     24  C   UNL     1      -1.574  11.180  23.102  0.00  0.00    +0.000 A 
ENDBRANCH   6  19
BRANCH   8  25
ATOM     25  N   UNL     1      -3.235  14.892  25.419  0.00  0.00    +0.000 N 
ATOM     26  H   UNL     1      -2.697  14.463  26.168  0.00  0.00    +0.000 HD
ATOM     27  H   UNL     1      -3.126  15.901  25.347  0.00  0.00    +0.000 HD
ENDBRANCH   8  25
BRANCH   7  28
ATOM     28  C   UNL     1      -0.999  15.079  23.568  0.00  0.00    +0.000 C 
ATOM     29  N   UNL     1       0.031  15.773  23.790  0.00  0.00    +0.000 NA
ENDBRANCH   7  28
TORSDOF 5
ENDMDL
MODEL 4
REMARK VINA RESULT:      -6.4      0.448      1.039
REMARK  Name = 
REMARK  6 active torsions:
REMARK  status: ('A' for Active; 'I' for Inactive)
REMARK    1  A    between atoms: C_1  and  O_2
REMARK    2  A    between atoms: O_2  and  C_3
REMARK    3  A    between atoms: C_6  and  C_7
REMARK    4  A    between atoms: C_12  and  C_13
REMARK    5  A    between atoms: C_19  and  C_20
REMARK    6  A    between atoms: C_22  and  N_23
REMARK                            x       y       z     vdW  Elec       q    Type
REMARK                         _______ _______ _______ _____ _____    ______ ____
ROOT
ATOM      1  C   UNL     1       9.314  12.077  20.631  0.00  0.00    +0.000 A 
ATOM      2  N   UNL     1       9.424  10.737  20.310  0.00  0.00    +0.000 N 
ATOM      3  N   UNL     1       9.942  10.494  19.089  0.00  0.00    +0.000 NA
ATOM      4  C   UNL     1      10.161  11.719  18.628  0.00  0.00    +0.000 A 
ATOM      5  C   UNL     1       9.776  12.739  19.504  0.00  0.00    +0.000 A 
ATOM      6  C   UNL     1       9.951  14.162  19.123  0.00  0.00    +0.000 C 
ATOM      7  C   UNL     1      10.809  14.270  17.893  0.00  0.00    +0.000 C 
ATOM      8  C   UNL     1      11.116  13.217  17.091  0.00  0.00    +0.000 C 
ATOM      9  O   UNL     1      10.739  11.906  17.425  0.00  0.00    +0.000 OA
ATOM     10  H   UNL     1       9.195   9.940  20.893  0.00  0.00    +0.000 HD
ENDROOT
BRANCH   1  14
ATOM     11  C   UNL     1       8.018  13.553  24.440  0.00  0.00    +0.000 A 
ATOM     12  C   UNL     1       8.752  14.356  23.576  0.00  0.00    +0.000 A 
ATOM     13  C   UNL     1       9.166  13.866  22.342  0.00  0.00    +0.000 A 
ATOM     14  C   UNL     1       8.847  12.567  21.929  0.00  0.00    +0.000 A 
ATOM     15  C   UNL     1       8.097  11.767  22.799  0.00  0.00    +0.000 A 
ATOM     16  C   UNL     1       7.691  12.254  24.052  0.00  0.00    +0.000 A 
BRANCH  11  18
ATOM     17  C   UNL     1       7.339  13.255  26.681  0.00  0.00    +0.000 C 
ATOM     18  O   UNL     1       7.729  14.135  25.639  0.00  0.00    +0.000 OA
ENDBRANCH  11  18
ENDBRANCH   1  14
BRANCH   6  19
ATOM     19  C   UNL     1       8.553  14.717  18.891  0.00  0.00    +0.000 A 
ATOM     20  C   UNL     1       8.150  15.891  19.534  0.00  0.00    +0.000 A 
ATOM     21  C   UNL     1       6.883  16.398  19.274  0.00  0.00    +0.000 A 
ATOM     22  N   UNL     1       6.000  15.825  18.425  0.00  0.00    +0.000 NA
ATOM     23  C   UNL     1       6.406  14.698  17.804  0.00  0.00    +0.000 A 
ATOM     24  C   UNL     1       7.648  14.116  18.001  0.00  0.00    +0.000 A 
ENDBRANCH   6  19
BRANCH   8  25
ATOM     25  N   UNL     1      11.785  13.300  15.893  0.00  0.00    +0.000 N 
ATOM     26  H   UNL     1      11.543  14.066  15.269  0.00  0.00    +0.000 HD
ATOM     27  H   UNL     1      12.782  13.119  15.971  0.00  0.00    +0.000 HD
ENDBRANCH   8  25
BRANCH   7  28
ATOM     28  C   UNL     1      11.319  15.656  17.535  0.00  0.00    +0.000 C 
ATOM     29  N   UNL     1      11.743  16.806  17.236  0.00  0.00    +0.000 NA
ENDBRANCH   7  28
TORSDOF 5
ENDMDL
MODEL 5
REMARK VINA RESULT:      -6.4      0.554      1.436
REMARK  Name = 
REMARK  6 active torsions:
REMARK  status: ('A' for Active; 'I' for Inactive)
REMARK    1  A    between atoms: C_1  and  O_2
REMARK    2  A    between atoms: O_2  and  C_3
REMARK    3  A    between atoms: C_6  and  C_7
REMARK    4  A    between atoms: C_12  and  C_13
REMARK    5  A    between atoms: C_19  and  C_20
REMARK    6  A    between atoms: C_22  and  N_23
REMARK                            x       y       z     vdW  Elec       q    Type
REMARK                         _______ _______ _______ _____ _____    ______ ____
ROOT
ATOM      1  C   UNL     1       9.280  12.124  20.622  0.00  0.00    +0.000 A 
ATOM      2  N   UNL     1       9.399  10.781  20.319  0.00  0.00    +0.000 N 
ATOM      3  N   UNL     1       9.934  10.524  19.109  0.00  0.00    +0.000 NA
ATOM      4  C   UNL     1      10.154  11.742  18.634  0.00  0.00    +0.000 A 
ATOM      5  C   UNL     1       9.754  12.773  19.491  0.00  0.00    +0.000 A 
ATOM      6  C   UNL     1       9.928  14.192  19.093  0.00  0.00    +0.000 C 
ATOM      7  C   UNL     1      10.802  14.286  17.872  0.00  0.00    +0.000 C 
ATOM      8  C   UNL     1      11.122  13.223  17.089  0.00  0.00    +0.000 C 
ATOM      9  O   UNL     1      10.746  11.916  17.436  0.00  0.00    +0.000 OA
ATOM     10  H   UNL     1       9.167   9.991  20.911  0.00  0.00    +0.000 HD
ENDROOT
BRANCH   1  14
ATOM     11  C   UNL     1       7.934  13.640  24.396  0.00  0.00    +0.000 A 
ATOM     12  C   UNL     1       8.772  14.393  23.584  0.00  0.00    +0.000 A 
ATOM     13  C   UNL     1       9.201  13.890  22.360  0.00  0.00    +0.000 A 
ATOM     14  C   UNL     1       8.795  12.631  21.906  0.00  0.00    +0.000 A 
ATOM     15  C   UNL     1       7.942  11.881  22.725  0.00  0.00    +0.000 A 
ATOM     16  C   UNL     1       7.520  12.380  23.968  0.00  0.00    +0.000 A 
BRANCH  11  18
ATOM     17  C   UNL     1       7.289  15.599  25.546  0.00  0.00    +0.000 C 
ATOM     18  O   UNL     1       7.638  14.224  25.593  0.00  0.00    +0.000 OA
ENDBRANCH  11  18
ENDBRANCH   1  14
BRANCH   6  19
ATOM     19  C   UNL     1       8.531  14.737  18.836  0.00  0.00    +0.000 A 
ATOM     20  C   UNL     1       7.679  14.085  17.940  0.00  0.00    +0.000 A 
ATOM     21  C   UNL     1       6.395  14.581  17.752  0.00  0.00    +0.000 A 
ATOM     22  N   UNL     1       5.904  15.667  18.391  0.00  0.00    +0.000 NA
ATOM     23  C   UNL     1       6.734  16.280  19.260  0.00  0.00    +0.000 A 
ATOM     24  C   UNL     1       8.031  15.861  19.512  0.00  0.00    +0.000 A 
ENDBRANCH   6  19
BRANCH   8  25
ATOM     25  N   UNL     1      11.806  13.293  15.898  0.00  0.00    +0.000 N 
ATOM     26  H   UNL     1      11.707  14.141  15.346  0.00  0.00    +0.000 HD
ATOM     27  H   UNL     1      12.755  12.933  15.953  0.00  0.00    +0.000 HD
ENDBRANCH   8  25
BRANCH   7  28
ATOM     28  C   UNL     1      11.311  15.669  17.501  0.00  0.00    +0.000 C 
ATOM     29  N   UNL     1      11.732  16.817  17.193  0.00  0.00    +0.000 NA
ENDBRANCH   7  28
TORSDOF 5
ENDMDL
MODEL 6
REMARK VINA RESULT:      -6.3     10.857     14.165
REMARK  Name = 
REMARK  6 active torsions:
REMARK  status: ('A' for Active; 'I' for Inactive)
REMARK    1  A    between atoms: C_1  and  O_2
REMARK    2  A    between atoms: O_2  and  C_3
REMARK    3  A    between atoms: C_6  and  C_7
REMARK    4  A    between atoms: C_12  and  C_13
REMARK    5  A    between atoms: C_19  and  C_20
REMARK    6  A    between atoms: C_22  and  N_23
REMARK                            x       y       z     vdW  Elec       q    Type
REMARK                         _______ _______ _______ _____ _____    ______ ____
ROOT
ATOM      1  C   UNL     1      -5.114  12.098  20.117  0.00  0.00    +0.000 A 
ATOM      2  N   UNL     1      -6.290  11.477  20.495  0.00  0.00    +0.000 N 
ATOM      3  N   UNL     1      -6.825  11.940  21.642  0.00  0.00    +0.000 NA
ATOM      4  C   UNL     1      -5.959  12.879  21.998  0.00  0.00    +0.000 A 
ATOM      5  C   UNL     1      -4.871  13.015  21.129  0.00  0.00    +0.000 A 
ATOM      6  C   UNL     1      -3.812  14.018  21.400  0.00  0.00    +0.000 C 
ATOM      7  C   UNL     1      -4.253  14.958  22.489  0.00  0.00    +0.000 C 
ATOM      8  C   UNL     1      -5.321  14.729  23.297  0.00  0.00    +0.000 C 
ATOM      9  O   UNL     1      -6.173  13.632  23.094  0.00  0.00    +0.000 OA
ATOM     10  H   UNL     1      -6.796  10.754  19.995  0.00  0.00    +0.000 HD
ENDROOT
BRANCH   1  14
ATOM     11  C   UNL     1      -3.092  11.195  16.449  0.00  0.00    +0.000 A 
ATOM     12  C   UNL     1      -4.460  11.432  16.469  0.00  0.00    +0.000 A 
ATOM     13  C   UNL     1      -5.105  11.726  17.666  0.00  0.00    +0.000 A 
ATOM     14  C   UNL     1      -4.402  11.805  18.873  0.00  0.00    +0.000 A 
ATOM     15  C   UNL     1      -3.021  11.576  18.845  0.00  0.00    +0.000 A 
ATOM     16  C   UNL     1      -2.370  11.264  17.640  0.00  0.00    +0.000 A 
BRANCH  11  18
ATOM     17  C   UNL     1      -3.469  10.124  14.379  0.00  0.00    +0.000 C 
ATOM     18  O   UNL     1      -2.597  10.860  15.223  0.00  0.00    +0.000 OA
ENDBRANCH  11  18
ENDBRANCH   1  14
BRANCH   6  19
ATOM     19  C   UNL     1      -2.571  13.233  21.796  0.00  0.00    +0.000 A 
ATOM     20  C   UNL     1      -1.325  13.574  21.258  0.00  0.00    +0.000 A 
ATOM     21  C   UNL     1      -0.201  12.867  21.666  0.00  0.00    +0.000 A 
ATOM     22  N   UNL     1      -0.230  11.857  22.565  0.00  0.00    +0.000 NA
ATOM     23  C   UNL     1      -1.436  11.546  23.082  0.00  0.00    +0.000 A 
ATOM     24  C   UNL     1      -2.612  12.191  22.736  0.00  0.00    +0.000 A 
ENDBRANCH   6  19
BRANCH   8  25
ATOM     25  N   UNL     1      -5.673  15.496  24.383  0.00  0.00    +0.000 N 
ATOM     26  H   UNL     1      -5.220  15.295  25.270  0.00  0.00    +0.000 HD
ATOM     27  H   UNL     1      -5.761  16.486  24.169  0.00  0.00    +0.000 HD
ENDBRANCH   8  25
BRANCH   7  28
ATOM     28  C   UNL     1      -3.415  16.209  22.693  0.00  0.00    +0.000 C 
ATOM     29  N   UNL     1      -2.718  17.247  22.863  0.00  0.00    +0.000 NA
ENDBRANCH   7  28
TORSDOF 5
ENDMDL
MODEL 7
REMARK VINA RESULT:      -6.2     10.553     13.875
REMARK  Name = 
REMARK  6 active torsions:
REMARK  status: ('A' for Active; 'I' for Inactive)
REMARK    1  A    between atoms: C_1  and  O_2
REMARK    2  A    between atoms: O_2  and  C_3
REMARK    3  A    between atoms: C_6  and  C_7
REMARK    4  A    between atoms: C_12  and  C_13
REMARK    5  A    between atoms: C_19  and  C_20
REMARK    6  A    between atoms: C_22  and  N_23
REMARK                            x       y       z     vdW  Elec       q    Type
REMARK                         _______ _______ _______ _____ _____    ______ ____
ROOT
ATOM      1  C   UNL     1      -4.969  12.260  20.412  0.00  0.00    +0.000 A 
ATOM      2  N   UNL     1      -6.170  11.797  20.917  0.00  0.00    +0.000 N 
ATOM      3  N   UNL     1      -6.501  12.297  22.124  0.00  0.00    +0.000 NA
ATOM      4  C   UNL     1      -5.476  13.096  22.388  0.00  0.00    +0.000 A 
ATOM      5  C   UNL     1      -4.485  13.104  21.401  0.00  0.00    +0.000 A 
ATOM      6  C   UNL     1      -3.271  13.942  21.560  0.00  0.00    +0.000 C 
ATOM      7  C   UNL     1      -3.449  14.902  22.705  0.00  0.00    +0.000 C 
ATOM      8  C   UNL     1      -4.440  14.800  23.629  0.00  0.00    +0.000 C 
ATOM      9  O   UNL     1      -5.457  13.839  23.512  0.00  0.00    +0.000 OA
ATOM     10  H   UNL     1      -6.826  11.166  20.470  0.00  0.00    +0.000 HD
ENDROOT
BRANCH   1  14
ATOM     11  C   UNL     1      -3.382  11.269  16.557  0.00  0.00    +0.000 A 
ATOM     12  C   UNL     1      -2.558  11.324  17.674  0.00  0.00    +0.000 A 
ATOM     13  C   UNL     1      -3.086  11.646  18.921  0.00  0.00    +0.000 A 
ATOM     14  C   UNL     1      -4.450  11.907  19.090  0.00  0.00    +0.000 A 
ATOM     15  C   UNL     1      -5.277  11.839  17.962  0.00  0.00    +0.000 A 
ATOM     16  C   UNL     1      -4.744  11.530  16.700  0.00  0.00    +0.000 A 
BRANCH  11  18
ATOM     17  C   UNL     1      -3.405  10.151  14.478  0.00  0.00    +0.000 C 
ATOM     18  O   UNL     1      -2.728  11.002  15.390  0.00  0.00    +0.000 OA
ENDBRANCH  11  18
ENDBRANCH   1  14
BRANCH   6  19
ATOM     19  C   UNL     1      -2.117  12.981  21.799  0.00  0.00    +0.000 A 
ATOM     20  C   UNL     1      -0.913  13.146  21.106  0.00  0.00    +0.000 A 
ATOM     21  C   UNL     1       0.139  12.278  21.371  0.00  0.00    +0.000 A 
ATOM     22  N   UNL     1       0.078  11.271  22.272  0.00  0.00    +0.000 NA
ATOM     23  C   UNL     1      -1.085  11.130  22.940  0.00  0.00    +0.000 A 
ATOM     24  C   UNL     1      -2.189  11.943  22.742  0.00  0.00    +0.000 A 
ENDBRANCH   6  19
BRANCH   8  25
ATOM     25  N   UNL     1      -4.555  15.577  24.757  0.00  0.00    +0.000 N 
ATOM     26  H   UNL     1      -4.348  16.569  24.671  0.00  0.00    +0.000 HD
ATOM     27  H   UNL     1      -5.378  15.365  25.315  0.00  0.00    +0.000 HD
ENDBRANCH   8  25
BRANCH   7  28
ATOM     28  C   UNL     1      -2.424  16.018  22.826  0.00  0.00    +0.000 C 
ATOM     29  N   UNL     1      -1.574  16.944  22.928  0.00  0.00    +0.000 NA
ENDBRANCH   7  28
TORSDOF 5
ENDMDL
MODEL 8
REMARK VINA RESULT:      -6.2     10.574     13.896
REMARK  Name = 
REMARK  6 active torsions:
REMARK  status: ('A' for Active; 'I' for Inactive)
REMARK    1  A    between atoms: C_1  and  O_2
REMARK    2  A    between atoms: O_2  and  C_3
REMARK    3  A    between atoms: C_6  and  C_7
REMARK    4  A    between atoms: C_12  and  C_13
REMARK    5  A    between atoms: C_19  and  C_20
REMARK    6  A    between atoms: C_22  and  N_23
REMARK                            x       y       z     vdW  Elec       q    Type
REMARK                         _______ _______ _______ _____ _____    ______ ____
ROOT
ATOM      1  C   UNL     1      -4.871  12.214  20.281  0.00  0.00    +0.000 A 
ATOM      2  N   UNL     1      -6.095  11.714  20.683  0.00  0.00    +0.000 N 
ATOM      3  N   UNL     1      -6.547  12.208  21.853  0.00  0.00    +0.000 NA
ATOM      4  C   UNL     1      -5.575  13.042  22.199  0.00  0.00    +0.000 A 
ATOM      5  C   UNL     1      -4.503  13.079  21.302  0.00  0.00    +0.000 A 
ATOM      6  C   UNL     1      -3.337  13.958  21.559  0.00  0.00    +0.000 C 
ATOM      7  C   UNL     1      -3.645  14.916  22.677  0.00  0.00    +0.000 C 
ATOM      8  C   UNL     1      -4.708  14.785  23.513  0.00  0.00    +0.000 C 
ATOM      9  O   UNL     1      -5.678  13.790  23.315  0.00  0.00    +0.000 OA
ATOM     10  H   UNL     1      -6.689  11.059  20.185  0.00  0.00    +0.000 HD
ENDROOT
BRANCH   1  14
ATOM     11  C   UNL     1      -3.052  11.167  16.546  0.00  0.00    +0.000 A 
ATOM     12  C   UNL     1      -4.424  11.362  16.640  0.00  0.00    +0.000 A 
ATOM     13  C   UNL     1      -5.003  11.703  17.859  0.00  0.00    +0.000 A 
ATOM     14  C   UNL     1      -4.228  11.873  19.011  0.00  0.00    +0.000 A 
ATOM     15  C   UNL     1      -2.844  11.685  18.907  0.00  0.00    +0.000 A 
ATOM     16  C   UNL     1      -2.260  11.326  17.682  0.00  0.00    +0.000 A 
BRANCH  11  18
ATOM     17  C   UNL     1      -3.591  10.147  14.485  0.00  0.00    +0.000 C 
ATOM     18  O   UNL     1      -2.624  10.778  15.310  0.00  0.00    +0.000 OA
ENDBRANCH  11  18
ENDBRANCH   1  14
BRANCH   6  19
ATOM     19  C   UNL     1      -2.176  13.037  21.904  0.00  0.00    +0.000 A 
ATOM     20  C   UNL     1      -2.346  12.019  22.848  0.00  0.00    +0.000 A 
ATOM     21  C   UNL     1      -1.282  11.167  23.116  0.00  0.00    +0.000 A 
ATOM     22  N   UNL     1      -0.074  11.255  22.513  0.00  0.00    +0.000 NA
ATOM     23  C   UNL     1       0.072  12.235  21.598  0.00  0.00    +0.000 A 
ATOM     24  C   UNL     1      -0.929  13.133  21.265  0.00  0.00    +0.000 A 
ENDBRANCH   6  19
BRANCH   8  25
ATOM     25  N   UNL     1      -4.946  15.563  24.621  0.00  0.00    +0.000 N 
ATOM     26  H   UNL     1      -4.920  16.573  24.505  0.00  0.00    +0.000 HD
ATOM     27  H   UNL     1      -5.712  15.225  25.198  0.00  0.00    +0.000 HD
ENDBRANCH   8  25
BRANCH   7  28
ATOM     28  C   UNL     1      -2.672  16.067  22.879  0.00  0.00    +0.000 C 
ATOM     29  N   UNL     1      -1.865  17.022  23.044  0.00  0.00    +0.000 NA
ENDBRANCH   7  28
TORSDOF 5
ENDMDL
MODEL 9
REMARK VINA RESULT:      -6.2      9.921     13.213
REMARK  Name = 
REMARK  6 active torsions:
REMARK  status: ('A' for Active; 'I' for Inactive)
REMARK    1  A    between atoms: C_1  and  O_2
REMARK    2  A    between atoms: O_2  and  C_3
REMARK    3  A    between atoms: C_6  and  C_7
REMARK    4  A    between atoms: C_12  and  C_13
REMARK    5  A    between atoms: C_19  and  C_20
REMARK    6  A    between atoms: C_22  and  N_23
REMARK                            x       y       z     vdW  Elec       q    Type
REMARK                         _______ _______ _______ _____ _____    ______ ____
ROOT
ATOM      1  C   UNL     1      -4.319  12.540  21.299  0.00  0.00    +0.000 A 
ATOM      2  N   UNL     1      -5.490  12.308  21.995  0.00  0.00    +0.000 N 
ATOM      3  N   UNL     1      -5.479  12.742  23.272  0.00  0.00    +0.000 NA
ATOM      4  C   UNL     1      -4.263  13.259  23.382  0.00  0.00    +0.000 A 
ATOM      5  C   UNL     1      -3.484  13.148  22.225  0.00  0.00    +0.000 A 
ATOM      6  C   UNL     1      -2.097  13.672  22.199  0.00  0.00    +0.000 C 
ATOM      7  C   UNL     1      -1.840  14.523  23.412  0.00  0.00    +0.000 C 
ATOM      8  C   UNL     1      -2.652  14.551  24.501  0.00  0.00    +0.000 C 
ATOM      9  O   UNL     1      -3.873  13.859  24.524  0.00  0.00    +0.000 OA
ATOM     10  H   UNL     1      -6.345  11.889  21.646  0.00  0.00    +0.000 HD
ENDROOT
BRANCH   1  14
ATOM     11  C   UNL     1      -3.854  11.557  17.154  0.00  0.00    +0.000 A 
ATOM     12  C   UNL     1      -5.100  11.884  17.674  0.00  0.00    +0.000 A 
ATOM     13  C   UNL     1      -5.238  12.203  19.021  0.00  0.00    +0.000 A 
ATOM     14  C   UNL     1      -4.136  12.218  19.883  0.00  0.00    +0.000 A 
ATOM     15  C   UNL     1      -2.881  11.898  19.351  0.00  0.00    +0.000 A 
ATOM     16  C   UNL     1      -2.741  11.561  17.995  0.00  0.00    +0.000 A 
BRANCH  11  18
ATOM     17  C   UNL     1      -2.775  10.424  15.386  0.00  0.00    +0.000 C 
ATOM     18  O   UNL     1      -3.869  11.208  15.836  0.00  0.00    +0.000 OA
ENDBRANCH  11  18
ENDBRANCH   1  14
BRANCH   6  19
ATOM     19  C   UNL     1      -1.182  12.457  22.153  0.00  0.00    +0.000 A 
ATOM     20  C   UNL     1      -1.414  11.373  23.006  0.00  0.00    +0.000 A 
ATOM     21  C   UNL     1      -0.588  10.260  22.917  0.00  0.00    +0.000 A 
ATOM     22  N   UNL     1       0.439  10.150  22.045  0.00  0.00    +0.000 NA
ATOM     23  C   UNL     1       0.645  11.199  21.222  0.00  0.00    +0.000 A 
ATOM     24  C   UNL     1      -0.123  12.352  21.238  0.00  0.00    +0.000 A 
ENDBRANCH   6  19
BRANCH   8  25
ATOM     25  N   UNL     1      -2.381  15.213  25.675  0.00  0.00    +0.000 N 
ATOM     26  H   UNL     1      -1.556  15.807  25.704  0.00  0.00    +0.000 HD
ATOM     27  H   UNL     1      -3.205  15.615  26.114  0.00  0.00    +0.000 HD
ENDBRANCH   8  25
BRANCH   7  28
ATOM     28  C   UNL     1      -0.573  15.364  23.401  0.00  0.00    +0.000 C 
ATOM     29  N   UNL     1       0.479  16.059  23.391  0.00  0.00    +0.000 NA
ENDBRANCH   7  28
TORSDOF 5
ENDMDL
