MODEL 1
REMARK VINA RESULT:      -7.5      0.000      0.000
REMARK  Name = 
REMARK  4 active torsions:
REMARK  status: ('A' for Active; 'I' for Inactive)
REMARK    1  A    between atoms: C_2  and  N_3
REMARK    2  A    between atoms: C_2  and  C_14
REMARK    3  A    between atoms: N_4  and  C_5
REMARK    4  A    between atoms: C_8  and  N_9
REMARK                            x       y       z     vdW  Elec       q    Type
REMARK                         _______ _______ _______ _____ _____    ______ ____
ROOT
ATOM      1  N   UNL     1       5.995   4.693  16.647  0.00  0.00    +0.000 NA
ATOM      2  N   UNL     1       4.908   5.284  16.819  0.00  0.00    +0.000 NA
ENDROOT
BRANCH   2   3
ATOM      3  C   UNL     1       4.169   4.760  17.898  0.00  0.00    +0.000 A 
ATOM      4  C   UNL     1       4.808   3.831  18.734  0.00  0.00    +0.000 A 
ATOM      5  C   UNL     1       4.132   3.225  19.798  0.00  0.00    +0.000 A 
ATOM      6  C   UNL     1       2.796   3.563  20.045  0.00  0.00    +0.000 A 
ATOM      7  C   UNL     1       2.143   4.501  19.236  0.00  0.00    +0.000 A 
ATOM      8  C   UNL     1       2.833   5.096  18.174  0.00  0.00    +0.000 A 
BRANCH   6   9
ATOM      9  N   UNL     1       2.072   2.921  21.150  0.00  0.00    +0.000 N 
ATOM     10  O   UNL     1       0.834   2.914  21.103  0.00  0.00    +0.000 OA
ATOM     11  O   UNL     1       2.745   2.427  22.067  0.00  0.00    +0.000 OA
ENDBRANCH   6   9
ENDBRANCH   2   3
BRANCH   1  13
ATOM     12  O   UNL     1       7.574   6.282  15.995  0.00  0.00    +0.000 OA
ATOM     13  C   UNL     1       6.818   5.342  15.749  0.00  0.00    +0.000 C 
BRANCH  13  14
ATOM     14  C   UNL     1       6.788   4.798  14.358  0.00  0.00    +0.000 A 
ATOM     15  C   UNL     1       7.692   5.272  13.394  0.00  0.00    +0.000 A 
ATOM     16  C   UNL     1       7.657   4.767  12.093  0.00  0.00    +0.000 A 
ATOM     17  C   UNL     1       6.720   3.792  11.749  0.00  0.00    +0.000 A 
ATOM     18  C   UNL     1       5.825   3.311  12.703  0.00  0.00    +0.000 A 
ATOM     19  C   UNL     1       5.860   3.806  14.004  0.00  0.00    +0.000 A 
ENDBRANCH  13  14
ENDBRANCH   1  13
TORSDOF 4
ENDMDL
MODEL 2
REMARK VINA RESULT:      -7.4      0.163      1.328
REMARK  Name = 
REMARK  4 active torsions:
REMARK  status: ('A' for Active; 'I' for Inactive)
REMARK    1  A    between atoms: C_2  and  N_3
REMARK    2  A    between atoms: C_2  and  C_14
REMARK    3  A    between atoms: N_4  and  C_5
REMARK    4  A    between atoms: C_8  and  N_9
REMARK                            x       y       z     vdW  Elec       q    Type
REMARK                         _______ _______ _______ _____ _____    ______ ____
ROOT
ATOM      1  N   UNL     1       5.990   4.519  16.524  0.00  0.00    +0.000 NA
ATOM      2  N   UNL     1       4.996   5.177  16.897  0.00  0.00    +0.000 NA
ENDROOT
BRANCH   2   3
ATOM      3  C   UNL     1       4.295   4.553  17.948  0.00  0.00    +0.000 A 
ATOM      4  C   UNL     1       2.962   4.939  18.160  0.00  0.00    +0.000 A 
ATOM      5  C   UNL     1       2.210   4.404  19.212  0.00  0.00    +0.000 A 
ATOM      6  C   UNL     1       2.792   3.455  20.060  0.00  0.00    +0.000 A 
ATOM      7  C   UNL     1       4.114   3.041  19.857  0.00  0.00    +0.000 A 
ATOM      8  C   UNL     1       4.853   3.587  18.802  0.00  0.00    +0.000 A 
BRANCH   6   9
ATOM      9  N   UNL     1       2.015   2.900  21.177  0.00  0.00    +0.000 N 
ATOM     10  O   UNL     1       2.639   2.484  22.163  0.00  0.00    +0.000 OA
ATOM     11  O   UNL     1       0.781   2.880  21.064  0.00  0.00    +0.000 OA
ENDBRANCH   6   9
ENDBRANCH   2   3
BRANCH   1  13
ATOM     12  O   UNL     1       7.532   6.173  15.954  0.00  0.00    +0.000 OA
ATOM     13  C   UNL     1       6.804   5.225  15.661  0.00  0.00    +0.000 C 
BRANCH  13  14
ATOM     14  C   UNL     1       6.800   4.739  14.249  0.00  0.00    +0.000 A 
ATOM     15  C   UNL     1       7.733   5.240  13.327  0.00  0.00    +0.000 A 
ATOM     16  C   UNL     1       7.723   4.789  12.005  0.00  0.00    +0.000 A 
ATOM     17  C   UNL     1       6.783   3.841  11.600  0.00  0.00    +0.000 A 
ATOM     18  C   UNL     1       5.861   3.333  12.512  0.00  0.00    +0.000 A 
ATOM     19  C   UNL     1       5.870   3.774  13.833  0.00  0.00    +0.000 A 
ENDBRANCH  13  14
ENDBRANCH   1  13
TORSDOF 4
ENDMDL
MODEL 3
REMARK VINA RESULT:      -7.4      0.630      1.276
REMARK  Name = 
REMARK  4 active torsions:
REMARK  status: ('A' for Active; 'I' for Inactive)
REMARK    1  A    between atoms: C_2  and  N_3
REMARK    2  A    between atoms: C_2  and  C_14
REMARK    3  A    between atoms: N_4  and  C_5
REMARK    4  A    between atoms: C_8  and  N_9
REMARK                            x       y       z     vdW  Elec       q    Type
REMARK                         _______ _______ _______ _____ _____    ______ ____
ROOT
ATOM      1  N   UNL     1       5.624   5.068  16.588  0.00  0.00    +0.000 NA
ATOM      2  N   UNL     1       5.564   5.708  17.659  0.00  0.00    +0.000 NA
ENDROOT
BRANCH   2   3
ATOM      3  C   UNL     1       4.652   5.147  18.576  0.00  0.00    +0.000 A 
ATOM      4  C   UNL     1       4.790   3.784  18.880  0.00  0.00    +0.000 A 
ATOM      5  C   UNL     1       3.898   3.137  19.741  0.00  0.00    +0.000 A 
ATOM      6  C   UNL     1       2.855   3.867  20.325  0.00  0.00    +0.000 A 
ATOM      7  C   UNL     1       2.708   5.232  20.051  0.00  0.00    +0.000 A 
ATOM      8  C   UNL     1       3.609   5.863  19.185  0.00  0.00    +0.000 A 
BRANCH   6   9
ATOM      9  N   UNL     1       1.904   3.194  21.219  0.00  0.00    +0.000 N 
ATOM     10  O   UNL     1       0.811   2.851  20.746  0.00  0.00    +0.000 OA
ATOM     11  O   UNL     1       2.251   3.011  22.394  0.00  0.00    +0.000 OA
ENDBRANCH   6   9
ENDBRANCH   2   3
BRANCH   1  13
ATOM     12  O   UNL     1       7.586   6.233  16.101  0.00  0.00    +0.000 OA
ATOM     13  C   UNL     1       6.671   5.473  15.784  0.00  0.00    +0.000 C 
BRANCH  13  14
ATOM     14  C   UNL     1       6.678   4.883  14.412  0.00  0.00    +0.000 A 
ATOM     15  C   UNL     1       5.711   3.935  14.045  0.00  0.00    +0.000 A 
ATOM     16  C   UNL     1       5.724   3.380  12.763  0.00  0.00    +0.000 A 
ATOM     17  C   UNL     1       6.702   3.767  11.847  0.00  0.00    +0.000 A 
ATOM     18  C   UNL     1       7.660   4.715  12.201  0.00  0.00    +0.000 A 
ATOM     19  C   UNL     1       7.648   5.277  13.476  0.00  0.00    +0.000 A 
ENDBRANCH  13  14
ENDBRANCH   1  13
TORSDOF 4
ENDMDL
MODEL 4
REMARK VINA RESULT:      -7.4      2.367      7.312
REMARK  Name = 
REMARK  4 active torsions:
REMARK  status: ('A' for Active; 'I' for Inactive)
REMARK    1  A    between atoms: C_2  and  N_3
REMARK    2  A    between atoms: C_2  and  C_14
REMARK    3  A    between atoms: N_4  and  C_5
REMARK    4  A    between atoms: C_8  and  N_9
REMARK                            x       y       z     vdW  Elec       q    Type
REMARK                         _______ _______ _______ _____ _____    ______ ____
ROOT
ATOM      1  N   UNL     1       5.303   2.817  19.070  0.00  0.00    +0.000 NA
ATOM      2  N   UNL     1       5.006   3.956  18.652  0.00  0.00    +0.000 NA
ENDROOT
BRANCH   2   3
ATOM      3  C   UNL     1       5.630   4.265  17.427  0.00  0.00    +0.000 A 
ATOM      4  C   UNL     1       4.983   3.865  16.248  0.00  0.00    +0.000 A 
ATOM      5  C   UNL     1       5.558   4.089  14.992  0.00  0.00    +0.000 A 
ATOM      6  C   UNL     1       6.794   4.739  14.908  0.00  0.00    +0.000 A 
ATOM      7  C   UNL     1       7.449   5.165  16.069  0.00  0.00    +0.000 A 
ATOM      8  C   UNL     1       6.862   4.931  17.318  0.00  0.00    +0.000 A 
BRANCH   6   9
ATOM      9  N   UNL     1       7.413   4.965  13.595  0.00  0.00    +0.000 N 
ATOM     10  O   UNL     1       6.979   4.317  12.633  0.00  0.00    +0.000 OA
ATOM     11  O   UNL     1       8.336   5.790  13.529  0.00  0.00    +0.000 OA
ENDBRANCH   6   9
ENDBRANCH   2   3
BRANCH   1  13
ATOM     12  O   UNL     1       4.923   1.902  21.182  0.00  0.00    +0.000 OA
ATOM     13  C   UNL     1       4.525   2.422  20.139  0.00  0.00    +0.000 C 
BRANCH  13  14
ATOM     14  C   UNL     1       3.065   2.701  19.996  0.00  0.00    +0.000 A 
ATOM     15  C   UNL     1       2.418   3.563  20.896  0.00  0.00    +0.000 A 
ATOM     16  C   UNL     1       1.052   3.816  20.763  0.00  0.00    +0.000 A 
ATOM     17  C   UNL     1       0.327   3.211  19.736  0.00  0.00    +0.000 A 
ATOM     18  C   UNL     1       0.964   2.361  18.834  0.00  0.00    +0.000 A 
ATOM     19  C   UNL     1       2.329   2.110  18.957  0.00  0.00    +0.000 A 
ENDBRANCH  13  14
ENDBRANCH   1  13
TORSDOF 4
ENDMDL
MODEL 5
REMARK VINA RESULT:      -7.3      2.185      7.547
REMARK  Name = 
REMARK  4 active torsions:
REMARK  status: ('A' for Active; 'I' for Inactive)
REMARK    1  A    between atoms: C_2  and  N_3
REMARK    2  A    between atoms: C_2  and  C_14
REMARK    3  A    between atoms: N_4  and  C_5
REMARK    4  A    between atoms: C_8  and  N_9
REMARK                            x       y       z     vdW  Elec       q    Type
REMARK                         _______ _______ _______ _____ _____    ______ ____
ROOT
ATOM      1  N   UNL     1       5.345   3.579  18.679  0.00  0.00    +0.000 NA
ATOM      2  N   UNL     1       4.720   3.616  17.598  0.00  0.00    +0.000 NA
ENDROOT
BRANCH   2   3
ATOM      3  C   UNL     1       5.516   4.068  16.526  0.00  0.00    +0.000 A 
ATOM      4  C   UNL     1       5.050   3.830  15.224  0.00  0.00    +0.000 A 
ATOM      5  C   UNL     1       5.802   4.202  14.104  0.00  0.00    +0.000 A 
ATOM      6  C   UNL     1       7.035   4.839  14.285  0.00  0.00    +0.000 A 
ATOM      7  C   UNL     1       7.512   5.104  15.573  0.00  0.00    +0.000 A 
ATOM      8  C   UNL     1       6.749   4.723  16.683  0.00  0.00    +0.000 A 
BRANCH   6   9
ATOM      9  N   UNL     1       7.839   5.219  13.115  0.00  0.00    +0.000 N 
ATOM     10  O   UNL     1       7.503   4.766  12.012  0.00  0.00    +0.000 OA
ATOM     11  O   UNL     1       8.807   5.970  13.303  0.00  0.00    +0.000 OA
ENDBRANCH   6   9
ENDBRANCH   2   3
BRANCH   1  13
ATOM     12  O   UNL     1       5.057   1.995  20.367  0.00  0.00    +0.000 OA
ATOM     13  C   UNL     1       4.647   2.928  19.676  0.00  0.00    +0.000 C 
BRANCH  13  14
ATOM     14  C   UNL     1       3.274   3.457  19.935  0.00  0.00    +0.000 A 
ATOM     15  C   UNL     1       2.162   2.605  19.854  0.00  0.00    +0.000 A 
ATOM     16  C   UNL     1       0.879   3.104  20.090  0.00  0.00    +0.000 A 
ATOM     17  C   UNL     1       0.703   4.451  20.406  0.00  0.00    +0.000 A 
ATOM     18  C   UNL     1       1.804   5.300  20.498  0.00  0.00    +0.000 A 
ATOM     19  C   UNL     1       3.086   4.807  20.269  0.00  0.00    +0.000 A 
ENDBRANCH  13  14
ENDBRANCH   1  13
TORSDOF 4
ENDMDL
MODEL 6
REMARK VINA RESULT:      -7.3      0.417      1.690
REMARK  Name = 
REMARK  4 active torsions:
REMARK  status: ('A' for Active; 'I' for Inactive)
REMARK    1  A    between atoms: C_2  and  N_3
REMARK    2  A    between atoms: C_2  and  C_14
REMARK    3  A    between atoms: N_4  and  C_5
REMARK    4  A    between atoms: C_8  and  N_9
REMARK                            x       y       z     vdW  Elec       q    Type
REMARK                         _______ _______ _______ _____ _____    ______ ____
ROOT
ATOM      1  N   UNL     1       6.043   4.606  16.699  0.00  0.00    +0.000 NA
ATOM      2  N   UNL     1       4.912   5.110  16.869  0.00  0.00    +0.000 NA
ENDROOT
BRANCH   2   3
ATOM      3  C   UNL     1       4.197   4.500  17.919  0.00  0.00    +0.000 A 
ATOM      4  C   UNL     1       3.329   5.307  18.670  0.00  0.00    +0.000 A 
ATOM      5  C   UNL     1       2.619   4.792  19.761  0.00  0.00    +0.000 A 
ATOM      6  C   UNL     1       2.766   3.442  20.100  0.00  0.00    +0.000 A 
ATOM      7  C   UNL     1       3.611   2.613  19.354  0.00  0.00    +0.000 A 
ATOM      8  C   UNL     1       4.315   3.144  18.267  0.00  0.00    +0.000 A 
BRANCH   6   9
ATOM      9  N   UNL     1       2.037   2.896  21.252  0.00  0.00    +0.000 N 
ATOM     10  O   UNL     1       2.701   2.396  22.171  0.00  0.00    +0.000 OA
ATOM     11  O   UNL     1       0.799   2.966  21.235  0.00  0.00    +0.000 OA
ENDBRANCH   6   9
ENDBRANCH   2   3
BRANCH   1  13
ATOM     12  O   UNL     1       7.522   6.316  16.124  0.00  0.00    +0.000 OA
ATOM     13  C   UNL     1       6.829   5.341  15.834  0.00  0.00    +0.000 C 
BRANCH  13  14
ATOM     14  C   UNL     1       6.842   4.852  14.423  0.00  0.00    +0.000 A 
ATOM     15  C   UNL     1       5.989   3.810  14.028  0.00  0.00    +0.000 A 
ATOM     16  C   UNL     1       6.008   3.351  12.709  0.00  0.00    +0.000 A 
ATOM     17  C   UNL     1       6.878   3.928  11.783  0.00  0.00    +0.000 A 
ATOM     18  C   UNL     1       7.721   4.968  12.167  0.00  0.00    +0.000 A 
ATOM     19  C   UNL     1       7.702   5.435  13.479  0.00  0.00    +0.000 A 
ENDBRANCH  13  14
ENDBRANCH   1  13
TORSDOF 4
ENDMDL
MODEL 7
REMARK VINA RESULT:      -7.2      1.008      1.252
REMARK  Name = 
REMARK  4 active torsions:
REMARK  status: ('A' for Active; 'I' for Inactive)
REMARK    1  A    between atoms: C_2  and  N_3
REMARK    2  A    between atoms: C_2  and  C_14
REMARK    3  A    between atoms: N_4  and  C_5
REMARK    4  A    between atoms: C_8  and  N_9
REMARK                            x       y       z     vdW  Elec       q    Type
REMARK                         _______ _______ _______ _____ _____    ______ ____
ROOT
ATOM      1  N   UNL     1       5.583   5.283  16.470  0.00  0.00    +0.000 NA
ATOM      2  N   UNL     1       5.850   4.569  17.460  0.00  0.00    +0.000 NA
ENDROOT
BRANCH   2   3
ATOM      3  C   UNL     1       4.696   4.114  18.129  0.00  0.00    +0.000 A 
ATOM      4  C   UNL     1       3.881   3.186  17.462  0.00  0.00    +0.000 A 
ATOM      5  C   UNL     1       2.692   2.720  18.034  0.00  0.00    +0.000 A 
ATOM      6  C   UNL     1       2.316   3.175  19.303  0.00  0.00    +0.000 A 
ATOM      7  C   UNL     1       3.122   4.086  19.996  0.00  0.00    +0.000 A 
ATOM      8  C   UNL     1       4.307   4.544  19.408  0.00  0.00    +0.000 A 
BRANCH   6   9
ATOM      9  N   UNL     1       1.062   2.704  19.905  0.00  0.00    +0.000 N 
ATOM     10  O   UNL     1       0.181   2.277  19.145  0.00  0.00    +0.000 OA
ATOM     11  O   UNL     1       0.959   2.764  21.139  0.00  0.00    +0.000 OA
ENDBRANCH   6   9
ENDBRANCH   2   3
BRANCH   1  13
ATOM     12  O   UNL     1       7.665   6.221  15.996  0.00  0.00    +0.000 OA
ATOM     13  C   UNL     1       6.688   5.540  15.685  0.00  0.00    +0.000 C 
BRANCH  13  14
ATOM     14  C   UNL     1       6.677   4.883  14.343  0.00  0.00    +0.000 A 
ATOM     15  C   UNL     1       7.666   5.193  13.397  0.00  0.00    +0.000 A 
ATOM     16  C   UNL     1       7.649   4.582  12.141  0.00  0.00    +0.000 A 
ATOM     17  C   UNL     1       6.647   3.664  11.826  0.00  0.00    +0.000 A 
ATOM     18  C   UNL     1       5.668   3.345  12.764  0.00  0.00    +0.000 A 
ATOM     19  C   UNL     1       5.683   3.946  14.021  0.00  0.00    +0.000 A 
ENDBRANCH  13  14
ENDBRANCH   1  13
TORSDOF 4
ENDMDL
MODEL 8
REMARK VINA RESULT:      -7.2      0.919      1.537
REMARK  Name = 
REMARK  4 active torsions:
REMARK  status: ('A' for Active; 'I' for Inactive)
REMARK    1  A    between atoms: C_2  and  N_3
REMARK    2  A    between atoms: C_2  and  C_14
REMARK    3  A    between atoms: N_4  and  C_5
REMARK    4  A    between atoms: C_8  and  N_9
REMARK                            x       y       z     vdW  Elec       q    Type
REMARK                         _______ _______ _______ _____ _____    ______ ____
ROOT
ATOM      1  N   UNL     1       5.615   5.328  16.483  0.00  0.00    +0.000 NA
ATOM      2  N   UNL     1       5.756   4.358  17.258  0.00  0.00    +0.000 NA
ENDROOT
BRANCH   2   3
ATOM      3  C   UNL     1       4.551   3.984  17.885  0.00  0.00    +0.000 A 
ATOM      4  C   UNL     1       4.571   3.802  19.276  0.00  0.00    +0.000 A 
ATOM      5  C   UNL     1       3.431   3.383  19.971  0.00  0.00    +0.000 A 
ATOM      6  C   UNL     1       2.242   3.157  19.268  0.00  0.00    +0.000 A 
ATOM      7  C   UNL     1       2.192   3.351  17.882  0.00  0.00    +0.000 A 
ATOM      8  C   UNL     1       3.343   3.768  17.202  0.00  0.00    +0.000 A 
BRANCH   6   9
ATOM      9  N   UNL     1       1.044   2.703  19.986  0.00  0.00    +0.000 N 
ATOM     10  O   UNL     1       0.079   2.316  19.311  0.00  0.00    +0.000 OA
ATOM     11  O   UNL     1       1.069   2.736  21.225  0.00  0.00    +0.000 OA
ENDBRANCH   6   9
ENDBRANCH   2   3
BRANCH   1  13
ATOM     12  O   UNL     1       7.729   6.195  16.016  0.00  0.00    +0.000 OA
ATOM     13  C   UNL     1       6.729   5.551  15.700  0.00  0.00    +0.000 C 
BRANCH  13  14
ATOM     14  C   UNL     1       6.697   4.902  14.355  0.00  0.00    +0.000 A 
ATOM     15  C   UNL     1       5.661   4.015  14.023  0.00  0.00    +0.000 A 
ATOM     16  C   UNL     1       5.637   3.404  12.767  0.00  0.00    +0.000 A 
ATOM     17  C   UNL     1       6.645   3.675  11.842  0.00  0.00    +0.000 A 
ATOM     18  C   UNL     1       7.671   4.562  12.161  0.00  0.00    +0.000 A 
ATOM     19  C   UNL     1       7.697   5.179  13.410  0.00  0.00    +0.000 A 
ENDBRANCH  13  14
ENDBRANCH   1  13
TORSDOF 4
ENDMDL
MODEL 9
REMARK VINA RESULT:      -7.1      2.599      7.497
REMARK  Name = 
REMARK  4 active torsions:
REMARK  status: ('A' for Active; 'I' for Inactive)
REMARK    1  A    between atoms: C_2  and  N_3
REMARK    2  A    between atoms: C_2  and  C_14
REMARK    3  A    between atoms: N_4  and  C_5
REMARK    4  A    between atoms: C_8  and  N_9
REMARK                            x       y       z     vdW  Elec       q    Type
REMARK                         _______ _______ _______ _____ _____    ______ ____
ROOT
ATOM      1  N   UNL     1       3.352   5.844  17.790  0.00  0.00    +0.000 NA
ATOM      2  N   UNL     1       4.330   5.077  17.922  0.00  0.00    +0.000 NA
ENDROOT
BRANCH   2   3
ATOM      3  C   UNL     1       5.127   5.009  16.762  0.00  0.00    +0.000 A 
ATOM      4  C   UNL     1       6.322   5.745  16.750  0.00  0.00    +0.000 A 
ATOM      5  C   UNL     1       7.147   5.773  15.620  0.00  0.00    +0.000 A 
ATOM      6  C   UNL     1       6.783   5.039  14.486  0.00  0.00    +0.000 A 
ATOM      7  C   UNL     1       5.606   4.281  14.481  0.00  0.00    +0.000 A 
ATOM      8  C   UNL     1       4.791   4.267  15.618  0.00  0.00    +0.000 A 
BRANCH   6   9
ATOM      9  N   UNL     1       7.635   5.073  13.289  0.00  0.00    +0.000 N 
ATOM     10  O   UNL     1       8.627   5.815  13.308  0.00  0.00    +0.000 OA
ATOM     11  O   UNL     1       7.309   4.358  12.331  0.00  0.00    +0.000 OA
ENDBRANCH   6   9
ENDBRANCH   2   3
BRANCH   1  13
ATOM     12  O   UNL     1       2.494   7.193  19.489  0.00  0.00    +0.000 OA
ATOM     13  C   UNL     1       2.704   6.090  18.983  0.00  0.00    +0.000 C 
BRANCH  13  14
ATOM     14  C   UNL     1       2.189   4.876  19.685  0.00  0.00    +0.000 A 
ATOM     15  C   UNL     1       1.348   3.975  19.014  0.00  0.00    +0.000 A 
ATOM     16  C   UNL     1       0.862   2.845  19.675  0.00  0.00    +0.000 A 
ATOM     17  C   UNL     1       1.213   2.611  21.005  0.00  0.00    +0.000 A 
ATOM     18  C   UNL     1       2.055   3.497  21.674  0.00  0.00    +0.000 A 
ATOM     19  C   UNL     1       2.547   4.623  21.018  0.00  0.00    +0.000 A 
ENDBRANCH  13  14
ENDBRANCH   1  13
TORSDOF 4
ENDMDL
