MODEL 1
REMARK VINA RESULT:      -7.9      0.000      0.000
REMARK  Name = 
REMARK  8 active torsions:
REMARK  status: ('A' for Active; 'I' for Inactive)
REMARK    1  A    between atoms: C_1  and  O_2
REMARK    2  A    between atoms: O_2  and  C_3
REMARK    3  A    between atoms: C_7  and  C_8
REMARK    4  A    between atoms: N_16  and  C_17
REMARK    5  A    between atoms: C_20  and  S_21
REMARK    6  A    between atoms: S_21  and  N_24
REMARK    7  A    between atoms: N_24  and  C_25
REMARK    8  A    between atoms: N_24  and  C_26
REMARK                            x       y       z     vdW  Elec       q    Type
REMARK                         _______ _______ _______ _____ _____    ______ ____
ROOT
ATOM      1  C   UNL     1       3.889   4.202  18.275  0.00  0.00    +0.000 C 
ATOM      2  O   UNL     1       3.907   3.093  18.806  0.00  0.00    +0.000 OA
ATOM      3  N   UNL     1       2.970   5.189  18.633  0.00  0.00    +0.000 N 
ATOM      4  C   UNL     1       2.154   4.983  19.831  0.00  0.00    +0.000 C 
ATOM      5  C   UNL     1       2.169   6.240  20.711  0.00  0.00    +0.000 C 
ATOM      6  N   UNL     1       1.818   7.448  19.948  0.00  0.00    +0.000 N 
ATOM      7  C   UNL     1       1.180   8.472  20.636  0.00  0.00    +0.000 C 
ATOM      8  O   UNL     1       0.961   8.395  21.845  0.00  0.00    +0.000 OA
ATOM      9  N   UNL     1       0.742   9.513  19.841  0.00  0.00    +0.000 N 
ATOM     10  C   UNL     1       2.583   7.634  18.705  0.00  0.00    +0.000 C 
ATOM     11  C   UNL     1       2.559   6.361  17.841  0.00  0.00    +0.000 C 
ATOM     12  H   UNL     1       0.416   9.240  18.924  0.00  0.00    +0.000 HD
ENDROOT
BRANCH   1  17
ATOM     13  C   UNL     1       6.819   5.788  16.477  0.00  0.00    +0.000 A 
ATOM     14  C   UNL     1       6.849   5.029  15.308  0.00  0.00    +0.000 A 
ATOM     15  C   UNL     1       5.948   3.976  15.120  0.00  0.00    +0.000 A 
ATOM     16  C   UNL     1       4.978   3.712  16.087  0.00  0.00    +0.000 A 
ATOM     17  C   UNL     1       4.926   4.488  17.250  0.00  0.00    +0.000 A 
ATOM     18  C   UNL     1       5.901   5.466  17.470  0.00  0.00    +0.000 A 
BRANCH  13  20
ATOM     19  C   UNL     1       7.656   7.648  17.697  0.00  0.00    +0.000 C 
ATOM     20  O   UNL     1       7.721   6.816  16.540  0.00  0.00    +0.000 OA
ENDBRANCH  13  20
ENDBRANCH   1  17
BRANCH   9  21
ATOM     21  C   UNL     1       0.030  10.536  20.431  0.00  0.00    +0.000 A 
ATOM     22  C   UNL     1       0.108  11.095  21.682  0.00  0.00    +0.000 A 
ATOM     23  C   UNL     1      -0.949  12.025  21.896  0.00  0.00    +0.000 A 
ATOM     24  C   UNL     1      -1.802  12.110  20.807  0.00  0.00    +0.000 A 
ATOM     25  S   UNL     1      -1.210  11.197  19.482  0.00  0.00    +0.000 S 
BRANCH  24  26
ATOM     26  S   UNL     1      -3.361  12.954  20.608  0.00  0.00    +0.000 S 
ATOM     27  O   UNL     1      -3.018  14.350  20.758  0.00  0.00    +0.000 OA
ATOM     28  O   UNL     1      -3.958  12.448  19.389  0.00  0.00    +0.000 OA
BRANCH  26  29
ATOM     29  N   UNL     1      -4.349  12.515  21.931  0.00  0.00    +0.000 NA
ATOM     30  C   UNL     1      -4.062  13.172  23.215  0.00  0.00    +0.000 C 
ATOM     31  C   UNL     1      -5.793  12.400  21.646  0.00  0.00    +0.000 C 
ENDBRANCH  26  29
ENDBRANCH  24  26
ENDBRANCH   9  21
TORSDOF 5
ENDMDL
MODEL 2
REMARK VINA RESULT:      -7.8      1.249      1.709
REMARK  Name = 
REMARK  8 active torsions:
REMARK  status: ('A' for Active; 'I' for Inactive)
REMARK    1  A    between atoms: C_1  and  O_2
REMARK    2  A    between atoms: O_2  and  C_3
REMARK    3  A    between atoms: C_7  and  C_8
REMARK    4  A    between atoms: N_16  and  C_17
REMARK    5  A    between atoms: C_20  and  S_21
REMARK    6  A    between atoms: S_21  and  N_24
REMARK    7  A    between atoms: N_24  and  C_25
REMARK    8  A    between atoms: N_24  and  C_26
REMARK                            x       y       z     vdW  Elec       q    Type
REMARK                         _______ _______ _______ _____ _____    ______ ____
ROOT
ATOM      1  C   UNL     1       3.679   4.322  18.915  0.00  0.00    +0.000 C 
ATOM      2  O   UNL     1       3.557   3.301  19.588  0.00  0.00    +0.000 OA
ATOM      3  N   UNL     1       2.808   5.406  19.035  0.00  0.00    +0.000 N 
ATOM      4  C   UNL     1       1.862   5.422  20.152  0.00  0.00    +0.000 C 
ATOM      5  C   UNL     1       1.886   6.787  20.853  0.00  0.00    +0.000 C 
ATOM      6  N   UNL     1       1.708   7.896  19.902  0.00  0.00    +0.000 N 
ATOM      7  C   UNL     1       1.086   9.045  20.373  0.00  0.00    +0.000 C 
ATOM      8  O   UNL     1       0.741   9.152  21.550  0.00  0.00    +0.000 OA
ATOM      9  N   UNL     1       0.812   9.988  19.402  0.00  0.00    +0.000 N 
ATOM     10  C   UNL     1       2.607   7.856  18.738  0.00  0.00    +0.000 C 
ATOM     11  C   UNL     1       2.571   6.478  18.053  0.00  0.00    +0.000 C 
ATOM     12  H   UNL     1       0.560   9.611  18.500  0.00  0.00    +0.000 HD
ENDROOT
BRANCH   1  17
ATOM     13  C   UNL     1       5.750   4.187  15.749  0.00  0.00    +0.000 A 
ATOM     14  C   UNL     1       7.011   4.512  16.249  0.00  0.00    +0.000 A 
ATOM     15  C   UNL     1       7.183   4.815  17.603  0.00  0.00    +0.000 A 
ATOM     16  C   UNL     1       6.095   4.746  18.473  0.00  0.00    +0.000 A 
ATOM     17  C   UNL     1       4.832   4.395  17.982  0.00  0.00    +0.000 A 
ATOM     18  C   UNL     1       4.658   4.199  16.608  0.00  0.00    +0.000 A 
BRANCH  13  20
ATOM     19  C   UNL     1       6.808   4.303  13.624  0.00  0.00    +0.000 C 
ATOM     20  O   UNL     1       5.703   3.873  14.417  0.00  0.00    +0.000 OA
ENDBRANCH  13  20
ENDBRANCH   1  17
BRANCH   9  21
ATOM     21  C   UNL     1       0.126  11.128  19.769  0.00  0.00    +0.000 A 
ATOM     22  C   UNL     1       0.536  12.268  20.414  0.00  0.00    +0.000 A 
ATOM     23  C   UNL     1      -0.571  13.110  20.721  0.00  0.00    +0.000 A 
ATOM     24  C   UNL     1      -1.778  12.557  20.321  0.00  0.00    +0.000 A 
ATOM     25  S   UNL     1      -1.534  11.116  19.426  0.00  0.00    +0.000 S 
BRANCH  24  26
ATOM     26  S   UNL     1      -3.457  13.079  20.620  0.00  0.00    +0.000 S 
ATOM     27  O   UNL     1      -3.348  14.511  20.788  0.00  0.00    +0.000 OA
ATOM     28  O   UNL     1      -4.269  12.500  19.569  0.00  0.00    +0.000 OA
BRANCH  26  29
ATOM     29  N   UNL     1      -3.937  12.414  22.120  0.00  0.00    +0.000 NA
ATOM     30  C   UNL     1      -2.893  12.281  23.146  0.00  0.00    +0.000 C 
ATOM     31  C   UNL     1      -5.223  12.901  22.657  0.00  0.00    +0.000 C 
ENDBRANCH  26  29
ENDBRANCH  24  26
ENDBRANCH   9  21
TORSDOF 5
ENDMDL
MODEL 3
REMARK VINA RESULT:      -7.8      2.138      2.702
REMARK  Name = 
REMARK  8 active torsions:
REMARK  status: ('A' for Active; 'I' for Inactive)
REMARK    1  A    between atoms: C_1  and  O_2
REMARK    2  A    between atoms: O_2  and  C_3
REMARK    3  A    between atoms: C_7  and  C_8
REMARK    4  A    between atoms: N_16  and  C_17
REMARK    5  A    between atoms: C_20  and  S_21
REMARK    6  A    between atoms: S_21  and  N_24
REMARK    7  A    between atoms: N_24  and  C_25
REMARK    8  A    between atoms: N_24  and  C_26
REMARK                            x       y       z     vdW  Elec       q    Type
REMARK                         _______ _______ _______ _____ _____    ______ ____
ROOT
ATOM      1  C   UNL     1       3.780   4.398  18.402  0.00  0.00    +0.000 C 
ATOM      2  O   UNL     1       3.771   3.323  18.998  0.00  0.00    +0.000 OA
ATOM      3  N   UNL     1       2.876   5.421  18.691  0.00  0.00    +0.000 N 
ATOM      4  C   UNL     1       2.045   5.301  19.890  0.00  0.00    +0.000 C 
ATOM      5  C   UNL     1       2.074   6.607  20.695  0.00  0.00    +0.000 C 
ATOM      6  N   UNL     1       1.754   7.775  19.858  0.00  0.00    +0.000 N 
ATOM      7  C   UNL     1       1.128   8.849  20.477  0.00  0.00    +0.000 C 
ATOM      8  O   UNL     1       0.896   8.847  21.687  0.00  0.00    +0.000 OA
ATOM      9  N   UNL     1       0.718   9.848  19.618  0.00  0.00    +0.000 N 
ATOM     10  C   UNL     1       2.535   7.873  18.615  0.00  0.00    +0.000 C 
ATOM     11  C   UNL     1       2.496   6.551  17.827  0.00  0.00    +0.000 C 
ATOM     12  H   UNL     1       0.397   9.529  18.715  0.00  0.00    +0.000 HD
ENDROOT
BRANCH   1  17
ATOM     13  C   UNL     1       6.812   5.761  16.590  0.00  0.00    +0.000 A 
ATOM     14  C   UNL     1       6.785   4.997  15.425  0.00  0.00    +0.000 A 
ATOM     15  C   UNL     1       5.810   4.010  15.244  0.00  0.00    +0.000 A 
ATOM     16  C   UNL     1       4.826   3.822  16.214  0.00  0.00    +0.000 A 
ATOM     17  C   UNL     1       4.832   4.604  17.374  0.00  0.00    +0.000 A 
ATOM     18  C   UNL     1       5.875   5.511  17.587  0.00  0.00    +0.000 A 
BRANCH  13  20
ATOM     19  C   UNL     1       7.569   7.792  17.564  0.00  0.00    +0.000 C 
ATOM     20  O   UNL     1       7.786   6.721  16.647  0.00  0.00    +0.000 OA
ENDBRANCH  13  20
ENDBRANCH   1  17
BRANCH   9  21
ATOM     21  C   UNL     1       0.020  10.918  20.138  0.00  0.00    +0.000 A 
ATOM     22  C   UNL     1      -1.322  11.206  20.157  0.00  0.00    +0.000 A 
ATOM     23  C   UNL     1      -1.559  12.514  20.667  0.00  0.00    +0.000 A 
ATOM     24  C   UNL     1      -0.383  13.175  20.986  0.00  0.00    +0.000 A 
ATOM     25  S   UNL     1       0.973  12.138  20.829  0.00  0.00    +0.000 S 
BRANCH  24  26
ATOM     26  S   UNL     1      -0.088  14.865  21.473  0.00  0.00    +0.000 S 
ATOM     27  O   UNL     1      -1.403  15.361  21.810  0.00  0.00    +0.000 OA
ATOM     28  O   UNL     1       0.984  14.840  22.447  0.00  0.00    +0.000 OA
BRANCH  26  29
ATOM     29  N   UNL     1       0.446  15.708  20.085  0.00  0.00    +0.000 NA
ATOM     30  C   UNL     1      -0.077  15.245  18.791  0.00  0.00    +0.000 C 
ATOM     31  C   UNL     1       0.491  17.179  20.203  0.00  0.00    +0.000 C 
ENDBRANCH  26  29
ENDBRANCH  24  26
ENDBRANCH   9  21
TORSDOF 5
ENDMDL
MODEL 4
REMARK VINA RESULT:      -7.7      2.456      3.291
REMARK  Name = 
REMARK  8 active torsions:
REMARK  status: ('A' for Active; 'I' for Inactive)
REMARK    1  A    between atoms: C_1  and  O_2
REMARK    2  A    between atoms: O_2  and  C_3
REMARK    3  A    between atoms: C_7  and  C_8
REMARK    4  A    between atoms: N_16  and  C_17
REMARK    5  A    between atoms: C_20  and  S_21
REMARK    6  A    between atoms: S_21  and  N_24
REMARK    7  A    between atoms: N_24  and  C_25
REMARK    8  A    between atoms: N_24  and  C_26
REMARK                            x       y       z     vdW  Elec       q    Type
REMARK                         _______ _______ _______ _____ _____    ______ ____
ROOT
ATOM      1  C   UNL     1       3.818   4.425  19.207  0.00  0.00    +0.000 C 
ATOM      2  O   UNL     1       3.715   3.432  19.923  0.00  0.00    +0.000 OA
ATOM      3  N   UNL     1       2.883   5.461  19.226  0.00  0.00    +0.000 N 
ATOM      4  C   UNL     1       1.877   5.476  20.291  0.00  0.00    +0.000 C 
ATOM      5  C   UNL     1       1.787   6.872  20.922  0.00  0.00    +0.000 C 
ATOM      6  N   UNL     1       1.602   7.922  19.908  0.00  0.00    +0.000 N 
ATOM      7  C   UNL     1       0.892   9.054  20.287  0.00  0.00    +0.000 C 
ATOM      8  O   UNL     1       0.478   9.197  21.438  0.00  0.00    +0.000 OA
ATOM      9  N   UNL     1       0.619   9.933  19.258  0.00  0.00    +0.000 N 
ATOM     10  C   UNL     1       2.563   7.879  18.796  0.00  0.00    +0.000 C 
ATOM     11  C   UNL     1       2.641   6.470  18.181  0.00  0.00    +0.000 C 
ATOM     12  H   UNL     1       0.439   9.499  18.364  0.00  0.00    +0.000 HD
ENDROOT
BRANCH   1  17
ATOM     13  C   UNL     1       6.138   4.037  16.240  0.00  0.00    +0.000 A 
ATOM     14  C   UNL     1       7.277   4.686  16.714  0.00  0.00    +0.000 A 
ATOM     15  C   UNL     1       7.280   5.286  17.977  0.00  0.00    +0.000 A 
ATOM     16  C   UNL     1       6.152   5.194  18.792  0.00  0.00    +0.000 A 
ATOM     17  C   UNL     1       5.015   4.521  18.333  0.00  0.00    +0.000 A 
ATOM     18  C   UNL     1       4.992   4.019  17.027  0.00  0.00    +0.000 A 
BRANCH  13  20
ATOM     19  C   UNL     1       6.335   4.340  13.892  0.00  0.00    +0.000 C 
ATOM     20  O   UNL     1       6.257   3.454  15.007  0.00  0.00    +0.000 OA
ENDBRANCH  13  20
ENDBRANCH   1  17
BRANCH   9  21
ATOM     21  C   UNL     1      -0.147  11.047  19.530  0.00  0.00    +0.000 A 
ATOM     22  C   UNL     1      -1.489  11.289  19.370  0.00  0.00    +0.000 A 
ATOM     23  C   UNL     1      -1.800  12.652  19.639  0.00  0.00    +0.000 A 
ATOM     24  C   UNL     1      -0.675  13.394  19.963  0.00  0.00    +0.000 A 
ATOM     25  S   UNL     1       0.708  12.391  20.108  0.00  0.00    +0.000 S 
BRANCH  24  26
ATOM     26  S   UNL     1      -0.461  15.148  20.200  0.00  0.00    +0.000 S 
ATOM     27  O   UNL     1      -1.812  15.645  20.336  0.00  0.00    +0.000 OA
ATOM     28  O   UNL     1       0.515  15.312  21.259  0.00  0.00    +0.000 OA
BRANCH  26  29
ATOM     29  N   UNL     1       0.184  15.783  18.750  0.00  0.00    +0.000 NA
ATOM     30  C   UNL     1      -0.509  16.944  18.174  0.00  0.00    +0.000 C 
ATOM     31  C   UNL     1       1.655  15.896  18.696  0.00  0.00    +0.000 C 
ENDBRANCH  26  29
ENDBRANCH  24  26
ENDBRANCH   9  21
TORSDOF 5
ENDMDL
MODEL 5
REMARK VINA RESULT:      -7.7      1.217      1.358
REMARK  Name = 
REMARK  8 active torsions:
REMARK  status: ('A' for Active; 'I' for Inactive)
REMARK    1  A    between atoms: C_1  and  O_2
REMARK    2  A    between atoms: O_2  and  C_3
REMARK    3  A    between atoms: C_7  and  C_8
REMARK    4  A    between atoms: N_16  and  C_17
REMARK    5  A    between atoms: C_20  and  S_21
REMARK    6  A    between atoms: S_21  and  N_24
REMARK    7  A    between atoms: N_24  and  C_25
REMARK    8  A    between atoms: N_24  and  C_26
REMARK                            x       y       z     vdW  Elec       q    Type
REMARK                         _______ _______ _______ _____ _____    ______ ____
ROOT
ATOM      1  C   UNL     1       3.614   5.051  18.725  0.00  0.00    +0.000 C 
ATOM      2  O   UNL     1       3.619   4.112  19.518  0.00  0.00    +0.000 OA
ATOM      3  N   UNL     1       2.716   6.114  18.830  0.00  0.00    +0.000 N 
ATOM      4  C   UNL     1       1.911   6.231  20.048  0.00  0.00    +0.000 C 
ATOM      5  C   UNL     1       1.957   7.669  20.584  0.00  0.00    +0.000 C 
ATOM      6  N   UNL     1       1.618   8.653  19.543  0.00  0.00    +0.000 N 
ATOM      7  C   UNL     1       1.005   9.830  19.957  0.00  0.00    +0.000 C 
ATOM      8  O   UNL     1       0.800  10.062  21.148  0.00  0.00    +0.000 OA
ATOM      9  N   UNL     1       0.575  10.645  18.929  0.00  0.00    +0.000 N 
ATOM     10  C   UNL     1       2.372   8.506  18.289  0.00  0.00    +0.000 C 
ATOM     11  C   UNL     1       2.316   7.058  17.772  0.00  0.00    +0.000 C 
ATOM     12  H   UNL     1       0.235  10.158  18.112  0.00  0.00    +0.000 HD
ENDROOT
BRANCH   1  17
ATOM     13  C   UNL     1       6.644   5.987  16.657  0.00  0.00    +0.000 A 
ATOM     14  C   UNL     1       6.553   5.054  15.625  0.00  0.00    +0.000 A 
ATOM     15  C   UNL     1       5.535   4.095  15.620  0.00  0.00    +0.000 A 
ATOM     16  C   UNL     1       4.572   4.101  16.630  0.00  0.00    +0.000 A 
ATOM     17  C   UNL     1       4.643   5.051  17.655  0.00  0.00    +0.000 A 
ATOM     18  C   UNL     1       5.728   5.934  17.701  0.00  0.00    +0.000 A 
BRANCH  13  20
ATOM     19  C   UNL     1       7.781   7.846  17.604  0.00  0.00    +0.000 C 
ATOM     20  O   UNL     1       7.657   6.901  16.543  0.00  0.00    +0.000 OA
ENDBRANCH  13  20
ENDBRANCH   1  17
BRANCH   9  21
ATOM     21  C   UNL     1      -0.112  11.798  19.248  0.00  0.00    +0.000 A 
ATOM     22  C   UNL     1       0.312  13.093  19.412  0.00  0.00    +0.000 A 
ATOM     23  C   UNL     1      -0.740  13.918  19.903  0.00  0.00    +0.000 A 
ATOM     24  C   UNL     1      -1.910  13.206  20.118  0.00  0.00    +0.000 A 
ATOM     25  S   UNL     1      -1.766  11.593  19.557  0.00  0.00    +0.000 S 
BRANCH  24  26
ATOM     26  S   UNL     1      -3.445  13.688  20.888  0.00  0.00    +0.000 S 
ATOM     27  O   UNL     1      -3.477  15.124  20.725  0.00  0.00    +0.000 OA
ATOM     28  O   UNL     1      -4.478  12.840  20.328  0.00  0.00    +0.000 OA
BRANCH  26  29
ATOM     29  N   UNL     1      -3.303  13.356  22.558  0.00  0.00    +0.000 NA
ATOM     30  C   UNL     1      -2.591  14.354  23.370  0.00  0.00    +0.000 C 
ATOM     31  C   UNL     1      -4.515  12.828  23.215  0.00  0.00    +0.000 C 
ENDBRANCH  26  29
ENDBRANCH  24  26
ENDBRANCH   9  21
TORSDOF 5
ENDMDL
MODEL 6
REMARK VINA RESULT:      -7.7      2.092      2.272
REMARK  Name = 
REMARK  8 active torsions:
REMARK  status: ('A' for Active; 'I' for Inactive)
REMARK    1  A    between atoms: C_1  and  O_2
REMARK    2  A    between atoms: O_2  and  C_3
REMARK    3  A    between atoms: C_7  and  C_8
REMARK    4  A    between atoms: N_16  and  C_17
REMARK    5  A    between atoms: C_20  and  S_21
REMARK    6  A    between atoms: S_21  and  N_24
REMARK    7  A    between atoms: N_24  and  C_25
REMARK    8  A    between atoms: N_24  and  C_26
REMARK                            x       y       z     vdW  Elec       q    Type
REMARK                         _______ _______ _______ _____ _____    ______ ____
ROOT
ATOM      1  C   UNL     1       3.796   4.676  18.641  0.00  0.00    +0.000 C 
ATOM      2  O   UNL     1       3.807   3.690  19.376  0.00  0.00    +0.000 OA
ATOM      3  N   UNL     1       2.869   5.708  18.787  0.00  0.00    +0.000 N 
ATOM      4  C   UNL     1       2.031   5.731  19.988  0.00  0.00    +0.000 C 
ATOM      5  C   UNL     1       2.027   7.134  20.610  0.00  0.00    +0.000 C 
ATOM      6  N   UNL     1       1.688   8.171  19.623  0.00  0.00    +0.000 N 
ATOM      7  C   UNL     1       1.035   9.305  20.090  0.00  0.00    +0.000 C 
ATOM      8  O   UNL     1       0.795   9.460  21.288  0.00  0.00    +0.000 OA
ATOM      9  N   UNL     1       0.609  10.170  19.103  0.00  0.00    +0.000 N 
ATOM     10  C   UNL     1       2.475   8.119  18.381  0.00  0.00    +0.000 C 
ATOM     11  C   UNL     1       2.470   6.704  17.777  0.00  0.00    +0.000 C 
ATOM     12  H   UNL     1       0.301   9.726  18.250  0.00  0.00    +0.000 HD
ENDROOT
BRANCH   1  17
ATOM     13  C   UNL     1       6.795   5.867  16.661  0.00  0.00    +0.000 A 
ATOM     14  C   UNL     1       6.808   4.937  15.622  0.00  0.00    +0.000 A 
ATOM     15  C   UNL     1       5.871   3.899  15.586  0.00  0.00    +0.000 A 
ATOM     16  C   UNL     1       4.884   3.820  16.569  0.00  0.00    +0.000 A 
ATOM     17  C   UNL     1       4.851   4.766  17.599  0.00  0.00    +0.000 A 
ATOM     18  C   UNL     1       5.858   5.733  17.679  0.00  0.00    +0.000 A 
BRANCH  13  20
ATOM     19  C   UNL     1       7.703   7.849  17.606  0.00  0.00    +0.000 C 
ATOM     20  O   UNL     1       7.734   6.860  16.578  0.00  0.00    +0.000 OA
ENDBRANCH  13  20
ENDBRANCH   1  17
BRANCH   9  21
ATOM     21  C   UNL     1      -0.116  11.284  19.472  0.00  0.00    +0.000 A 
ATOM     22  C   UNL     1      -1.468  11.516  19.520  0.00  0.00    +0.000 A 
ATOM     23  C   UNL     1      -1.746  12.881  19.812  0.00  0.00    +0.000 A 
ATOM     24  C   UNL     1      -0.590  13.635  19.944  0.00  0.00    +0.000 A 
ATOM     25  S   UNL     1       0.808  12.644  19.887  0.00  0.00    +0.000 S 
BRANCH  24  26
ATOM     26  S   UNL     1      -0.358  15.395  20.115  0.00  0.00    +0.000 S 
ATOM     27  O   UNL     1       0.960  15.514  20.699  0.00  0.00    +0.000 OA
ATOM     28  O   UNL     1      -0.672  15.986  18.830  0.00  0.00    +0.000 OA
BRANCH  26  29
ATOM     29  N   UNL     1      -1.490  15.948  21.270  0.00  0.00    +0.000 NA
ATOM     30  C   UNL     1      -2.859  16.187  20.789  0.00  0.00    +0.000 C 
ATOM     31  C   UNL     1      -1.443  15.282  22.587  0.00  0.00    +0.000 C 
ENDBRANCH  26  29
ENDBRANCH  24  26
ENDBRANCH   9  21
TORSDOF 5
ENDMDL
MODEL 7
REMARK VINA RESULT:      -7.7      2.359      3.133
REMARK  Name = 
REMARK  8 active torsions:
REMARK  status: ('A' for Active; 'I' for Inactive)
REMARK    1  A    between atoms: C_1  and  O_2
REMARK    2  A    between atoms: O_2  and  C_3
REMARK    3  A    between atoms: C_7  and  C_8
REMARK    4  A    between atoms: N_16  and  C_17
REMARK    5  A    between atoms: C_20  and  S_21
REMARK    6  A    between atoms: S_21  and  N_24
REMARK    7  A    between atoms: N_24  and  C_25
REMARK    8  A    between atoms: N_24  and  C_26
REMARK                            x       y       z     vdW  Elec       q    Type
REMARK                         _______ _______ _______ _____ _____    ______ ____
ROOT
ATOM      1  C   UNL     1       3.800   4.435  19.221  0.00  0.00    +0.000 C 
ATOM      2  O   UNL     1       3.709   3.459  19.963  0.00  0.00    +0.000 OA
ATOM      3  N   UNL     1       2.864   5.471  19.230  0.00  0.00    +0.000 N 
ATOM      4  C   UNL     1       1.874   5.510  20.308  0.00  0.00    +0.000 C 
ATOM      5  C   UNL     1       1.792   6.920  20.908  0.00  0.00    +0.000 C 
ATOM      6  N   UNL     1       1.591   7.946  19.872  0.00  0.00    +0.000 N 
ATOM      7  C   UNL     1       0.885   9.086  20.235  0.00  0.00    +0.000 C 
ATOM      8  O   UNL     1       0.488   9.256  21.388  0.00  0.00    +0.000 OA
ATOM      9  N   UNL     1       0.597   9.941  19.189  0.00  0.00    +0.000 N 
ATOM     10  C   UNL     1       2.537   7.878  18.748  0.00  0.00    +0.000 C 
ATOM     11  C   UNL     1       2.607   6.455  18.165  0.00  0.00    +0.000 C 
ATOM     12  H   UNL     1       0.405   9.486  18.308  0.00  0.00    +0.000 HD
ENDROOT
BRANCH   1  17
ATOM     13  C   UNL     1       6.032   4.099  16.182  0.00  0.00    +0.000 A 
ATOM     14  C   UNL     1       7.222   4.636  16.672  0.00  0.00    +0.000 A 
ATOM     15  C   UNL     1       7.290   5.146  17.973  0.00  0.00    +0.000 A 
ATOM     16  C   UNL     1       6.173   5.073  18.806  0.00  0.00    +0.000 A 
ATOM     17  C   UNL     1       4.984   4.511  18.328  0.00  0.00    +0.000 A 
ATOM     18  C   UNL     1       4.902   4.104  16.993  0.00  0.00    +0.000 A 
BRANCH  13  20
ATOM     19  C   UNL     1       6.703   4.427  13.927  0.00  0.00    +0.000 C 
ATOM     20  O   UNL     1       6.088   3.597  14.910  0.00  0.00    +0.000 OA
ENDBRANCH  13  20
ENDBRANCH   1  17
BRANCH   9  21
ATOM     21  C   UNL     1      -0.166  11.060  19.446  0.00  0.00    +0.000 A 
ATOM     22  C   UNL     1      -1.520  11.276  19.366  0.00  0.00    +0.000 A 
ATOM     23  C   UNL     1      -1.833  12.650  19.573  0.00  0.00    +0.000 A 
ATOM     24  C   UNL     1      -0.700  13.423  19.771  0.00  0.00    +0.000 A 
ATOM     25  S   UNL     1       0.706  12.448  19.879  0.00  0.00    +0.000 S 
BRANCH  24  26
ATOM     26  S   UNL     1      -0.499  15.192  19.885  0.00  0.00    +0.000 S 
ATOM     27  O   UNL     1      -0.112  15.581  18.548  0.00  0.00    +0.000 OA
ATOM     28  O   UNL     1      -1.700  15.711  20.506  0.00  0.00    +0.000 OA
BRANCH  26  29
ATOM     29  N   UNL     1       0.830  15.487  20.919  0.00  0.00    +0.000 NA
ATOM     30  C   UNL     1       1.989  16.168  20.323  0.00  0.00    +0.000 C 
ATOM     31  C   UNL     1       0.496  15.978  22.270  0.00  0.00    +0.000 C 
ENDBRANCH  26  29
ENDBRANCH  24  26
ENDBRANCH   9  21
TORSDOF 5
ENDMDL
MODEL 8
REMARK VINA RESULT:      -7.6      1.288      1.532
REMARK  Name = 
REMARK  8 active torsions:
REMARK  status: ('A' for Active; 'I' for Inactive)
REMARK    1  A    between atoms: C_1  and  O_2
REMARK    2  A    between atoms: O_2  and  C_3
REMARK    3  A    between atoms: C_7  and  C_8
REMARK    4  A    between atoms: N_16  and  C_17
REMARK    5  A    between atoms: C_20  and  S_21
REMARK    6  A    between atoms: S_21  and  N_24
REMARK    7  A    between atoms: N_24  and  C_25
REMARK    8  A    between atoms: N_24  and  C_26
REMARK                            x       y       z     vdW  Elec       q    Type
REMARK                         _______ _______ _______ _____ _____    ______ ____
ROOT
ATOM      1  C   UNL     1       3.790   4.939  18.841  0.00  0.00    +0.000 C 
ATOM      2  O   UNL     1       3.840   4.030  19.668  0.00  0.00    +0.000 OA
ATOM      3  N   UNL     1       2.846   5.964  18.913  0.00  0.00    +0.000 N 
ATOM      4  C   UNL     1       2.042   6.091  20.130  0.00  0.00    +0.000 C 
ATOM      5  C   UNL     1       2.027   7.548  20.612  0.00  0.00    +0.000 C 
ATOM      6  N   UNL     1       1.640   8.477  19.538  0.00  0.00    +0.000 N 
ATOM      7  C   UNL     1       0.978   9.639  19.912  0.00  0.00    +0.000 C 
ATOM      8  O   UNL     1       0.767   9.907  21.095  0.00  0.00    +0.000 OA
ATOM      9  N   UNL     1       0.507  10.396  18.857  0.00  0.00    +0.000 N 
ATOM     10  C   UNL     1       2.394   8.317  18.286  0.00  0.00    +0.000 C 
ATOM     11  C   UNL     1       2.400   6.849  17.823  0.00  0.00    +0.000 C 
ATOM     12  H   UNL     1       0.185   9.865  18.062  0.00  0.00    +0.000 HD
ENDROOT
BRANCH   1  17
ATOM     13  C   UNL     1       6.794   5.901  16.747  0.00  0.00    +0.000 A 
ATOM     14  C   UNL     1       6.712   4.957  15.724  0.00  0.00    +0.000 A 
ATOM     15  C   UNL     1       5.708   3.983  15.735  0.00  0.00    +0.000 A 
ATOM     16  C   UNL     1       4.751   3.983  16.750  0.00  0.00    +0.000 A 
ATOM     17  C   UNL     1       4.813   4.944  17.765  0.00  0.00    +0.000 A 
ATOM     18  C   UNL     1       5.884   5.843  17.797  0.00  0.00    +0.000 A 
BRANCH  13  20
ATOM     19  C   UNL     1       7.720   7.962  17.482  0.00  0.00    +0.000 C 
ATOM     20  O   UNL     1       7.792   6.829  16.619  0.00  0.00    +0.000 OA
ENDBRANCH  13  20
ENDBRANCH   1  17
BRANCH   9  21
ATOM     21  C   UNL     1      -0.229  11.529  19.138  0.00  0.00    +0.000 A 
ATOM     22  C   UNL     1       0.101  12.861  19.099  0.00  0.00    +0.000 A 
ATOM     23  C   UNL     1      -0.946  13.664  19.634  0.00  0.00    +0.000 A 
ATOM     24  C   UNL     1      -2.014  12.904  20.085  0.00  0.00    +0.000 A 
ATOM     25  S   UNL     1      -1.806  11.248  19.692  0.00  0.00    +0.000 S 
BRANCH  24  26
ATOM     26  S   UNL     1      -3.473  13.367  21.000  0.00  0.00    +0.000 S 
ATOM     27  O   UNL     1      -3.207  12.891  22.338  0.00  0.00    +0.000 OA
ATOM     28  O   UNL     1      -3.709  14.771  20.729  0.00  0.00    +0.000 OA
BRANCH  26  29
ATOM     29  N   UNL     1      -4.777  12.457  20.373  0.00  0.00    +0.000 NA
ATOM     30  C   UNL     1      -5.990  12.388  21.200  0.00  0.00    +0.000 C 
ATOM     31  C   UNL     1      -5.060  12.645  18.936  0.00  0.00    +0.000 C 
ENDBRANCH  26  29
ENDBRANCH  24  26
ENDBRANCH   9  21
TORSDOF 5
ENDMDL
MODEL 9
REMARK VINA RESULT:      -7.6      2.456      3.032
REMARK  Name = 
REMARK  8 active torsions:
REMARK  status: ('A' for Active; 'I' for Inactive)
REMARK    1  A    between atoms: C_1  and  O_2
REMARK    2  A    between atoms: O_2  and  C_3
REMARK    3  A    between atoms: C_7  and  C_8
REMARK    4  A    between atoms: N_16  and  C_17
REMARK    5  A    between atoms: C_20  and  S_21
REMARK    6  A    between atoms: S_21  and  N_24
REMARK    7  A    between atoms: N_24  and  C_25
REMARK    8  A    between atoms: N_24  and  C_26
REMARK                            x       y       z     vdW  Elec       q    Type
REMARK                         _______ _______ _______ _____ _____    ______ ____
ROOT
ATOM      1  C   UNL     1       3.582   4.965  18.833  0.00  0.00    +0.000 C 
ATOM      2  O   UNL     1       3.612   3.993  19.585  0.00  0.00    +0.000 OA
ATOM      3  N   UNL     1       2.655   5.997  18.981  0.00  0.00    +0.000 N 
ATOM      4  C   UNL     1       1.845   6.040  20.200  0.00  0.00    +0.000 C 
ATOM      5  C   UNL     1       1.850   7.455  20.796  0.00  0.00    +0.000 C 
ATOM      6  N   UNL     1       1.485   8.472  19.798  0.00  0.00    +0.000 N 
ATOM      7  C   UNL     1       0.840   9.612  20.259  0.00  0.00    +0.000 C 
ATOM      8  O   UNL     1       0.626   9.789  21.459  0.00  0.00    +0.000 OA
ATOM      9  N   UNL     1       0.389  10.459  19.265  0.00  0.00    +0.000 N 
ATOM     10  C   UNL     1       2.245   8.399  18.540  0.00  0.00    +0.000 C 
ATOM     11  C   UNL     1       2.230   6.973  17.963  0.00  0.00    +0.000 C 
ATOM     12  H   UNL     1       0.063   9.997  18.428  0.00  0.00    +0.000 HD
ENDROOT
BRANCH   1  17
ATOM     13  C   UNL     1       6.509   6.147  16.744  0.00  0.00    +0.000 A 
ATOM     14  C   UNL     1       6.524   5.177  15.742  0.00  0.00    +0.000 A 
ATOM     15  C   UNL     1       5.612   4.116  15.767  0.00  0.00    +0.000 A 
ATOM     16  C   UNL     1       4.648   4.053  16.773  0.00  0.00    +0.000 A 
ATOM     17  C   UNL     1       4.612   5.038  17.766  0.00  0.00    +0.000 A 
ATOM     18  C   UNL     1       5.597   6.032  17.786  0.00  0.00    +0.000 A 
BRANCH  13  20
ATOM     19  C   UNL     1       7.801   7.842  17.795  0.00  0.00    +0.000 C 
ATOM     20  O   UNL     1       7.421   7.159  16.602  0.00  0.00    +0.000 OA
ENDBRANCH  13  20
ENDBRANCH   1  17
BRANCH   9  21
ATOM     21  C   UNL     1      -0.331  11.577  19.631  0.00  0.00    +0.000 A 
ATOM     22  C   UNL     1      -1.682  11.801  19.718  0.00  0.00    +0.000 A 
ATOM     23  C   UNL     1      -1.959  13.172  19.984  0.00  0.00    +0.000 A 
ATOM     24  C   UNL     1      -0.805  13.936  20.058  0.00  0.00    +0.000 A 
ATOM     25  S   UNL     1       0.597  12.953  19.980  0.00  0.00    +0.000 S 
BRANCH  24  26
ATOM     26  S   UNL     1      -0.579  15.702  20.177  0.00  0.00    +0.000 S 
ATOM     27  O   UNL     1      -1.921  16.209  20.355  0.00  0.00    +0.000 OA
ATOM     28  O   UNL     1       0.452  15.926  21.169  0.00  0.00    +0.000 OA
BRANCH  26  29
ATOM     29  N   UNL     1      -0.014  16.245  18.658  0.00  0.00    +0.000 NA
ATOM     30  C   UNL     1      -0.731  17.378  18.055  0.00  0.00    +0.000 C 
ATOM     31  C   UNL     1       1.452  16.341  18.515  0.00  0.00    +0.000 C 
ENDBRANCH  26  29
ENDBRANCH  24  26
ENDBRANCH   9  21
TORSDOF 5
ENDMDL
