MODEL 1
REMARK VINA RESULT:      -8.5      0.000      0.000
REMARK  Name = 
REMARK  9 active torsions:
REMARK  status: ('A' for Active; 'I' for Inactive)
REMARK    1  A    between atoms: C_1  and  O_2
REMARK    2  A    between atoms: O_2  and  C_3
REMARK    3  A    between atoms: C_6  and  C_7
REMARK    4  A    between atoms: C_7  and  O_8
REMARK    5  A    between atoms: C_7  and  C_9
REMARK    6  A    between atoms: C_7  and  C_15
REMARK    7  A    between atoms: C_15  and  C_16
REMARK    8  A    between atoms: C_15  and  C_22
REMARK    9  A    between atoms: C_16  and  N_17
REMARK                            x       y       z     vdW  Elec       q    Type
REMARK                         _______ _______ _______ _____ _____    ______ ____
ROOT
ATOM      1  C   UNL     1       4.578   4.350  18.246  0.00  0.00    +0.000 C 
ENDROOT
BRANCH   1   5
ATOM      2  C   UNL     1       2.102   7.915  19.150  0.00  0.00    +0.000 A 
ATOM      3  C   UNL     1       2.263   6.922  20.120  0.00  0.00    +0.000 A 
ATOM      4  C   UNL     1       3.097   5.798  19.899  0.00  0.00    +0.000 A 
ATOM      5  C   UNL     1       3.763   5.612  18.674  0.00  0.00    +0.000 A 
ATOM      6  C   UNL     1       3.565   6.637  17.724  0.00  0.00    +0.000 A 
ATOM      7  C   UNL     1       2.799   7.784  17.961  0.00  0.00    +0.000 A 
BRANCH   2   9
ATOM      8  C   UNL     1       1.230  10.043  18.535  0.00  0.00    +0.000 C 
ATOM      9  O   UNL     1       1.240   8.938  19.440  0.00  0.00    +0.000 OA
ENDBRANCH   2   9
ENDBRANCH   1   5
BRANCH   1  10
ATOM     10  C   UNL     1       3.668   3.129  17.730  0.00  0.00    +0.000 C 
ATOM     11  C   UNL     1       3.428   1.928  18.680  0.00  0.00    +0.000 C 
ATOM     12  C   UNL     1       2.141   1.960  19.505  0.00  0.00    +0.000 C 
ATOM     13  C   UNL     1       0.916   2.403  18.720  0.00  0.00    +0.000 C 
ATOM     14  C   UNL     1       1.169   3.652  17.887  0.00  0.00    +0.000 C 
ATOM     15  C   UNL     1       2.373   3.475  16.980  0.00  0.00    +0.000 C 
ENDBRANCH   1  10
BRANCH   1  16
ATOM     16  O   UNL     1       5.147   3.820  19.472  0.00  0.00    +0.000 OA
ATOM     17  H   UNL     1       4.869   4.367  20.222  0.00  0.00    +0.000 HD
ENDBRANCH   1  16
BRANCH   1  18
ATOM     18  C   UNL     1       5.800   4.603  17.211  0.00  0.00    +0.000 C 
BRANCH  18  19
ATOM     19  C   UNL     1       6.754   5.753  17.634  0.00  0.00    +0.000 A 
ATOM     20  C   UNL     1       7.586   5.629  18.759  0.00  0.00    +0.000 A 
ATOM     21  C   UNL     1       8.378   6.697  19.193  0.00  0.00    +0.000 A 
ATOM     22  C   UNL     1       8.355   7.907  18.501  0.00  0.00    +0.000 A 
ATOM     23  C   UNL     1       7.574   8.035  17.358  0.00  0.00    +0.000 A 
ATOM     24  C   UNL     1       6.796   6.963  16.921  0.00  0.00    +0.000 A 
ENDBRANCH  18  19
BRANCH  18  25
ATOM     25  C   UNL     1       5.512   4.783  15.677  0.00  0.00    +0.000 C 
BRANCH  25  26
ATOM     26  N   UNL     1       6.296   3.994  14.713  0.00  0.00    +0.000 NA
ATOM     27  C   UNL     1       7.502   4.683  14.245  0.00  0.00    +0.000 C 
ATOM     28  C   UNL     1       7.288   4.972  12.776  0.00  0.00    +0.000 C 
ATOM     29  C   UNL     1       6.437   3.806  12.335  0.00  0.00    +0.000 C 
ATOM     30  C   UNL     1       5.526   3.579  13.533  0.00  0.00    +0.000 C 
ENDBRANCH  25  26
ENDBRANCH  18  25
ENDBRANCH   1  18
TORSDOF 8
ENDMDL
MODEL 2
REMARK VINA RESULT:      -8.4      0.523      1.028
REMARK  Name = 
REMARK  9 active torsions:
REMARK  status: ('A' for Active; 'I' for Inactive)
REMARK    1  A    between atoms: C_1  and  O_2
REMARK    2  A    between atoms: O_2  and  C_3
REMARK    3  A    between atoms: C_6  and  C_7
REMARK    4  A    between atoms: C_7  and  O_8
REMARK    5  A    between atoms: C_7  and  C_9
REMARK    6  A    between atoms: C_7  and  C_15
REMARK    7  A    between atoms: C_15  and  C_16
REMARK    8  A    between atoms: C_15  and  C_22
REMARK    9  A    between atoms: C_16  and  N_17
REMARK                            x       y       z     vdW  Elec       q    Type
REMARK                         _______ _______ _______ _____ _____    ______ ____
ROOT
ATOM      1  C   UNL     1       4.446   4.643  18.312  0.00  0.00    +0.000 C 
ENDROOT
BRANCH   1   5
ATOM      2  C   UNL     1       1.968   8.225  19.144  0.00  0.00    +0.000 A 
ATOM      3  C   UNL     1       2.593   8.090  17.901  0.00  0.00    +0.000 A 
ATOM      4  C   UNL     1       3.339   6.934  17.567  0.00  0.00    +0.000 A 
ATOM      5  C   UNL     1       3.523   5.891  18.493  0.00  0.00    +0.000 A 
ATOM      6  C   UNL     1       2.879   6.074  19.736  0.00  0.00    +0.000 A 
ATOM      7  C   UNL     1       2.082   7.182  20.046  0.00  0.00    +0.000 A 
BRANCH   2   9
ATOM      8  C   UNL     1       0.867   9.619  20.729  0.00  0.00    +0.000 C 
ATOM      9  O   UNL     1       1.308   9.399  19.388  0.00  0.00    +0.000 OA
ENDBRANCH   2   9
ENDBRANCH   1   5
BRANCH   1  10
ATOM     10  C   UNL     1       3.650   3.285  17.988  0.00  0.00    +0.000 C 
ATOM     11  C   UNL     1       3.424   2.265  19.134  0.00  0.00    +0.000 C 
ATOM     12  C   UNL     1       2.086   2.354  19.869  0.00  0.00    +0.000 C 
ATOM     13  C   UNL     1       0.890   2.552  18.951  0.00  0.00    +0.000 C 
ATOM     14  C   UNL     1       1.119   3.641  17.912  0.00  0.00    +0.000 C 
ATOM     15  C   UNL     1       2.388   3.389  17.120  0.00  0.00    +0.000 C 
ENDBRANCH   1  10
BRANCH   1  16
ATOM     16  O   UNL     1       5.002   4.375  19.626  0.00  0.00    +0.000 OA
ATOM     17  H   UNL     1       4.496   3.668  20.054  0.00  0.00    +0.000 HD
ENDBRANCH   1  16
BRANCH   1  18
ATOM     18  C   UNL     1       5.687   4.814  17.283  0.00  0.00    +0.000 C 
BRANCH  18  19
ATOM     19  C   UNL     1       6.673   5.949  17.670  0.00  0.00    +0.000 A 
ATOM     20  C   UNL     1       7.596   5.783  18.716  0.00  0.00    +0.000 A 
ATOM     21  C   UNL     1       8.422   6.835  19.125  0.00  0.00    +0.000 A 
ATOM     22  C   UNL     1       8.342   8.072  18.486  0.00  0.00    +0.000 A 
ATOM     23  C   UNL     1       7.468   8.243  17.418  0.00  0.00    +0.000 A 
ATOM     24  C   UNL     1       6.656   7.187  17.005  0.00  0.00    +0.000 A 
ENDBRANCH  18  19
BRANCH  18  25
ATOM     25  C   UNL     1       5.422   4.940  15.739  0.00  0.00    +0.000 C 
BRANCH  25  26
ATOM     26  N   UNL     1       6.185   4.082  14.819  0.00  0.00    +0.000 NA
ATOM     27  C   UNL     1       7.457   4.675  14.393  0.00  0.00    +0.000 C 
ATOM     28  C   UNL     1       7.324   4.956  12.913  0.00  0.00    +0.000 C 
ATOM     29  C   UNL     1       6.409   3.848  12.451  0.00  0.00    +0.000 C 
ATOM     30  C   UNL     1       5.436   3.706  13.612  0.00  0.00    +0.000 C 
ENDBRANCH  25  26
ENDBRANCH  18  25
ENDBRANCH   1  18
TORSDOF 8
ENDMDL
MODEL 3
REMARK VINA RESULT:      -8.4      0.731      1.198
REMARK  Name = 
REMARK  9 active torsions:
REMARK  status: ('A' for Active; 'I' for Inactive)
REMARK    1  A    between atoms: C_1  and  O_2
REMARK    2  A    between atoms: O_2  and  C_3
REMARK    3  A    between atoms: C_6  and  C_7
REMARK    4  A    between atoms: C_7  and  O_8
REMARK    5  A    between atoms: C_7  and  C_9
REMARK    6  A    between atoms: C_7  and  C_15
REMARK    7  A    between atoms: C_15  and  C_16
REMARK    8  A    between atoms: C_15  and  C_22
REMARK    9  A    between atoms: C_16  and  N_17
REMARK                            x       y       z     vdW  Elec       q    Type
REMARK                         _______ _______ _______ _____ _____    ______ ____
ROOT
ATOM      1  C   UNL     1       3.903   4.815  18.147  0.00  0.00    +0.000 C 
ENDROOT
BRANCH   1   5
ATOM      2  C   UNL     1       1.932   8.722  18.865  0.00  0.00    +0.000 A 
ATOM      3  C   UNL     1       2.061   7.809  19.916  0.00  0.00    +0.000 A 
ATOM      4  C   UNL     1       2.741   6.578  19.749  0.00  0.00    +0.000 A 
ATOM      5  C   UNL     1       3.274   6.201  18.503  0.00  0.00    +0.000 A 
ATOM      6  C   UNL     1       3.114   7.150  17.472  0.00  0.00    +0.000 A 
ATOM      7  C   UNL     1       2.505   8.398  17.648  0.00  0.00    +0.000 A 
BRANCH   2   9
ATOM      8  C   UNL     1       0.078   9.734  19.963  0.00  0.00    +0.000 C 
ATOM      9  O   UNL     1       1.219   9.863  19.112  0.00  0.00    +0.000 OA
ENDBRANCH   2   9
ENDBRANCH   1   5
BRANCH   1  10
ATOM     10  C   UNL     1       2.858   3.769  17.514  0.00  0.00    +0.000 C 
ATOM     11  C   UNL     1       3.139   2.252  17.667  0.00  0.00    +0.000 C 
ATOM     12  C   UNL     1       2.456   1.549  18.840  0.00  0.00    +0.000 C 
ATOM     13  C   UNL     1       1.001   1.947  19.035  0.00  0.00    +0.000 C 
ATOM     14  C   UNL     1       0.791   3.455  18.987  0.00  0.00    +0.000 C 
ATOM     15  C   UNL     1       1.361   4.050  17.713  0.00  0.00    +0.000 C 
ENDBRANCH   1  10
BRANCH   1  16
ATOM     16  O   UNL     1       4.232   4.198  19.419  0.00  0.00    +0.000 OA
ATOM     17  H   UNL     1       3.562   3.533  19.640  0.00  0.00    +0.000 HD
ENDBRANCH   1  16
BRANCH   1  18
ATOM     18  C   UNL     1       5.257   4.850  17.256  0.00  0.00    +0.000 C 
BRANCH  18  19
ATOM     19  C   UNL     1       6.310   5.877  17.754  0.00  0.00    +0.000 A 
ATOM     20  C   UNL     1       6.462   7.123  17.124  0.00  0.00    +0.000 A 
ATOM     21  C   UNL     1       7.470   8.011  17.514  0.00  0.00    +0.000 A 
ATOM     22  C   UNL     1       8.339   7.668  18.548  0.00  0.00    +0.000 A 
ATOM     23  C   UNL     1       8.175   6.459  19.216  0.00  0.00    +0.000 A 
ATOM     24  C   UNL     1       7.161   5.582  18.833  0.00  0.00    +0.000 A 
ENDBRANCH  18  19
BRANCH  18  25
ATOM     25  C   UNL     1       5.172   4.997  15.694  0.00  0.00    +0.000 C 
BRANCH  25  26
ATOM     26  N   UNL     1       5.990   4.107  14.855  0.00  0.00    +0.000 NA
ATOM     27  C   UNL     1       7.316   4.653  14.552  0.00  0.00    +0.000 C 
ATOM     28  C   UNL     1       7.336   4.928  13.065  0.00  0.00    +0.000 C 
ATOM     29  C   UNL     1       6.432   3.848  12.521  0.00  0.00    +0.000 C 
ATOM     30  C   UNL     1       5.348   3.747  13.584  0.00  0.00    +0.000 C 
ENDBRANCH  25  26
ENDBRANCH  18  25
ENDBRANCH   1  18
TORSDOF 8
ENDMDL
MODEL 4
REMARK VINA RESULT:      -7.9      1.170      1.832
REMARK  Name = 
REMARK  9 active torsions:
REMARK  status: ('A' for Active; 'I' for Inactive)
REMARK    1  A    between atoms: C_1  and  O_2
REMARK    2  A    between atoms: O_2  and  C_3
REMARK    3  A    between atoms: C_6  and  C_7
REMARK    4  A    between atoms: C_7  and  O_8
REMARK    5  A    between atoms: C_7  and  C_9
REMARK    6  A    between atoms: C_7  and  C_15
REMARK    7  A    between atoms: C_15  and  C_16
REMARK    8  A    between atoms: C_15  and  C_22
REMARK    9  A    between atoms: C_16  and  N_17
REMARK                            x       y       z     vdW  Elec       q    Type
REMARK                         _______ _______ _______ _____ _____    ______ ____
ROOT
ATOM      1  C   UNL     1       3.817   5.154  18.877  0.00  0.00    +0.000 C 
ENDROOT
BRANCH   1   5
ATOM      2  C   UNL     1       1.471   8.917  18.808  0.00  0.00    +0.000 A 
ATOM      3  C   UNL     1       1.972   8.393  17.613  0.00  0.00    +0.000 A 
ATOM      4  C   UNL     1       2.670   7.161  17.578  0.00  0.00    +0.000 A 
ATOM      5  C   UNL     1       2.930   6.435  18.755  0.00  0.00    +0.000 A 
ATOM      6  C   UNL     1       2.410   7.006  19.937  0.00  0.00    +0.000 A 
ATOM      7  C   UNL     1       1.660   8.187  19.969  0.00  0.00    +0.000 A 
BRANCH   2   9
ATOM      8  C   UNL     1       1.482  11.212  19.442  0.00  0.00    +0.000 C 
ATOM      9  O   UNL     1       0.852  10.135  18.745  0.00  0.00    +0.000 OA
ENDBRANCH   2   9
ENDBRANCH   1   5
BRANCH   1  10
ATOM     10  C   UNL     1       2.979   3.783  18.917  0.00  0.00    +0.000 C 
ATOM     11  C   UNL     1       3.428   2.665  19.893  0.00  0.00    +0.000 C 
ATOM     12  C   UNL     1       2.721   2.622  21.248  0.00  0.00    +0.000 C 
ATOM     13  C   UNL     1       1.216   2.824  21.165  0.00  0.00    +0.000 C 
ATOM     14  C   UNL     1       0.828   4.002  20.282  0.00  0.00    +0.000 C 
ATOM     15  C   UNL     1       1.447   3.884  18.902  0.00  0.00    +0.000 C 
ENDBRANCH   1  10
BRANCH   1  16
ATOM     16  O   UNL     1       4.396   5.206  20.206  0.00  0.00    +0.000 OA
ATOM     17  H   UNL     1       4.152   4.408  20.698  0.00  0.00    +0.000 HD
ENDBRANCH   1  16
BRANCH   1  18
ATOM     18  C   UNL     1       5.037   5.025  17.817  0.00  0.00    +0.000 C 
BRANCH  18  19
ATOM     19  C   UNL     1       6.161   6.077  18.022  0.00  0.00    +0.000 A 
ATOM     20  C   UNL     1       6.166   7.282  17.299  0.00  0.00    +0.000 A 
ATOM     21  C   UNL     1       7.225   8.189  17.416  0.00  0.00    +0.000 A 
ATOM     22  C   UNL     1       8.293   7.907  18.265  0.00  0.00    +0.000 A 
ATOM     23  C   UNL     1       8.284   6.742  19.024  0.00  0.00    +0.000 A 
ATOM     24  C   UNL     1       7.221   5.846  18.915  0.00  0.00    +0.000 A 
ENDBRANCH  18  19
BRANCH  18  25
ATOM     25  C   UNL     1       4.742   4.959  16.275  0.00  0.00    +0.000 C 
BRANCH  25  26
ATOM     26  N   UNL     1       5.531   4.038  15.443  0.00  0.00    +0.000 NA
ATOM     27  C   UNL     1       6.962   4.360  15.419  0.00  0.00    +0.000 C 
ATOM     28  C   UNL     1       7.278   4.799  14.008  0.00  0.00    +0.000 C 
ATOM     29  C   UNL     1       6.314   3.979  13.186  0.00  0.00    +0.000 C 
ATOM     30  C   UNL     1       5.064   3.957  14.053  0.00  0.00    +0.000 C 
ENDBRANCH  25  26
ENDBRANCH  18  25
ENDBRANCH   1  18
TORSDOF 8
ENDMDL
MODEL 5
REMARK VINA RESULT:      -7.6      2.047      5.860
REMARK  Name = 
REMARK  9 active torsions:
REMARK  status: ('A' for Active; 'I' for Inactive)
REMARK    1  A    between atoms: C_1  and  O_2
REMARK    2  A    between atoms: O_2  and  C_3
REMARK    3  A    between atoms: C_6  and  C_7
REMARK    4  A    between atoms: C_7  and  O_8
REMARK    5  A    between atoms: C_7  and  C_9
REMARK    6  A    between atoms: C_7  and  C_15
REMARK    7  A    between atoms: C_15  and  C_16
REMARK    8  A    between atoms: C_15  and  C_22
REMARK    9  A    between atoms: C_16  and  N_17
REMARK                            x       y       z     vdW  Elec       q    Type
REMARK                         _______ _______ _______ _____ _____    ______ ____
ROOT
ATOM      1  C   UNL     1       5.619   5.849  16.539  0.00  0.00    +0.000 C 
ENDROOT
BRANCH   1   5
ATOM      2  C   UNL     1       8.485   8.536  18.595  0.00  0.00    +0.000 A 
ATOM      3  C   UNL     1       7.614   9.059  17.635  0.00  0.00    +0.000 A 
ATOM      4  C   UNL     1       6.638   8.252  17.001  0.00  0.00    +0.000 A 
ATOM      5  C   UNL     1       6.536   6.876  17.277  0.00  0.00    +0.000 A 
ATOM      6  C   UNL     1       7.440   6.393  18.247  0.00  0.00    +0.000 A 
ATOM      7  C   UNL     1       8.359   7.199  18.928  0.00  0.00    +0.000 A 
BRANCH   2   9
ATOM      8  C   UNL     1       9.340  10.755  18.717  0.00  0.00    +0.000 C 
ATOM      9  O   UNL     1       9.422   9.385  19.117  0.00  0.00    +0.000 OA
ENDBRANCH   2   9
ENDBRANCH   1   5
BRANCH   1  10
ATOM     10  C   UNL     1       6.419   4.629  15.863  0.00  0.00    +0.000 C 
ATOM     11  C   UNL     1       5.615   3.543  15.103  0.00  0.00    +0.000 C 
ATOM     12  C   UNL     1       5.494   3.723  13.589  0.00  0.00    +0.000 C 
ATOM     13  C   UNL     1       6.789   4.143  12.912  0.00  0.00    +0.000 C 
ATOM     14  C   UNL     1       7.487   5.288  13.635  0.00  0.00    +0.000 C 
ATOM     15  C   UNL     1       7.709   4.960  15.100  0.00  0.00    +0.000 C 
ENDBRANCH   1  10
BRANCH   1  16
ATOM     16  O   UNL     1       5.093   6.556  15.385  0.00  0.00    +0.000 OA
ATOM     17  H   UNL     1       4.371   6.043  14.991  0.00  0.00    +0.000 HD
ENDBRANCH   1  16
BRANCH   1  18
ATOM     18  C   UNL     1       4.355   5.282  17.381  0.00  0.00    +0.000 C 
BRANCH  18  19
ATOM     19  C   UNL     1       3.501   6.390  18.055  0.00  0.00    +0.000 A 
ATOM     20  C   UNL     1       3.069   6.264  19.386  0.00  0.00    +0.000 A 
ATOM     21  C   UNL     1       2.225   7.218  19.964  0.00  0.00    +0.000 A 
ATOM     22  C   UNL     1       1.805   8.319  19.220  0.00  0.00    +0.000 A 
ATOM     23  C   UNL     1       2.259   8.486  17.916  0.00  0.00    +0.000 A 
ATOM     24  C   UNL     1       3.111   7.540  17.347  0.00  0.00    +0.000 A 
ENDBRANCH  18  19
BRANCH  18  25
ATOM     25  C   UNL     1       4.561   4.146  18.448  0.00  0.00    +0.000 C 
BRANCH  25  26
ATOM     26  N   UNL     1       3.691   2.962  18.396  0.00  0.00    +0.000 NA
ATOM     27  C   UNL     1       2.599   3.087  17.425  0.00  0.00    +0.000 C 
ATOM     28  C   UNL     1       1.318   3.134  18.225  0.00  0.00    +0.000 C 
ATOM     29  C   UNL     1       1.645   2.269  19.417  0.00  0.00    +0.000 C 
ATOM     30  C   UNL     1       3.101   2.611  19.695  0.00  0.00    +0.000 C 
ENDBRANCH  25  26
ENDBRANCH  18  25
ENDBRANCH   1  18
TORSDOF 8
ENDMDL
MODEL 6
REMARK VINA RESULT:      -7.5      1.270      2.385
REMARK  Name = 
REMARK  9 active torsions:
REMARK  status: ('A' for Active; 'I' for Inactive)
REMARK    1  A    between atoms: C_1  and  O_2
REMARK    2  A    between atoms: O_2  and  C_3
REMARK    3  A    between atoms: C_6  and  C_7
REMARK    4  A    between atoms: C_7  and  O_8
REMARK    5  A    between atoms: C_7  and  C_9
REMARK    6  A    between atoms: C_7  and  C_15
REMARK    7  A    between atoms: C_15  and  C_16
REMARK    8  A    between atoms: C_15  and  C_22
REMARK    9  A    between atoms: C_16  and  N_17
REMARK                            x       y       z     vdW  Elec       q    Type
REMARK                         _______ _______ _______ _____ _____    ______ ____
ROOT
ATOM      1  C   UNL     1       3.356   5.606  19.069  0.00  0.00    +0.000 C 
ENDROOT
BRANCH   1   5
ATOM      2  C   UNL     1       1.302   9.534  18.942  0.00  0.00    +0.000 A 
ATOM      3  C   UNL     1       1.903   9.030  17.785  0.00  0.00    +0.000 A 
ATOM      4  C   UNL     1       2.513   7.752  17.762  0.00  0.00    +0.000 A 
ATOM      5  C   UNL     1       2.580   6.954  18.919  0.00  0.00    +0.000 A 
ATOM      6  C   UNL     1       1.966   7.506  20.063  0.00  0.00    +0.000 A 
ATOM      7  C   UNL     1       1.301   8.738  20.074  0.00  0.00    +0.000 A 
BRANCH   2   9
ATOM      8  C   UNL     1       0.704  11.524  20.104  0.00  0.00    +0.000 C 
ATOM      9  O   UNL     1       0.780  10.797  18.876  0.00  0.00    +0.000 OA
ENDBRANCH   2   9
ENDBRANCH   1   5
BRANCH   1  10
ATOM     10  C   UNL     1       2.403   4.324  19.255  0.00  0.00    +0.000 C 
ATOM     11  C   UNL     1       1.790   3.664  17.993  0.00  0.00    +0.000 C 
ATOM     12  C   UNL     1       2.547   2.467  17.416  0.00  0.00    +0.000 C 
ATOM     13  C   UNL     1       3.042   1.486  18.468  0.00  0.00    +0.000 C 
ATOM     14  C   UNL     1       3.736   2.175  19.636  0.00  0.00    +0.000 C 
ATOM     15  C   UNL     1       2.850   3.243  20.250  0.00  0.00    +0.000 C 
ENDBRANCH   1  10
BRANCH   1  16
ATOM     16  O   UNL     1       4.028   5.685  20.353  0.00  0.00    +0.000 OA
ATOM     17  H   UNL     1       3.387   5.542  21.065  0.00  0.00    +0.000 HD
ENDBRANCH   1  16
BRANCH   1  18
ATOM     18  C   UNL     1       4.483   5.298  17.946  0.00  0.00    +0.000 C 
BRANCH  18  19
ATOM     19  C   UNL     1       5.821   6.052  18.175  0.00  0.00    +0.000 A 
ATOM     20  C   UNL     1       6.120   7.230  17.469  0.00  0.00    +0.000 A 
ATOM     21  C   UNL     1       7.361   7.860  17.609  0.00  0.00    +0.000 A 
ATOM     22  C   UNL     1       8.322   7.324  18.464  0.00  0.00    +0.000 A 
ATOM     23  C   UNL     1       8.029   6.185  19.207  0.00  0.00    +0.000 A 
ATOM     24  C   UNL     1       6.785   5.568  19.076  0.00  0.00    +0.000 A 
ENDBRANCH  18  19
BRANCH  18  25
ATOM     25  C   UNL     1       4.135   5.431  16.419  0.00  0.00    +0.000 C 
BRANCH  25  26
ATOM     26  N   UNL     1       4.854   4.584  15.455  0.00  0.00    +0.000 NA
ATOM     27  C   UNL     1       5.790   3.650  16.088  0.00  0.00    +0.000 C 
ATOM     28  C   UNL     1       7.177   4.090  15.680  0.00  0.00    +0.000 C 
ATOM     29  C   UNL     1       6.946   4.662  14.303  0.00  0.00    +0.000 C 
ATOM     30  C   UNL     1       5.596   5.349  14.443  0.00  0.00    +0.000 C 
ENDBRANCH  25  26
ENDBRANCH  18  25
ENDBRANCH   1  18
TORSDOF 8
ENDMDL
MODEL 7
REMARK VINA RESULT:      -7.3      1.464      2.415
REMARK  Name = 
REMARK  9 active torsions:
REMARK  status: ('A' for Active; 'I' for Inactive)
REMARK    1  A    between atoms: C_1  and  O_2
REMARK    2  A    between atoms: O_2  and  C_3
REMARK    3  A    between atoms: C_6  and  C_7
REMARK    4  A    between atoms: C_7  and  O_8
REMARK    5  A    between atoms: C_7  and  C_9
REMARK    6  A    between atoms: C_7  and  C_15
REMARK    7  A    between atoms: C_15  and  C_16
REMARK    8  A    between atoms: C_15  and  C_22
REMARK    9  A    between atoms: C_16  and  N_17
REMARK                            x       y       z     vdW  Elec       q    Type
REMARK                         _______ _______ _______ _____ _____    ______ ____
ROOT
ATOM      1  C   UNL     1       3.246   5.617  19.025  0.00  0.00    +0.000 C 
ENDROOT
BRANCH   1   5
ATOM      2  C   UNL     1       1.414   9.653  18.877  0.00  0.00    +0.000 A 
ATOM      3  C   UNL     1       1.982   9.109  17.722  0.00  0.00    +0.000 A 
ATOM      4  C   UNL     1       2.519   7.798  17.705  0.00  0.00    +0.000 A 
ATOM      5  C   UNL     1       2.546   7.006  18.868  0.00  0.00    +0.000 A 
ATOM      6  C   UNL     1       1.968   7.599  20.010  0.00  0.00    +0.000 A 
ATOM      7  C   UNL     1       1.372   8.866  20.015  0.00  0.00    +0.000 A 
BRANCH   2   9
ATOM      8  C   UNL     1       1.198  11.769  19.946  0.00  0.00    +0.000 C 
ATOM      9  O   UNL     1       0.963  10.943  18.804  0.00  0.00    +0.000 OA
ENDBRANCH   2   9
ENDBRANCH   1   5
BRANCH   1  10
ATOM     10  C   UNL     1       2.224   4.385  19.165  0.00  0.00    +0.000 C 
ATOM     11  C   UNL     1       2.743   2.952  18.881  0.00  0.00    +0.000 C 
ATOM     12  C   UNL     1       3.196   2.140  20.095  0.00  0.00    +0.000 C 
ATOM     13  C   UNL     1       2.267   2.252  21.293  0.00  0.00    +0.000 C 
ATOM     14  C   UNL     1       1.872   3.690  21.601  0.00  0.00    +0.000 C 
ATOM     15  C   UNL     1       1.285   4.373  20.380  0.00  0.00    +0.000 C 
ENDBRANCH   1  10
BRANCH   1  16
ATOM     16  O   UNL     1       3.881   5.647  20.330  0.00  0.00    +0.000 OA
ATOM     17  H   UNL     1       4.200   4.761  20.556  0.00  0.00    +0.000 HD
ENDBRANCH   1  16
BRANCH   1  18
ATOM     18  C   UNL     1       4.391   5.264  17.933  0.00  0.00    +0.000 C 
BRANCH  18  19
ATOM     19  C   UNL     1       5.734   6.008  18.168  0.00  0.00    +0.000 A 
ATOM     20  C   UNL     1       6.058   7.167  17.442  0.00  0.00    +0.000 A 
ATOM     21  C   UNL     1       7.304   7.785  17.588  0.00  0.00    +0.000 A 
ATOM     22  C   UNL     1       8.245   7.256  18.470  0.00  0.00    +0.000 A 
ATOM     23  C   UNL     1       7.927   6.137  19.231  0.00  0.00    +0.000 A 
ATOM     24  C   UNL     1       6.678   5.531  19.093  0.00  0.00    +0.000 A 
ENDBRANCH  18  19
BRANCH  18  25
ATOM     25  C   UNL     1       4.075   5.358  16.397  0.00  0.00    +0.000 C 
BRANCH  25  26
ATOM     26  N   UNL     1       4.836   4.511  15.466  0.00  0.00    +0.000 NA
ATOM     27  C   UNL     1       5.785   3.617  16.138  0.00  0.00    +0.000 C 
ATOM     28  C   UNL     1       7.167   4.088  15.747  0.00  0.00    +0.000 C 
ATOM     29  C   UNL     1       6.948   4.623  14.353  0.00  0.00    +0.000 C 
ATOM     30  C   UNL     1       5.576   5.274  14.452  0.00  0.00    +0.000 C 
ENDBRANCH  25  26
ENDBRANCH  18  25
ENDBRANCH   1  18
TORSDOF 8
ENDMDL
MODEL 8
REMARK VINA RESULT:      -7.3      1.292      1.810
REMARK  Name = 
REMARK  9 active torsions:
REMARK  status: ('A' for Active; 'I' for Inactive)
REMARK    1  A    between atoms: C_1  and  O_2
REMARK    2  A    between atoms: O_2  and  C_3
REMARK    3  A    between atoms: C_6  and  C_7
REMARK    4  A    between atoms: C_7  and  O_8
REMARK    5  A    between atoms: C_7  and  C_9
REMARK    6  A    between atoms: C_7  and  C_15
REMARK    7  A    between atoms: C_15  and  C_16
REMARK    8  A    between atoms: C_15  and  C_22
REMARK    9  A    between atoms: C_16  and  N_17
REMARK                            x       y       z     vdW  Elec       q    Type
REMARK                         _______ _______ _______ _____ _____    ______ ____
ROOT
ATOM      1  C   UNL     1       3.725   5.143  18.933  0.00  0.00    +0.000 C 
ENDROOT
BRANCH   1   5
ATOM      2  C   UNL     1       1.442   8.930  19.271  0.00  0.00    +0.000 A 
ATOM      3  C   UNL     1       1.903   8.510  18.020  0.00  0.00    +0.000 A 
ATOM      4  C   UNL     1       2.579   7.276  17.855  0.00  0.00    +0.000 A 
ATOM      5  C   UNL     1       2.856   6.442  18.953  0.00  0.00    +0.000 A 
ATOM      6  C   UNL     1       2.377   6.910  20.196  0.00  0.00    +0.000 A 
ATOM      7  C   UNL     1       1.648   8.094  20.355  0.00  0.00    +0.000 A 
BRANCH   2   9
ATOM      8  C   UNL     1      -0.570  10.193  19.117  0.00  0.00    +0.000 C 
ATOM      9  O   UNL     1       0.841  10.157  19.336  0.00  0.00    +0.000 OA
ENDBRANCH   2   9
ENDBRANCH   1   5
BRANCH   1  10
ATOM     10  C   UNL     1       2.869   3.786  19.027  0.00  0.00    +0.000 C 
ATOM     11  C   UNL     1       3.342   2.674  19.998  0.00  0.00    +0.000 C 
ATOM     12  C   UNL     1       2.692   2.658  21.382  0.00  0.00    +0.000 C 
ATOM     13  C   UNL     1       1.188   2.882  21.360  0.00  0.00    +0.000 C 
ATOM     14  C   UNL     1       0.781   4.056  20.479  0.00  0.00    +0.000 C 
ATOM     15  C   UNL     1       1.339   3.911  19.075  0.00  0.00    +0.000 C 
ENDBRANCH   1  10
BRANCH   1  16
ATOM     16  O   UNL     1       4.452   5.142  20.189  0.00  0.00    +0.000 OA
ATOM     17  H   UNL     1       5.321   4.734  20.061  0.00  0.00    +0.000 HD
ENDBRANCH   1  16
BRANCH   1  18
ATOM     18  C   UNL     1       4.814   5.028  17.738  0.00  0.00    +0.000 C 
BRANCH  18  19
ATOM     19  C   UNL     1       6.065   5.925  17.940  0.00  0.00    +0.000 A 
ATOM     20  C   UNL     1       7.080   5.563  18.843  0.00  0.00    +0.000 A 
ATOM     21  C   UNL     1       8.162   6.414  19.092  0.00  0.00    +0.000 A 
ATOM     22  C   UNL     1       8.250   7.640  18.434  0.00  0.00    +0.000 A 
ATOM     23  C   UNL     1       7.281   7.996  17.502  0.00  0.00    +0.000 A 
ATOM     24  C   UNL     1       6.211   7.139  17.247  0.00  0.00    +0.000 A 
ENDBRANCH  18  19
BRANCH  18  25
ATOM     25  C   UNL     1       4.366   5.192  16.241  0.00  0.00    +0.000 C 
BRANCH  25  26
ATOM     26  N   UNL     1       5.081   4.433  15.203  0.00  0.00    +0.000 NA
ATOM     27  C   UNL     1       6.216   3.665  15.724  0.00  0.00    +0.000 C 
ATOM     28  C   UNL     1       7.461   4.293  15.141  0.00  0.00    +0.000 C 
ATOM     29  C   UNL     1       6.981   4.785  13.798  0.00  0.00    +0.000 C 
ATOM     30  C   UNL     1       5.570   5.269  14.099  0.00  0.00    +0.000 C 
ENDBRANCH  25  26
ENDBRANCH  18  25
ENDBRANCH   1  18
TORSDOF 8
ENDMDL
MODEL 9
REMARK VINA RESULT:      -7.0      1.335      2.269
REMARK  Name = 
REMARK  9 active torsions:
REMARK  status: ('A' for Active; 'I' for Inactive)
REMARK    1  A    between atoms: C_1  and  O_2
REMARK    2  A    between atoms: O_2  and  C_3
REMARK    3  A    between atoms: C_6  and  C_7
REMARK    4  A    between atoms: C_7  and  O_8
REMARK    5  A    between atoms: C_7  and  C_9
REMARK    6  A    between atoms: C_7  and  C_15
REMARK    7  A    between atoms: C_15  and  C_16
REMARK    8  A    between atoms: C_15  and  C_22
REMARK    9  A    between atoms: C_16  and  N_17
REMARK                            x       y       z     vdW  Elec       q    Type
REMARK                         _______ _______ _______ _____ _____    ______ ____
ROOT
ATOM      1  C   UNL     1       3.140   5.663  19.056  0.00  0.00    +0.000 C 
ENDROOT
BRANCH   1   5
ATOM      2  C   UNL     1       1.463   9.752  18.693  0.00  0.00    +0.000 A 
ATOM      3  C   UNL     1       1.357   9.067  19.907  0.00  0.00    +0.000 A 
ATOM      4  C   UNL     1       1.935   7.786  20.088  0.00  0.00    +0.000 A 
ATOM      5  C   UNL     1       2.601   7.130  19.037  0.00  0.00    +0.000 A 
ATOM      6  C   UNL     1       2.677   7.857  17.830  0.00  0.00    +0.000 A 
ATOM      7  C   UNL     1       2.169   9.151  17.666  0.00  0.00    +0.000 A 
BRANCH   2   9
ATOM      8  C   UNL     1       1.669  12.120  18.556  0.00  0.00    +0.000 C 
ATOM      9  O   UNL     1       0.832  10.963  18.602  0.00  0.00    +0.000 OA
ENDBRANCH   2   9
ENDBRANCH   1   5
BRANCH   1  10
ATOM     10  C   UNL     1       1.987   4.544  19.022  0.00  0.00    +0.000 C 
ATOM     11  C   UNL     1       1.810   3.698  17.735  0.00  0.00    +0.000 C 
ATOM     12  C   UNL     1       2.514   2.341  17.712  0.00  0.00    +0.000 C 
ATOM     13  C   UNL     1       2.386   1.557  19.009  0.00  0.00    +0.000 C 
ATOM     14  C   UNL     1       2.677   2.405  20.240  0.00  0.00    +0.000 C 
ATOM     15  C   UNL     1       1.819   3.656  20.263  0.00  0.00    +0.000 C 
ENDBRANCH   1  10
BRANCH   1  16
ATOM     16  O   UNL     1       3.717   5.478  20.375  0.00  0.00    +0.000 OA
ATOM     17  H   UNL     1       3.084   5.016  20.944  0.00  0.00    +0.000 HD
ENDBRANCH   1  16
BRANCH   1  18
ATOM     18  C   UNL     1       4.288   5.308  17.967  0.00  0.00    +0.000 C 
BRANCH  18  19
ATOM     19  C   UNL     1       5.667   5.951  18.275  0.00  0.00    +0.000 A 
ATOM     20  C   UNL     1       6.103   7.096  17.587  0.00  0.00    +0.000 A 
ATOM     21  C   UNL     1       7.381   7.623  17.799  0.00  0.00    +0.000 A 
ATOM     22  C   UNL     1       8.243   7.015  18.710  0.00  0.00    +0.000 A 
ATOM     23  C   UNL     1       7.813   5.909  19.436  0.00  0.00    +0.000 A 
ATOM     24  C   UNL     1       6.533   5.394  19.231  0.00  0.00    +0.000 A 
ENDBRANCH  18  19
BRANCH  18  25
ATOM     25  C   UNL     1       4.014   5.515  16.434  0.00  0.00    +0.000 C 
BRANCH  25  26
ATOM     26  N   UNL     1       4.721   4.660  15.468  0.00  0.00    +0.000 NA
ATOM     27  C   UNL     1       5.582   3.658  16.103  0.00  0.00    +0.000 C 
ATOM     28  C   UNL     1       7.005   4.035  15.756  0.00  0.00    +0.000 C 
ATOM     29  C   UNL     1       6.854   4.659  14.390  0.00  0.00    +0.000 C 
ATOM     30  C   UNL     1       5.537   5.413  14.506  0.00  0.00    +0.000 C 
ENDBRANCH  25  26
ENDBRANCH  18  25
ENDBRANCH   1  18
TORSDOF 8
ENDMDL
