MODEL 1
REMARK VINA RESULT:      -6.5      0.000      0.000
REMARK  Name = 
REMARK  10 active torsions:
REMARK  status: ('A' for Active; 'I' for Inactive)
REMARK    1  A    between atoms: C_1  and  N_2
REMARK    2  A    between atoms: N_2  and  C_3
REMARK    3  A    between atoms: C_4  and  C_6
REMARK    4  A    between atoms: C_6  and  N_7
REMARK    5  A    between atoms: C_6  and  C_15
REMARK    6  A    between atoms: C_8  and  O_10
REMARK    7  A    between atoms: O_10  and  C_11
REMARK    8  A    between atoms: C_11  and  C_12
REMARK    9  A    between atoms: C_11  and  C_13
REMARK   10  A    between atoms: C_11  and  C_14
REMARK                            x       y       z     vdW  Elec       q    Type
REMARK                         _______ _______ _______ _____ _____    ______ ____
ROOT
ATOM      1  C   UNL     1       3.113   5.997  18.631  0.00  0.00    +0.000 C 
ENDROOT
BRANCH   1   2
ATOM      2  C   UNL     1       2.415   4.674  18.969  0.00  0.00    +0.000 A 
ATOM      3  C   UNL     1       1.608   4.647  20.131  0.00  0.00    +0.000 A 
ATOM      4  C   UNL     1       0.914   3.497  20.515  0.00  0.00    +0.000 A 
ATOM      5  C   UNL     1       1.029   2.337  19.761  0.00  0.00    +0.000 A 
ATOM      6  C   UNL     1       1.797   2.344  18.599  0.00  0.00    +0.000 A 
ATOM      7  C   UNL     1       2.458   3.510  18.184  0.00  0.00    +0.000 A 
ATOM      8 CL   UNL     1       3.265   3.429  16.656  0.00  0.00    +0.000 Cl
ENDBRANCH   1   2
BRANCH   1  12
ATOM      9  C   UNL     1       6.894   6.032  17.787  0.00  0.00    +0.000 C 
ATOM     10  N   UNL     1       5.456   6.202  17.646  0.00  0.00    +0.000 N 
ATOM     11  C   UNL     1       4.969   6.660  16.354  0.00  0.00    +0.000 C 
ATOM     12  C   UNL     1       4.665   5.887  18.753  0.00  0.00    +0.000 C 
ATOM     13  O   UNL     1       5.194   5.417  19.767  0.00  0.00    +0.000 OA
ENDBRANCH   1  12
BRANCH   1  14
ATOM     14  N   UNL     1       2.563   7.146  19.340  0.00  0.00    +0.000 N 
ATOM     15  C   UNL     1       2.057   8.230  18.693  0.00  0.00    +0.000 C 
ATOM     16  O   UNL     1       2.101   8.381  17.485  0.00  0.00    +0.000 OA
ATOM     17  H   UNL     1       2.334   7.050  20.320  0.00  0.00    +0.000 HD
BRANCH  15  18
ATOM     18  O   UNL     1       1.539   9.104  19.590  0.00  0.00    +0.000 OA
BRANCH  18  19
ATOM     19  C   UNL     1       0.945  10.348  19.121  0.00  0.00    +0.000 C 
ATOM     20  C   UNL     1      -0.331  10.074  18.319  0.00  0.00    +0.000 C 
ATOM     21  C   UNL     1       0.560  11.139  20.384  0.00  0.00    +0.000 C 
ATOM     22  C   UNL     1       1.958  11.191  18.335  0.00  0.00    +0.000 C 
ENDBRANCH  18  19
ENDBRANCH  15  18
ENDBRANCH   1  14
TORSDOF 5
ENDMDL
MODEL 2
REMARK VINA RESULT:      -6.5      1.202      1.612
REMARK  Name = 
REMARK  10 active torsions:
REMARK  status: ('A' for Active; 'I' for Inactive)
REMARK    1  A    between atoms: C_1  and  N_2
REMARK    2  A    between atoms: N_2  and  C_3
REMARK    3  A    between atoms: C_4  and  C_6
REMARK    4  A    between atoms: C_6  and  N_7
REMARK    5  A    between atoms: C_6  and  C_15
REMARK    6  A    between atoms: C_8  and  O_10
REMARK    7  A    between atoms: O_10  and  C_11
REMARK    8  A    between atoms: C_11  and  C_12
REMARK    9  A    between atoms: C_11  and  C_13
REMARK   10  A    between atoms: C_11  and  C_14
REMARK                            x       y       z     vdW  Elec       q    Type
REMARK                         _______ _______ _______ _____ _____    ______ ____
ROOT
ATOM      1  C   UNL     1       3.168   6.011  18.231  0.00  0.00    +0.000 C 
ENDROOT
BRANCH   1   2
ATOM      2  C   UNL     1       2.500   4.648  18.448  0.00  0.00    +0.000 A 
ATOM      3  C   UNL     1       2.782   3.631  17.505  0.00  0.00    +0.000 A 
ATOM      4  C   UNL     1       2.240   2.349  17.625  0.00  0.00    +0.000 A 
ATOM      5  C   UNL     1       1.382   2.057  18.677  0.00  0.00    +0.000 A 
ATOM      6  C   UNL     1       1.108   3.033  19.632  0.00  0.00    +0.000 A 
ATOM      7  C   UNL     1       1.687   4.308  19.542  0.00  0.00    +0.000 A 
ATOM      8 CL   UNL     1       1.378   5.383  20.861  0.00  0.00    +0.000 Cl
ENDBRANCH   1   2
BRANCH   1  12
ATOM      9  C   UNL     1       6.963   6.065  17.454  0.00  0.00    +0.000 C 
ATOM     10  N   UNL     1       5.526   6.204  17.279  0.00  0.00    +0.000 N 
ATOM     11  C   UNL     1       5.056   6.590  15.957  0.00  0.00    +0.000 C 
ATOM     12  C   UNL     1       4.720   5.932  18.386  0.00  0.00    +0.000 C 
ATOM     13  O   UNL     1       5.236   5.522  19.431  0.00  0.00    +0.000 OA
ENDBRANCH   1  12
BRANCH   1  14
ATOM     14  N   UNL     1       2.569   7.086  19.011  0.00  0.00    +0.000 N 
ATOM     15  C   UNL     1       2.205   8.274  18.456  0.00  0.00    +0.000 C 
ATOM     16  O   UNL     1       2.426   8.579  17.298  0.00  0.00    +0.000 OA
ATOM     17  H   UNL     1       2.199   6.877  19.928  0.00  0.00    +0.000 HD
BRANCH  15  18
ATOM     18  O   UNL     1       1.599   9.052  19.387  0.00  0.00    +0.000 OA
BRANCH  18  19
ATOM     19  C   UNL     1       0.826  10.212  18.962  0.00  0.00    +0.000 C 
ATOM     20  C   UNL     1      -0.235   9.812  17.932  0.00  0.00    +0.000 C 
ATOM     21  C   UNL     1       0.106  10.728  20.220  0.00  0.00    +0.000 C 
ATOM     22  C   UNL     1       1.738  11.336  18.453  0.00  0.00    +0.000 C 
ENDBRANCH  18  19
ENDBRANCH  15  18
ENDBRANCH   1  14
TORSDOF 5
ENDMDL
MODEL 3
REMARK VINA RESULT:      -6.4      1.701      4.875
REMARK  Name = 
REMARK  10 active torsions:
REMARK  status: ('A' for Active; 'I' for Inactive)
REMARK    1  A    between atoms: C_1  and  N_2
REMARK    2  A    between atoms: N_2  and  C_3
REMARK    3  A    between atoms: C_4  and  C_6
REMARK    4  A    between atoms: C_6  and  N_7
REMARK    5  A    between atoms: C_6  and  C_15
REMARK    6  A    between atoms: C_8  and  O_10
REMARK    7  A    between atoms: O_10  and  C_11
REMARK    8  A    between atoms: C_11  and  C_12
REMARK    9  A    between atoms: C_11  and  C_13
REMARK   10  A    between atoms: C_11  and  C_14
REMARK                            x       y       z     vdW  Elec       q    Type
REMARK                         _______ _______ _______ _____ _____    ______ ____
ROOT
ATOM      1  C   UNL     1       2.993   6.257  19.803  0.00  0.00    +0.000 C 
ENDROOT
BRANCH   1   2
ATOM      2  C   UNL     1       2.336   4.888  20.015  0.00  0.00    +0.000 A 
ATOM      3  C   UNL     1       2.393   4.338  21.317  0.00  0.00    +0.000 A 
ATOM      4  C   UNL     1       1.807   3.106  21.619  0.00  0.00    +0.000 A 
ATOM      5  C   UNL     1       1.170   2.381  20.621  0.00  0.00    +0.000 A 
ATOM      6  C   UNL     1       1.079   2.911  19.336  0.00  0.00    +0.000 A 
ATOM      7  C   UNL     1       1.625   4.169  19.039  0.00  0.00    +0.000 A 
ATOM      8 CL   UNL     1       1.326   4.777  17.448  0.00  0.00    +0.000 Cl
ENDBRANCH   1   2
BRANCH   1  12
ATOM      9  C   UNL     1       0.934   9.485  19.215  0.00  0.00    +0.000 C 
ATOM     10  N   UNL     1       1.851   8.382  18.976  0.00  0.00    +0.000 N 
ATOM     11  C   UNL     1       2.573   8.385  17.714  0.00  0.00    +0.000 C 
ATOM     12  C   UNL     1       1.978   7.428  19.988  0.00  0.00    +0.000 C 
ATOM     13  O   UNL     1       1.376   7.588  21.057  0.00  0.00    +0.000 OA
ENDBRANCH   1  12
BRANCH   1  14
ATOM     14  N   UNL     1       3.757   6.353  18.565  0.00  0.00    +0.000 N 
ATOM     15  C   UNL     1       5.031   5.887  18.456  0.00  0.00    +0.000 C 
ATOM     16  O   UNL     1       5.672   5.438  19.389  0.00  0.00    +0.000 OA
ATOM     17  H   UNL     1       3.268   6.555  17.704  0.00  0.00    +0.000 HD
BRANCH  15  18
ATOM     18  O   UNL     1       5.466   6.027  17.179  0.00  0.00    +0.000 OA
BRANCH  18  19
ATOM     19  C   UNL     1       5.783   4.841  16.394  0.00  0.00    +0.000 C 
ATOM     20  C   UNL     1       4.789   3.713  16.687  0.00  0.00    +0.000 C 
ATOM     21  C   UNL     1       5.624   5.253  14.920  0.00  0.00    +0.000 C 
ATOM     22  C   UNL     1       7.239   4.405  16.602  0.00  0.00    +0.000 C 
ENDBRANCH  18  19
ENDBRANCH  15  18
ENDBRANCH   1  14
TORSDOF 5
ENDMDL
MODEL 4
REMARK VINA RESULT:      -6.4      2.316      5.724
REMARK  Name = 
REMARK  10 active torsions:
REMARK  status: ('A' for Active; 'I' for Inactive)
REMARK    1  A    between atoms: C_1  and  N_2
REMARK    2  A    between atoms: N_2  and  C_3
REMARK    3  A    between atoms: C_4  and  C_6
REMARK    4  A    between atoms: C_6  and  N_7
REMARK    5  A    between atoms: C_6  and  C_15
REMARK    6  A    between atoms: C_8  and  O_10
REMARK    7  A    between atoms: O_10  and  C_11
REMARK    8  A    between atoms: C_11  and  C_12
REMARK    9  A    between atoms: C_11  and  C_13
REMARK   10  A    between atoms: C_11  and  C_14
REMARK                            x       y       z     vdW  Elec       q    Type
REMARK                         _______ _______ _______ _____ _____    ______ ____
ROOT
ATOM      1  C   UNL     1       2.753   5.772  19.582  0.00  0.00    +0.000 C 
ENDROOT
BRANCH   1   2
ATOM      2  C   UNL     1       2.009   7.094  19.809  0.00  0.00    +0.000 A 
ATOM      3  C   UNL     1       1.342   7.255  21.047  0.00  0.00    +0.000 A 
ATOM      4  C   UNL     1       0.654   8.430  21.360  0.00  0.00    +0.000 A 
ATOM      5  C   UNL     1       0.593   9.463  20.434  0.00  0.00    +0.000 A 
ATOM      6  C   UNL     1       1.261   9.338  19.219  0.00  0.00    +0.000 A 
ATOM      7  C   UNL     1       1.994   8.179  18.919  0.00  0.00    +0.000 A 
ATOM      8 CL   UNL     1       2.890   8.203  17.440  0.00  0.00    +0.000 Cl
ENDBRANCH   1   2
BRANCH   1  12
ATOM      9  C   UNL     1       0.868   2.587  20.727  0.00  0.00    +0.000 C 
ATOM     10  N   UNL     1       1.429   3.609  19.859  0.00  0.00    +0.000 N 
ATOM     11  C   UNL     1       1.138   3.502  18.437  0.00  0.00    +0.000 C 
ATOM     12  C   UNL     1       2.179   4.619  20.465  0.00  0.00    +0.000 C 
ATOM     13  O   UNL     1       2.277   4.650  21.698  0.00  0.00    +0.000 OA
ENDBRANCH   1  12
BRANCH   1  14
ATOM     14  N   UNL     1       4.203   5.894  19.673  0.00  0.00    +0.000 N 
ATOM     15  C   UNL     1       5.047   4.970  19.139  0.00  0.00    +0.000 C 
ATOM     16  O   UNL     1       4.678   3.928  18.628  0.00  0.00    +0.000 OA
ATOM     17  H   UNL     1       4.602   6.786  19.927  0.00  0.00    +0.000 HD
BRANCH  15  18
ATOM     18  O   UNL     1       6.332   5.376  19.293  0.00  0.00    +0.000 OA
BRANCH  18  19
ATOM     19  C   UNL     1       7.094   5.804  18.128  0.00  0.00    +0.000 C 
ATOM     20  C   UNL     1       6.208   6.586  17.154  0.00  0.00    +0.000 C 
ATOM     21  C   UNL     1       8.183   6.754  18.658  0.00  0.00    +0.000 C 
ATOM     22  C   UNL     1       7.798   4.619  17.453  0.00  0.00    +0.000 C 
ENDBRANCH  18  19
ENDBRANCH  15  18
ENDBRANCH   1  14
TORSDOF 5
ENDMDL
MODEL 5
REMARK VINA RESULT:      -6.4      0.435      1.093
REMARK  Name = 
REMARK  10 active torsions:
REMARK  status: ('A' for Active; 'I' for Inactive)
REMARK    1  A    between atoms: C_1  and  N_2
REMARK    2  A    between atoms: N_2  and  C_3
REMARK    3  A    between atoms: C_4  and  C_6
REMARK    4  A    between atoms: C_6  and  N_7
REMARK    5  A    between atoms: C_6  and  C_15
REMARK    6  A    between atoms: C_8  and  O_10
REMARK    7  A    between atoms: O_10  and  C_11
REMARK    8  A    between atoms: C_11  and  C_12
REMARK    9  A    between atoms: C_11  and  C_13
REMARK   10  A    between atoms: C_11  and  C_14
REMARK                            x       y       z     vdW  Elec       q    Type
REMARK                         _______ _______ _______ _____ _____    ______ ____
ROOT
ATOM      1  C   UNL     1       3.168   5.999  18.404  0.00  0.00    +0.000 C 
ENDROOT
BRANCH   1   2
ATOM      2  C   UNL     1       2.515   4.626  18.601  0.00  0.00    +0.000 A 
ATOM      3  C   UNL     1       1.523   4.520  19.606  0.00  0.00    +0.000 A 
ATOM      4  C   UNL     1       0.854   3.319  19.850  0.00  0.00    +0.000 A 
ATOM      5  C   UNL     1       1.175   2.186  19.115  0.00  0.00    +0.000 A 
ATOM      6  C   UNL     1       2.130   2.269  18.104  0.00  0.00    +0.000 A 
ATOM      7  C   UNL     1       2.772   3.485  17.823  0.00  0.00    +0.000 A 
ATOM      8 CL   UNL     1       3.833   3.492  16.458  0.00  0.00    +0.000 Cl
ENDBRANCH   1   2
BRANCH   1  12
ATOM      9  C   UNL     1       6.986   6.178  17.771  0.00  0.00    +0.000 C 
ATOM     10  N   UNL     1       5.553   6.295  17.551  0.00  0.00    +0.000 N 
ATOM     11  C   UNL     1       5.121   6.742  16.236  0.00  0.00    +0.000 C 
ATOM     12  C   UNL     1       4.714   5.946  18.611  0.00  0.00    +0.000 C 
ATOM     13  O   UNL     1       5.203   5.491  19.652  0.00  0.00    +0.000 OA
ENDBRANCH   1  12
BRANCH   1  14
ATOM     14  N   UNL     1       2.526   7.066  19.161  0.00  0.00    +0.000 N 
ATOM     15  C   UNL     1       2.161   8.247  18.592  0.00  0.00    +0.000 C 
ATOM     16  O   UNL     1       2.417   8.555  17.442  0.00  0.00    +0.000 OA
ATOM     17  H   UNL     1       2.128   6.852  20.065  0.00  0.00    +0.000 HD
BRANCH  15  18
ATOM     18  O   UNL     1       1.511   9.016  19.501  0.00  0.00    +0.000 OA
BRANCH  18  19
ATOM     19  C   UNL     1       0.762  10.182  19.050  0.00  0.00    +0.000 C 
ATOM     20  C   UNL     1       1.704  11.252  18.491  0.00  0.00    +0.000 C 
ATOM     21  C   UNL     1      -0.142   9.690  17.907  0.00  0.00    +0.000 C 
ATOM     22  C   UNL     1      -0.146  10.727  20.161  0.00  0.00    +0.000 C 
ENDBRANCH  18  19
ENDBRANCH  15  18
ENDBRANCH   1  14
TORSDOF 5
ENDMDL
MODEL 6
REMARK VINA RESULT:      -6.3      1.250      1.439
REMARK  Name = 
REMARK  10 active torsions:
REMARK  status: ('A' for Active; 'I' for Inactive)
REMARK    1  A    between atoms: C_1  and  N_2
REMARK    2  A    between atoms: N_2  and  C_3
REMARK    3  A    between atoms: C_4  and  C_6
REMARK    4  A    between atoms: C_6  and  N_7
REMARK    5  A    between atoms: C_6  and  C_15
REMARK    6  A    between atoms: C_8  and  O_10
REMARK    7  A    between atoms: O_10  and  C_11
REMARK    8  A    between atoms: C_11  and  C_12
REMARK    9  A    between atoms: C_11  and  C_13
REMARK   10  A    between atoms: C_11  and  C_14
REMARK                            x       y       z     vdW  Elec       q    Type
REMARK                         _______ _______ _______ _____ _____    ______ ____
ROOT
ATOM      1  C   UNL     1       3.295   5.825  19.105  0.00  0.00    +0.000 C 
ENDROOT
BRANCH   1   2
ATOM      2  C   UNL     1       2.625   4.529  19.577  0.00  0.00    +0.000 A 
ATOM      3  C   UNL     1       2.229   4.463  20.933  0.00  0.00    +0.000 A 
ATOM      4  C   UNL     1       1.592   3.335  21.456  0.00  0.00    +0.000 A 
ATOM      5  C   UNL     1       1.358   2.234  20.643  0.00  0.00    +0.000 A 
ATOM      6  C   UNL     1       1.716   2.283  19.298  0.00  0.00    +0.000 A 
ATOM      7  C   UNL     1       2.314   3.432  18.757  0.00  0.00    +0.000 A 
ATOM      8 CL   UNL     1       2.585   3.420  17.049  0.00  0.00    +0.000 Cl
ENDBRANCH   1   2
BRANCH   1  12
ATOM      9  C   UNL     1       6.869   5.833  17.610  0.00  0.00    +0.000 C 
ATOM     10  N   UNL     1       5.439   6.058  17.742  0.00  0.00    +0.000 N 
ATOM     11  C   UNL     1       4.756   6.656  16.606  0.00  0.00    +0.000 C 
ATOM     12  C   UNL     1       4.839   5.659  18.938  0.00  0.00    +0.000 C 
ATOM     13  O   UNL     1       5.513   5.075  19.795  0.00  0.00    +0.000 OA
ENDBRANCH   1  12
BRANCH   1  14
ATOM     14  N   UNL     1       2.928   6.994  19.895  0.00  0.00    +0.000 N 
ATOM     15  C   UNL     1       2.107   7.968  19.419  0.00  0.00    +0.000 C 
ATOM     16  O   UNL     1       1.684   8.002  18.277  0.00  0.00    +0.000 OA
ATOM     17  H   UNL     1       3.089   6.979  20.893  0.00  0.00    +0.000 HD
BRANCH  15  18
ATOM     18  O   UNL     1       1.867   8.885  20.389  0.00  0.00    +0.000 OA
BRANCH  18  19
ATOM     19  C   UNL     1       0.522   9.024  20.929  0.00  0.00    +0.000 C 
ATOM     20  C   UNL     1      -0.127   7.652  21.134  0.00  0.00    +0.000 C 
ATOM     21  C   UNL     1       0.683   9.691  22.306  0.00  0.00    +0.000 C 
ATOM     22  C   UNL     1      -0.338   9.952  20.060  0.00  0.00    +0.000 C 
ENDBRANCH  18  19
ENDBRANCH  15  18
ENDBRANCH   1  14
TORSDOF 5
ENDMDL
MODEL 7
REMARK VINA RESULT:      -6.3      1.307      1.670
REMARK  Name = 
REMARK  10 active torsions:
REMARK  status: ('A' for Active; 'I' for Inactive)
REMARK    1  A    between atoms: C_1  and  N_2
REMARK    2  A    between atoms: N_2  and  C_3
REMARK    3  A    between atoms: C_4  and  C_6
REMARK    4  A    between atoms: C_6  and  N_7
REMARK    5  A    between atoms: C_6  and  C_15
REMARK    6  A    between atoms: C_8  and  O_10
REMARK    7  A    between atoms: O_10  and  C_11
REMARK    8  A    between atoms: C_11  and  C_12
REMARK    9  A    between atoms: C_11  and  C_13
REMARK   10  A    between atoms: C_11  and  C_14
REMARK                            x       y       z     vdW  Elec       q    Type
REMARK                         _______ _______ _______ _____ _____    ______ ____
ROOT
ATOM      1  C   UNL     1       3.015   5.912  19.155  0.00  0.00    +0.000 C 
ENDROOT
BRANCH   1   2
ATOM      2  C   UNL     1       2.294   4.563  19.261  0.00  0.00    +0.000 A 
ATOM      3  C   UNL     1       1.527   4.330  20.428  0.00  0.00    +0.000 A 
ATOM      4  C   UNL     1       0.816   3.142  20.612  0.00  0.00    +0.000 A 
ATOM      5  C   UNL     1       0.873   2.145  19.647  0.00  0.00    +0.000 A 
ATOM      6  C   UNL     1       1.602   2.359  18.479  0.00  0.00    +0.000 A 
ATOM      7  C   UNL     1       2.279   3.570  18.268  0.00  0.00    +0.000 A 
ATOM      8 CL   UNL     1       3.031   3.767  16.723  0.00  0.00    +0.000 Cl
ENDBRANCH   1   2
BRANCH   1  12
ATOM      9  C   UNL     1       6.612   6.031  17.723  0.00  0.00    +0.000 C 
ATOM     10  N   UNL     1       5.184   6.263  17.859  0.00  0.00    +0.000 N 
ATOM     11  C   UNL     1       4.529   7.000  16.789  0.00  0.00    +0.000 C 
ATOM     12  C   UNL     1       4.558   5.740  18.993  0.00  0.00    +0.000 C 
ATOM     13  O   UNL     1       5.210   5.050  19.786  0.00  0.00    +0.000 OA
ENDBRANCH   1  12
BRANCH   1  14
ATOM     14  N   UNL     1       2.652   6.853  20.207  0.00  0.00    +0.000 N 
ATOM     15  C   UNL     1       2.023   8.032  19.947  0.00  0.00    +0.000 C 
ATOM     16  O   UNL     1       1.793   8.446  18.825  0.00  0.00    +0.000 OA
ATOM     17  H   UNL     1       2.651   6.536  21.166  0.00  0.00    +0.000 HD
BRANCH  15  18
ATOM     18  O   UNL     1       1.731   8.665  21.110  0.00  0.00    +0.000 OA
BRANCH  18  19
ATOM     19  C   UNL     1       0.363   9.093  21.370  0.00  0.00    +0.000 C 
ATOM     20  C   UNL     1      -0.082  10.145  20.350  0.00  0.00    +0.000 C 
ATOM     21  C   UNL     1      -0.516   7.844  21.188  0.00  0.00    +0.000 C 
ATOM     22  C   UNL     1       0.193   9.576  22.817  0.00  0.00    +0.000 C 
ENDBRANCH  18  19
ENDBRANCH  15  18
ENDBRANCH   1  14
TORSDOF 5
ENDMDL
MODEL 8
REMARK VINA RESULT:      -6.2      1.962      4.944
REMARK  Name = 
REMARK  10 active torsions:
REMARK  status: ('A' for Active; 'I' for Inactive)
REMARK    1  A    between atoms: C_1  and  N_2
REMARK    2  A    between atoms: N_2  and  C_3
REMARK    3  A    between atoms: C_4  and  C_6
REMARK    4  A    between atoms: C_6  and  N_7
REMARK    5  A    between atoms: C_6  and  C_15
REMARK    6  A    between atoms: C_8  and  O_10
REMARK    7  A    between atoms: O_10  and  C_11
REMARK    8  A    between atoms: C_11  and  C_12
REMARK    9  A    between atoms: C_11  and  C_13
REMARK   10  A    between atoms: C_11  and  C_14
REMARK                            x       y       z     vdW  Elec       q    Type
REMARK                         _______ _______ _______ _____ _____    ______ ____
ROOT
ATOM      1  C   UNL     1       3.036   5.973  19.708  0.00  0.00    +0.000 C 
ENDROOT
BRANCH   1   2
ATOM      2  C   UNL     1       2.211   4.714  19.415  0.00  0.00    +0.000 A 
ATOM      3  C   UNL     1       1.836   4.485  18.070  0.00  0.00    +0.000 A 
ATOM      4  C   UNL     1       1.102   3.357  17.696  0.00  0.00    +0.000 A 
ATOM      5  C   UNL     1       0.702   2.441  18.660  0.00  0.00    +0.000 A 
ATOM      6  C   UNL     1       1.079   2.631  19.987  0.00  0.00    +0.000 A 
ATOM      7  C   UNL     1       1.857   3.738  20.361  0.00  0.00    +0.000 A 
ATOM      8 CL   UNL     1       2.374   3.787  22.010  0.00  0.00    +0.000 Cl
ENDBRANCH   1   2
BRANCH   1  12
ATOM      9  C   UNL     1       1.234   9.360  19.168  0.00  0.00    +0.000 C 
ATOM     10  N   UNL     1       2.043   8.181  18.904  0.00  0.00    +0.000 N 
ATOM     11  C   UNL     1       2.709   8.112  17.613  0.00  0.00    +0.000 C 
ATOM     12  C   UNL     1       2.131   7.228  19.921  0.00  0.00    +0.000 C 
ATOM     13  O   UNL     1       1.591   7.447  21.012  0.00  0.00    +0.000 OA
ENDBRANCH   1  12
BRANCH   1  14
ATOM     14  N   UNL     1       4.114   6.201  18.753  0.00  0.00    +0.000 N 
ATOM     15  C   UNL     1       5.230   5.424  18.714  0.00  0.00    +0.000 C 
ATOM     16  O   UNL     1       5.471   4.541  19.518  0.00  0.00    +0.000 OA
ATOM     17  H   UNL     1       3.939   6.792  17.952  0.00  0.00    +0.000 HD
BRANCH  15  18
ATOM     18  O   UNL     1       6.021   5.803  17.680  0.00  0.00    +0.000 OA
BRANCH  18  19
ATOM     19  C   UNL     1       5.892   5.132  16.394  0.00  0.00    +0.000 C 
ATOM     20  C   UNL     1       4.925   3.948  16.491  0.00  0.00    +0.000 C 
ATOM     21  C   UNL     1       5.287   6.170  15.432  0.00  0.00    +0.000 C 
ATOM     22  C   UNL     1       7.262   4.723  15.836  0.00  0.00    +0.000 C 
ENDBRANCH  18  19
ENDBRANCH  15  18
ENDBRANCH   1  14
TORSDOF 5
ENDMDL
MODEL 9
REMARK VINA RESULT:      -6.2      2.288      5.713
REMARK  Name = 
REMARK  10 active torsions:
REMARK  status: ('A' for Active; 'I' for Inactive)
REMARK    1  A    between atoms: C_1  and  N_2
REMARK    2  A    between atoms: N_2  and  C_3
REMARK    3  A    between atoms: C_4  and  C_6
REMARK    4  A    between atoms: C_6  and  N_7
REMARK    5  A    between atoms: C_6  and  C_15
REMARK    6  A    between atoms: C_8  and  O_10
REMARK    7  A    between atoms: O_10  and  C_11
REMARK    8  A    between atoms: C_11  and  C_12
REMARK    9  A    between atoms: C_11  and  C_13
REMARK   10  A    between atoms: C_11  and  C_14
REMARK                            x       y       z     vdW  Elec       q    Type
REMARK                         _______ _______ _______ _____ _____    ______ ____
ROOT
ATOM      1  C   UNL     1       2.698   5.742  19.512  0.00  0.00    +0.000 C 
ENDROOT
BRANCH   1   2
ATOM      2  C   UNL     1       1.986   7.073  19.785  0.00  0.00    +0.000 A 
ATOM      3  C   UNL     1       1.359   7.223  21.044  0.00  0.00    +0.000 A 
ATOM      4  C   UNL     1       0.701   8.404  21.399  0.00  0.00    +0.000 A 
ATOM      5  C   UNL     1       0.632   9.455  20.494  0.00  0.00    +0.000 A 
ATOM      6  C   UNL     1       1.262   9.341  19.257  0.00  0.00    +0.000 A 
ATOM      7  C   UNL     1       1.964   8.175  18.915  0.00  0.00    +0.000 A 
ATOM      8 CL   UNL     1       2.816   8.210  17.410  0.00  0.00    +0.000 Cl
ENDBRANCH   1   2
BRANCH   1  12
ATOM      9  C   UNL     1       1.132   2.601  21.152  0.00  0.00    +0.000 C 
ATOM     10  N   UNL     1       1.519   3.569  20.138  0.00  0.00    +0.000 N 
ATOM     11  C   UNL     1       1.029   3.342  18.787  0.00  0.00    +0.000 C 
ATOM     12  C   UNL     1       2.307   4.646  20.552  0.00  0.00    +0.000 C 
ATOM     13  O   UNL     1       2.581   4.776  21.750  0.00  0.00    +0.000 OA
ENDBRANCH   1  12
BRANCH   1  14
ATOM     14  N   UNL     1       4.139   5.876  19.337  0.00  0.00    +0.000 N 
ATOM     15  C   UNL     1       4.876   4.970  18.639  0.00  0.00    +0.000 C 
ATOM     16  O   UNL     1       4.426   3.935  18.183  0.00  0.00    +0.000 OA
ATOM     17  H   UNL     1       4.574   6.767  19.531  0.00  0.00    +0.000 HD
BRANCH  15  18
ATOM     18  O   UNL     1       6.165   5.385  18.562  0.00  0.00    +0.000 OA
BRANCH  18  19
ATOM     19  C   UNL     1       6.689   5.873  17.293  0.00  0.00    +0.000 C 
ATOM     20  C   UNL     1       7.633   7.059  17.514  0.00  0.00    +0.000 C 
ATOM     21  C   UNL     1       7.503   4.713  16.695  0.00  0.00    +0.000 C 
ATOM     22  C   UNL     1       5.557   6.204  16.311  0.00  0.00    +0.000 C 
ENDBRANCH  18  19
ENDBRANCH  15  18
ENDBRANCH   1  14
TORSDOF 5
ENDMDL
