MODEL 1
REMARK VINA RESULT:      -7.1      0.000      0.000
REMARK  Name = 
REMARK  9 active torsions:
REMARK  status: ('A' for Active; 'I' for Inactive)
REMARK    1  A    between atoms: C_1  and  C_2
REMARK    2  A    between atoms: C_2  and  C_3
REMARK    3  A    between atoms: C_2  and  C_4
REMARK    4  A    between atoms: C_4  and  N_5
REMARK    5  A    between atoms: N_5  and  C_6
REMARK    6  A    between atoms: N_5  and  S_11
REMARK    7  A    between atoms: C_6  and  C_7
REMARK    8  A    between atoms: N_9  and  O_10
REMARK    9  A    between atoms: S_11  and  C_14
REMARK                            x       y       z     vdW  Elec       q    Type
REMARK                         _______ _______ _______ _____ _____    ______ ____
ROOT
ATOM      1  N   UNL     1       5.771   4.545  16.907  0.00  0.00    +0.000 NA
ENDROOT
BRANCH   1   2
ATOM      2  S   UNL     1       4.622   4.010  18.077  0.00  0.00    +0.000 S 
ATOM      3  O   UNL     1       3.727   3.084  17.411  0.00  0.00    +0.000 OA
ATOM      4  O   UNL     1       5.354   3.607  19.253  0.00  0.00    +0.000 OA
BRANCH   2   5
ATOM      5  C   UNL     1       3.700   5.479  18.454  0.00  0.00    +0.000 A 
ATOM      6  C   UNL     1       3.715   6.547  17.548  0.00  0.00    +0.000 A 
ATOM      7  C   UNL     1       2.977   7.697  17.834  0.00  0.00    +0.000 A 
ATOM      8  C   UNL     1       2.231   7.771  19.012  0.00  0.00    +0.000 A 
ATOM      9 CL   UNL     1       1.320   9.189  19.357  0.00  0.00    +0.000 Cl
ATOM     10  C   UNL     1       2.213   6.703  19.911  0.00  0.00    +0.000 A 
ATOM     11  C   UNL     1       2.948   5.549  19.631  0.00  0.00    +0.000 A 
ENDBRANCH   2   5
ENDBRANCH   1   2
BRANCH   1  12
ATOM     12  C   UNL     1       7.125   4.811  17.505  0.00  0.00    +0.000 C 
BRANCH  12  14
ATOM     13  C   UNL     1       8.196   5.884  19.563  0.00  0.00    +0.000 C 
ATOM     14  C   UNL     1       7.211   6.055  18.405  0.00  0.00    +0.000 C 
ATOM     15  C   UNL     1       7.648   7.262  17.562  0.00  0.00    +0.000 C 
ENDBRANCH  12  14
ENDBRANCH   1  12
BRANCH   1  16
ATOM     16  C   UNL     1       5.770   3.652  15.706  0.00  0.00    +0.000 C 
BRANCH  16  17
ATOM     17  C   UNL     1       6.339   4.253  14.432  0.00  0.00    +0.000 C 
ATOM     18  O   UNL     1       6.797   5.394  14.374  0.00  0.00    +0.000 OA
ATOM     19  N   UNL     1       6.282   3.437  13.321  0.00  0.00    +0.000 N 
ATOM     20  H   UNL     1       6.292   2.423  13.399  0.00  0.00    +0.000 HD
BRANCH  19  21
ATOM     21  O   UNL     1       6.900   3.966  12.159  0.00  0.00    +0.000 OA
ATOM     22  H   UNL     1       6.249   3.755  11.453  0.00  0.00    +0.000 HD
ENDBRANCH  19  21
ENDBRANCH  16  17
ENDBRANCH   1  16
TORSDOF 7
ENDMDL
MODEL 2
REMARK VINA RESULT:      -7.0      0.736      1.418
REMARK  Name = 
REMARK  9 active torsions:
REMARK  status: ('A' for Active; 'I' for Inactive)
REMARK    1  A    between atoms: C_1  and  C_2
REMARK    2  A    between atoms: C_2  and  C_3
REMARK    3  A    between atoms: C_2  and  C_4
REMARK    4  A    between atoms: C_4  and  N_5
REMARK    5  A    between atoms: N_5  and  C_6
REMARK    6  A    between atoms: N_5  and  S_11
REMARK    7  A    between atoms: C_6  and  C_7
REMARK    8  A    between atoms: N_9  and  O_10
REMARK    9  A    between atoms: S_11  and  C_14
REMARK                            x       y       z     vdW  Elec       q    Type
REMARK                         _______ _______ _______ _____ _____    ______ ____
ROOT
ATOM      1  N   UNL     1       5.825   4.519  16.966  0.00  0.00    +0.000 NA
ENDROOT
BRANCH   1   2
ATOM      2  S   UNL     1       4.625   4.007  18.095  0.00  0.00    +0.000 S 
ATOM      3  O   UNL     1       3.755   3.074  17.406  0.00  0.00    +0.000 OA
ATOM      4  O   UNL     1       5.304   3.621  19.307  0.00  0.00    +0.000 OA
BRANCH   2   5
ATOM      5  C   UNL     1       3.694   5.485  18.409  0.00  0.00    +0.000 A 
ATOM      6  C   UNL     1       2.931   5.578  19.580  0.00  0.00    +0.000 A 
ATOM      7  C   UNL     1       2.211   6.746  19.837  0.00  0.00    +0.000 A 
ATOM      8  C   UNL     1       2.260   7.808  18.932  0.00  0.00    +0.000 A 
ATOM      9 CL   UNL     1       1.375   9.247  19.257  0.00  0.00    +0.000 Cl
ATOM     10  C   UNL     1       3.025   7.716  17.768  0.00  0.00    +0.000 A 
ATOM     11  C   UNL     1       3.748   6.550  17.504  0.00  0.00    +0.000 A 
ENDBRANCH   2   5
ENDBRANCH   1   2
BRANCH   1  12
ATOM     12  C   UNL     1       7.159   4.772  17.614  0.00  0.00    +0.000 C 
BRANCH  12  14
ATOM     13  C   UNL     1       8.227   5.888  19.650  0.00  0.00    +0.000 C 
ATOM     14  C   UNL     1       7.230   6.028  18.499  0.00  0.00    +0.000 C 
ATOM     15  C   UNL     1       7.639   7.232  17.636  0.00  0.00    +0.000 C 
ENDBRANCH  12  14
ENDBRANCH   1  12
BRANCH   1  16
ATOM     16  C   UNL     1       5.858   3.618  15.772  0.00  0.00    +0.000 C 
BRANCH  16  17
ATOM     17  C   UNL     1       6.504   4.195  14.524  0.00  0.00    +0.000 C 
ATOM     18  O   UNL     1       6.176   3.866  13.384  0.00  0.00    +0.000 OA
ATOM     19  N   UNL     1       7.517   5.104  14.753  0.00  0.00    +0.000 N 
ATOM     20  H   UNL     1       7.546   5.673  15.596  0.00  0.00    +0.000 HD
BRANCH  19  21
ATOM     21  O   UNL     1       8.051   5.710  13.588  0.00  0.00    +0.000 OA
ATOM     22  H   UNL     1       7.268   6.161  13.200  0.00  0.00    +0.000 HD
ENDBRANCH  19  21
ENDBRANCH  16  17
ENDBRANCH   1  16
TORSDOF 7
ENDMDL
MODEL 3
REMARK VINA RESULT:      -6.8      0.664      1.289
REMARK  Name = 
REMARK  9 active torsions:
REMARK  status: ('A' for Active; 'I' for Inactive)
REMARK    1  A    between atoms: C_1  and  C_2
REMARK    2  A    between atoms: C_2  and  C_3
REMARK    3  A    between atoms: C_2  and  C_4
REMARK    4  A    between atoms: C_4  and  N_5
REMARK    5  A    between atoms: N_5  and  C_6
REMARK    6  A    between atoms: N_5  and  S_11
REMARK    7  A    between atoms: C_6  and  C_7
REMARK    8  A    between atoms: N_9  and  O_10
REMARK    9  A    between atoms: S_11  and  C_14
REMARK                            x       y       z     vdW  Elec       q    Type
REMARK                         _______ _______ _______ _____ _____    ______ ____
ROOT
ATOM      1  N   UNL     1       5.349   4.437  17.261  0.00  0.00    +0.000 NA
ENDROOT
BRANCH   1   2
ATOM      2  S   UNL     1       4.270   3.772  18.431  0.00  0.00    +0.000 S 
ATOM      3  O   UNL     1       3.355   2.896  17.726  0.00  0.00    +0.000 OA
ATOM      4  O   UNL     1       5.068   3.275  19.525  0.00  0.00    +0.000 OA
BRANCH   2   5
ATOM      5  C   UNL     1       3.348   5.181  18.992  0.00  0.00    +0.000 A 
ATOM      6  C   UNL     1       2.629   5.095  20.191  0.00  0.00    +0.000 A 
ATOM      7  C   UNL     1       1.916   6.207  20.643  0.00  0.00    +0.000 A 
ATOM      8  C   UNL     1       1.929   7.390  19.902  0.00  0.00    +0.000 A 
ATOM      9 CL   UNL     1       1.053   8.760  20.467  0.00  0.00    +0.000 Cl
ATOM     10  C   UNL     1       2.651   7.476  18.710  0.00  0.00    +0.000 A 
ATOM     11  C   UNL     1       3.366   6.367  18.253  0.00  0.00    +0.000 A 
ENDBRANCH   2   5
ENDBRANCH   1   2
BRANCH   1  12
ATOM     12  C   UNL     1       6.749   4.594  17.788  0.00  0.00    +0.000 C 
BRANCH  12  14
ATOM     13  C   UNL     1       8.127   5.806  19.567  0.00  0.00    +0.000 C 
ATOM     14  C   UNL     1       7.035   5.925  18.504  0.00  0.00    +0.000 C 
ATOM     15  C   UNL     1       7.468   6.974  17.468  0.00  0.00    +0.000 C 
ENDBRANCH  12  14
ENDBRANCH   1  12
BRANCH   1  16
ATOM     16  C   UNL     1       5.237   3.713  15.956  0.00  0.00    +0.000 C 
BRANCH  16  17
ATOM     17  C   UNL     1       5.865   4.406  14.758  0.00  0.00    +0.000 C 
ATOM     18  O   UNL     1       5.955   5.630  14.661  0.00  0.00    +0.000 OA
ATOM     19  N   UNL     1       6.307   3.564  13.759  0.00  0.00    +0.000 N 
ATOM     20  H   UNL     1       6.607   2.612  13.953  0.00  0.00    +0.000 HD
BRANCH  19  21
ATOM     21  O   UNL     1       6.977   4.209  12.687  0.00  0.00    +0.000 OA
ATOM     22  H   UNL     1       7.504   4.901  13.147  0.00  0.00    +0.000 HD
ENDBRANCH  19  21
ENDBRANCH  16  17
ENDBRANCH   1  16
TORSDOF 7
ENDMDL
MODEL 4
REMARK VINA RESULT:      -6.7      1.185      1.815
REMARK  Name = 
REMARK  9 active torsions:
REMARK  status: ('A' for Active; 'I' for Inactive)
REMARK    1  A    between atoms: C_1  and  C_2
REMARK    2  A    between atoms: C_2  and  C_3
REMARK    3  A    between atoms: C_2  and  C_4
REMARK    4  A    between atoms: C_4  and  N_5
REMARK    5  A    between atoms: N_5  and  C_6
REMARK    6  A    between atoms: N_5  and  S_11
REMARK    7  A    between atoms: C_6  and  C_7
REMARK    8  A    between atoms: N_9  and  O_10
REMARK    9  A    between atoms: S_11  and  C_14
REMARK                            x       y       z     vdW  Elec       q    Type
REMARK                         _______ _______ _______ _____ _____    ______ ____
ROOT
ATOM      1  N   UNL     1       5.602   5.559  16.709  0.00  0.00    +0.000 NA
ENDROOT
BRANCH   1   2
ATOM      2  S   UNL     1       4.489   4.636  17.649  0.00  0.00    +0.000 S 
ATOM      3  O   UNL     1       3.670   3.876  16.725  0.00  0.00    +0.000 OA
ATOM      4  O   UNL     1       5.242   3.969  18.683  0.00  0.00    +0.000 OA
BRANCH   2   5
ATOM      5  C   UNL     1       3.458   5.870  18.399  0.00  0.00    +0.000 A 
ATOM      6  C   UNL     1       2.995   5.673  19.707  0.00  0.00    +0.000 A 
ATOM      7  C   UNL     1       2.197   6.650  20.305  0.00  0.00    +0.000 A 
ATOM      8  C   UNL     1       1.873   7.811  19.601  0.00  0.00    +0.000 A 
ATOM      9 CL   UNL     1       0.894   9.014  20.347  0.00  0.00    +0.000 Cl
ATOM     10  C   UNL     1       2.340   8.009  18.301  0.00  0.00    +0.000 A 
ATOM     11  C   UNL     1       3.138   7.036  17.696  0.00  0.00    +0.000 A 
ENDBRANCH   2   5
ENDBRANCH   1   2
BRANCH   1  12
ATOM     12  C   UNL     1       6.063   6.805  17.415  0.00  0.00    +0.000 C 
BRANCH  12  14
ATOM     13  C   UNL     1       8.090   8.324  17.759  0.00  0.00    +0.000 C 
ATOM     14  C   UNL     1       7.576   6.886  17.680  0.00  0.00    +0.000 C 
ATOM     15  C   UNL     1       7.897   6.175  19.004  0.00  0.00    +0.000 C 
ENDBRANCH  12  14
ENDBRANCH   1  12
BRANCH   1  16
ATOM     16  C   UNL     1       6.696   4.693  16.168  0.00  0.00    +0.000 C 
BRANCH  16  17
ATOM     17  C   UNL     1       6.900   4.744  14.663  0.00  0.00    +0.000 C 
ATOM     18  O   UNL     1       6.197   4.121  13.868  0.00  0.00    +0.000 OA
ATOM     19  N   UNL     1       7.956   5.524  14.240  0.00  0.00    +0.000 N 
ATOM     20  H   UNL     1       8.285   6.322  14.780  0.00  0.00    +0.000 HD
BRANCH  19  21
ATOM     21  O   UNL     1       8.084   5.646  12.833  0.00  0.00    +0.000 OA
ATOM     22  H   UNL     1       7.839   6.585  12.674  0.00  0.00    +0.000 HD
ENDBRANCH  19  21
ENDBRANCH  16  17
ENDBRANCH   1  16
TORSDOF 7
ENDMDL
MODEL 5
REMARK VINA RESULT:      -6.7      3.545      5.884
REMARK  Name = 
REMARK  9 active torsions:
REMARK  status: ('A' for Active; 'I' for Inactive)
REMARK    1  A    between atoms: C_1  and  C_2
REMARK    2  A    between atoms: C_2  and  C_3
REMARK    3  A    between atoms: C_2  and  C_4
REMARK    4  A    between atoms: C_4  and  N_5
REMARK    5  A    between atoms: N_5  and  C_6
REMARK    6  A    between atoms: N_5  and  S_11
REMARK    7  A    between atoms: C_6  and  C_7
REMARK    8  A    between atoms: N_9  and  O_10
REMARK    9  A    between atoms: S_11  and  C_14
REMARK                            x       y       z     vdW  Elec       q    Type
REMARK                         _______ _______ _______ _____ _____    ______ ____
ROOT
ATOM      1  N   UNL     1       3.534   4.977  19.013  0.00  0.00    +0.000 NA
ENDROOT
BRANCH   1   2
ATOM      2  S   UNL     1       5.181   4.468  19.065  0.00  0.00    +0.000 S 
ATOM      3  O   UNL     1       5.937   5.517  19.720  0.00  0.00    +0.000 OA
ATOM      4  O   UNL     1       5.204   3.119  19.574  0.00  0.00    +0.000 OA
BRANCH   2   5
ATOM      5  C   UNL     1       5.661   4.441  17.356  0.00  0.00    +0.000 A 
ATOM      6  C   UNL     1       6.976   4.776  17.009  0.00  0.00    +0.000 A 
ATOM      7  C   UNL     1       7.360   4.740  15.667  0.00  0.00    +0.000 A 
ATOM      8  C   UNL     1       6.436   4.368  14.688  0.00  0.00    +0.000 A 
ATOM      9 CL   UNL     1       6.917   4.320  13.037  0.00  0.00    +0.000 Cl
ATOM     10  C   UNL     1       5.127   4.029  15.037  0.00  0.00    +0.000 A 
ATOM     11  C   UNL     1       4.737   4.063  16.377  0.00  0.00    +0.000 A 
ENDBRANCH   2   5
ENDBRANCH   1   2
BRANCH   1  12
ATOM     12  C   UNL     1       2.616   4.044  19.753  0.00  0.00    +0.000 C 
BRANCH  12  14
ATOM     13  C   UNL     1       1.317   4.161  17.554  0.00  0.00    +0.000 C 
ATOM     14  C   UNL     1       1.416   3.525  18.942  0.00  0.00    +0.000 C 
ATOM     15  C   UNL     1       1.536   2.003  18.778  0.00  0.00    +0.000 C 
ENDBRANCH  12  14
ENDBRANCH   1  12
BRANCH   1  16
ATOM     16  C   UNL     1       3.407   6.422  19.383  0.00  0.00    +0.000 C 
BRANCH  16  17
ATOM     17  C   UNL     1       3.190   7.386  18.229  0.00  0.00    +0.000 C 
ATOM     18  O   UNL     1       3.831   7.333  17.180  0.00  0.00    +0.000 OA
ATOM     19  N   UNL     1       2.234   8.356  18.447  0.00  0.00    +0.000 N 
ATOM     20  H   UNL     1       1.451   8.206  19.079  0.00  0.00    +0.000 HD
BRANCH  19  21
ATOM     21  O   UNL     1       1.968   9.193  17.333  0.00  0.00    +0.000 OA
ATOM     22  H   UNL     1       2.575   9.952  17.484  0.00  0.00    +0.000 HD
ENDBRANCH  19  21
ENDBRANCH  16  17
ENDBRANCH   1  16
TORSDOF 7
ENDMDL
MODEL 6
REMARK VINA RESULT:      -6.7      3.475      5.348
REMARK  Name = 
REMARK  9 active torsions:
REMARK  status: ('A' for Active; 'I' for Inactive)
REMARK    1  A    between atoms: C_1  and  C_2
REMARK    2  A    between atoms: C_2  and  C_3
REMARK    3  A    between atoms: C_2  and  C_4
REMARK    4  A    between atoms: C_4  and  N_5
REMARK    5  A    between atoms: N_5  and  C_6
REMARK    6  A    between atoms: N_5  and  S_11
REMARK    7  A    between atoms: C_6  and  C_7
REMARK    8  A    between atoms: N_9  and  O_10
REMARK    9  A    between atoms: S_11  and  C_14
REMARK                            x       y       z     vdW  Elec       q    Type
REMARK                         _______ _______ _______ _____ _____    ______ ____
ROOT
ATOM      1  N   UNL     1       3.199   4.114  18.863  0.00  0.00    +0.000 NA
ENDROOT
BRANCH   1   2
ATOM      2  S   UNL     1       4.157   5.467  18.388  0.00  0.00    +0.000 S 
ATOM      3  O   UNL     1       5.254   5.571  19.329  0.00  0.00    +0.000 OA
ATOM      4  O   UNL     1       4.411   5.346  16.974  0.00  0.00    +0.000 OA
BRANCH   2   5
ATOM      5  C   UNL     1       3.079   6.852  18.658  0.00  0.00    +0.000 A 
ATOM      6  C   UNL     1       2.454   7.000  19.902  0.00  0.00    +0.000 A 
ATOM      7  C   UNL     1       1.619   8.097  20.122  0.00  0.00    +0.000 A 
ATOM      8  C   UNL     1       1.419   9.034  19.107  0.00  0.00    +0.000 A 
ATOM      9 CL   UNL     1       0.392  10.387  19.386  0.00  0.00    +0.000 Cl
ATOM     10  C   UNL     1       2.047   8.888  17.869  0.00  0.00    +0.000 A 
ATOM     11  C   UNL     1       2.884   7.794  17.642  0.00  0.00    +0.000 A 
ENDBRANCH   2   5
ENDBRANCH   1   2
BRANCH   1  12
ATOM     12  C   UNL     1       1.933   3.990  18.060  0.00  0.00    +0.000 C 
BRANCH  12  14
ATOM     13  C   UNL     1       0.674   1.908  18.843  0.00  0.00    +0.000 C 
ATOM     14  C   UNL     1       0.721   3.436  18.827  0.00  0.00    +0.000 C 
ATOM     15  C   UNL     1       0.766   3.942  20.277  0.00  0.00    +0.000 C 
ENDBRANCH  12  14
ENDBRANCH   1  12
BRANCH   1  16
ATOM     16  C   UNL     1       4.028   2.870  18.940  0.00  0.00    +0.000 C 
BRANCH  16  17
ATOM     17  C   UNL     1       4.256   2.311  20.334  0.00  0.00    +0.000 C 
ATOM     18  O   UNL     1       3.498   2.530  21.279  0.00  0.00    +0.000 OA
ATOM     19  N   UNL     1       5.400   1.555  20.483  0.00  0.00    +0.000 N 
ATOM     20  H   UNL     1       5.810   1.043  19.706  0.00  0.00    +0.000 HD
BRANCH  19  21
ATOM     21  O   UNL     1       5.559   0.957  21.760  0.00  0.00    +0.000 OA
ATOM     22  H   UNL     1       5.276   1.673  22.371  0.00  0.00    +0.000 HD
ENDBRANCH  19  21
ENDBRANCH  16  17
ENDBRANCH   1  16
TORSDOF 7
ENDMDL
MODEL 7
REMARK VINA RESULT:      -6.7      3.537      5.882
REMARK  Name = 
REMARK  9 active torsions:
REMARK  status: ('A' for Active; 'I' for Inactive)
REMARK    1  A    between atoms: C_1  and  C_2
REMARK    2  A    between atoms: C_2  and  C_3
REMARK    3  A    between atoms: C_2  and  C_4
REMARK    4  A    between atoms: C_4  and  N_5
REMARK    5  A    between atoms: N_5  and  C_6
REMARK    6  A    between atoms: N_5  and  S_11
REMARK    7  A    between atoms: C_6  and  C_7
REMARK    8  A    between atoms: N_9  and  O_10
REMARK    9  A    between atoms: S_11  and  C_14
REMARK                            x       y       z     vdW  Elec       q    Type
REMARK                         _______ _______ _______ _____ _____    ______ ____
ROOT
ATOM      1  N   UNL     1       3.550   5.070  18.977  0.00  0.00    +0.000 NA
ENDROOT
BRANCH   1   2
ATOM      2  S   UNL     1       5.169   4.480  19.051  0.00  0.00    +0.000 S 
ATOM      3  O   UNL     1       5.967   5.492  19.714  0.00  0.00    +0.000 OA
ATOM      4  O   UNL     1       5.118   3.132  19.562  0.00  0.00    +0.000 OA
BRANCH   2   5
ATOM      5  C   UNL     1       5.668   4.425  17.348  0.00  0.00    +0.000 A 
ATOM      6  C   UNL     1       4.732   4.058  16.373  0.00  0.00    +0.000 A 
ATOM      7  C   UNL     1       5.117   4.030  15.031  0.00  0.00    +0.000 A 
ATOM      8  C   UNL     1       6.423   4.372  14.675  0.00  0.00    +0.000 A 
ATOM      9 CL   UNL     1       6.890   4.340  13.018  0.00  0.00    +0.000 Cl
ATOM     10  C   UNL     1       7.352   4.743  15.647  0.00  0.00    +0.000 A 
ATOM     11  C   UNL     1       6.974   4.773  16.991  0.00  0.00    +0.000 A 
ENDBRANCH   2   5
ENDBRANCH   1   2
BRANCH   1  12
ATOM     12  C   UNL     1       2.584   4.210  19.746  0.00  0.00    +0.000 C 
BRANCH  12  14
ATOM     13  C   UNL     1       1.303   4.247  17.534  0.00  0.00    +0.000 C 
ATOM     14  C   UNL     1       1.443   3.601  18.913  0.00  0.00    +0.000 C 
ATOM     15  C   UNL     1       1.698   2.098  18.729  0.00  0.00    +0.000 C 
ENDBRANCH  12  14
ENDBRANCH   1  12
BRANCH   1  16
ATOM     16  C   UNL     1       3.496   6.531  19.298  0.00  0.00    +0.000 C 
BRANCH  16  17
ATOM     17  C   UNL     1       3.202   7.456  18.130  0.00  0.00    +0.000 C 
ATOM     18  O   UNL     1       3.775   7.370  17.044  0.00  0.00    +0.000 OA
ATOM     19  N   UNL     1       2.259   8.432  18.377  0.00  0.00    +0.000 N 
ATOM     20  H   UNL     1       1.518   8.302  19.062  0.00  0.00    +0.000 HD
BRANCH  19  21
ATOM     21  O   UNL     1       1.919   9.232  17.256  0.00  0.00    +0.000 OA
ATOM     22  H   UNL     1       2.529   8.900  16.560  0.00  0.00    +0.000 HD
ENDBRANCH  19  21
ENDBRANCH  16  17
ENDBRANCH   1  16
TORSDOF 7
ENDMDL
MODEL 8
REMARK VINA RESULT:      -6.7      1.022      1.700
REMARK  Name = 
REMARK  9 active torsions:
REMARK  status: ('A' for Active; 'I' for Inactive)
REMARK    1  A    between atoms: C_1  and  C_2
REMARK    2  A    between atoms: C_2  and  C_3
REMARK    3  A    between atoms: C_2  and  C_4
REMARK    4  A    between atoms: C_4  and  N_5
REMARK    5  A    between atoms: N_5  and  C_6
REMARK    6  A    between atoms: N_5  and  S_11
REMARK    7  A    between atoms: C_6  and  C_7
REMARK    8  A    between atoms: N_9  and  O_10
REMARK    9  A    between atoms: S_11  and  C_14
REMARK                            x       y       z     vdW  Elec       q    Type
REMARK                         _______ _______ _______ _____ _____    ______ ____
ROOT
ATOM      1  N   UNL     1       5.598   5.389  17.175  0.00  0.00    +0.000 NA
ENDROOT
BRANCH   1   2
ATOM      2  S   UNL     1       4.337   4.368  17.760  0.00  0.00    +0.000 S 
ATOM      3  O   UNL     1       3.567   3.932  16.612  0.00  0.00    +0.000 OA
ATOM      4  O   UNL     1       4.934   3.406  18.653  0.00  0.00    +0.000 OA
BRANCH   2   5
ATOM      5  C   UNL     1       3.319   5.470  18.709  0.00  0.00    +0.000 A 
ATOM      6  C   UNL     1       2.729   5.009  19.892  0.00  0.00    +0.000 A 
ATOM      7  C   UNL     1       1.941   5.879  20.649  0.00  0.00    +0.000 A 
ATOM      8  C   UNL     1       1.753   7.195  20.224  0.00  0.00    +0.000 A 
ATOM      9 CL   UNL     1       0.785   8.264  21.163  0.00  0.00    +0.000 Cl
ATOM     10  C   UNL     1       2.346   7.655  19.047  0.00  0.00    +0.000 A 
ATOM     11  C   UNL     1       3.136   6.791  18.286  0.00  0.00    +0.000 A 
ENDBRANCH   2   5
ENDBRANCH   1   2
BRANCH   1  12
ATOM     12  C   UNL     1       6.969   4.858  17.496  0.00  0.00    +0.000 C 
BRANCH  12  14
ATOM     13  C   UNL     1       7.678   7.279  17.906  0.00  0.00    +0.000 C 
ATOM     14  C   UNL     1       7.871   5.813  18.295  0.00  0.00    +0.000 C 
ATOM     15  C   UNL     1       7.571   5.657  19.794  0.00  0.00    +0.000 C 
ENDBRANCH  12  14
ENDBRANCH   1  12
BRANCH   1  16
ATOM     16  C   UNL     1       5.375   5.749  15.740  0.00  0.00    +0.000 C 
BRANCH  16  17
ATOM     17  C   UNL     1       6.243   5.017  14.730  0.00  0.00    +0.000 C 
ATOM     18  O   UNL     1       7.393   5.361  14.459  0.00  0.00    +0.000 OA
ATOM     19  N   UNL     1       5.640   3.944  14.107  0.00  0.00    +0.000 N 
ATOM     20  H   UNL     1       4.900   3.409  14.555  0.00  0.00    +0.000 HD
BRANCH  19  21
ATOM     21  O   UNL     1       6.484   3.207  13.237  0.00  0.00    +0.000 OA
ATOM     22  H   UNL     1       6.661   2.387  13.750  0.00  0.00    +0.000 HD
ENDBRANCH  19  21
ENDBRANCH  16  17
ENDBRANCH   1  16
TORSDOF 7
ENDMDL
MODEL 9
REMARK VINA RESULT:      -6.6      3.383      4.880
REMARK  Name = 
REMARK  9 active torsions:
REMARK  status: ('A' for Active; 'I' for Inactive)
REMARK    1  A    between atoms: C_1  and  C_2
REMARK    2  A    between atoms: C_2  and  C_3
REMARK    3  A    between atoms: C_2  and  C_4
REMARK    4  A    between atoms: C_4  and  N_5
REMARK    5  A    between atoms: N_5  and  C_6
REMARK    6  A    between atoms: N_5  and  S_11
REMARK    7  A    between atoms: C_6  and  C_7
REMARK    8  A    between atoms: N_9  and  O_10
REMARK    9  A    between atoms: S_11  and  C_14
REMARK                            x       y       z     vdW  Elec       q    Type
REMARK                         _______ _______ _______ _____ _____    ______ ____
ROOT
ATOM      1  N   UNL     1       3.244   4.366  18.501  0.00  0.00    +0.000 NA
ENDROOT
BRANCH   1   2
ATOM      2  S   UNL     1       4.096   5.835  18.196  0.00  0.00    +0.000 S 
ATOM      3  O   UNL     1       5.227   5.874  19.101  0.00  0.00    +0.000 OA
ATOM      4  O   UNL     1       4.291   5.936  16.771  0.00  0.00    +0.000 OA
BRANCH   2   5
ATOM      5  C   UNL     1       2.950   7.091  18.706  0.00  0.00    +0.000 A 
ATOM      6  C   UNL     1       2.548   8.066  17.784  0.00  0.00    +0.000 A 
ATOM      7  C   UNL     1       1.635   9.045  18.177  0.00  0.00    +0.000 A 
ATOM      8  C   UNL     1       1.129   9.043  19.479  0.00  0.00    +0.000 A 
ATOM      9 CL   UNL     1      -0.000  10.250  19.956  0.00  0.00    +0.000 Cl
ATOM     10  C   UNL     1       1.527   8.068  20.395  0.00  0.00    +0.000 A 
ATOM     11  C   UNL     1       2.440   7.085  20.008  0.00  0.00    +0.000 A 
ENDBRANCH   2   5
ENDBRANCH   1   2
BRANCH   1  12
ATOM     12  C   UNL     1       1.771   4.482  18.220  0.00  0.00    +0.000 C 
BRANCH  12  14
ATOM     13  C   UNL     1       0.576   2.307  18.830  0.00  0.00    +0.000 C 
ATOM     14  C   UNL     1       0.853   3.759  19.220  0.00  0.00    +0.000 C 
ATOM     15  C   UNL     1       1.505   3.780  20.611  0.00  0.00    +0.000 C 
ENDBRANCH  12  14
ENDBRANCH   1  12
BRANCH   1  16
ATOM     16  C   UNL     1       3.926   3.204  17.850  0.00  0.00    +0.000 C 
BRANCH  16  17
ATOM     17  C   UNL     1       4.252   2.032  18.760  0.00  0.00    +0.000 C 
ATOM     18  O   UNL     1       3.813   0.897  18.576  0.00  0.00    +0.000 OA
ATOM     19  N   UNL     1       5.060   2.331  19.837  0.00  0.00    +0.000 N 
ATOM     20  H   UNL     1       5.730   3.096  19.810  0.00  0.00    +0.000 HD
BRANCH  19  21
ATOM     21  O   UNL     1       5.438   1.217  20.629  0.00  0.00    +0.000 OA
ATOM     22  H   UNL     1       6.221   1.555  21.119  0.00  0.00    +0.000 HD
ENDBRANCH  19  21
ENDBRANCH  16  17
ENDBRANCH   1  16
TORSDOF 7
ENDMDL
