MODEL 1
REMARK VINA RESULT:      -6.8      0.000      0.000
REMARK  Name = 
REMARK  13 active torsions:
REMARK  status: ('A' for Active; 'I' for Inactive)
REMARK    1  A    between atoms: C_1  and  O_2
REMARK    2  A    between atoms: O_2  and  C_3
REMARK    3  A    between atoms: C_6  and  C_7
REMARK    4  A    between atoms: C_7  and  O_8
REMARK    5  A    between atoms: C_7  and  C_20
REMARK    6  A    between atoms: O_8  and  C_9
REMARK    7  A    between atoms: C_9  and  C_10
REMARK    8  A    between atoms: C_10  and  O_11
REMARK    9  A    between atoms: C_10  and  C_12
REMARK   10  A    between atoms: C_12  and  N_13
REMARK   11  A    between atoms: C_16  and  O_17
REMARK   12  A    between atoms: C_23  and  O_24
REMARK   13  A    between atoms: O_24  and  C_25
REMARK                            x       y       z     vdW  Elec       q    Type
REMARK                         _______ _______ _______ _____ _____    ______ ____
ROOT
ATOM      1  C   UNL     1       6.159   6.080  17.007  0.00  0.00    +0.000 C 
ENDROOT
BRANCH   1   5
ATOM      2  C   UNL     1       6.317   3.880  13.258  0.00  0.00    +0.000 A 
ATOM      3  C   UNL     1       7.388   4.678  13.662  0.00  0.00    +0.000 A 
ATOM      4  C   UNL     1       7.355   5.350  14.888  0.00  0.00    +0.000 A 
ATOM      5  C   UNL     1       6.251   5.222  15.742  0.00  0.00    +0.000 A 
ATOM      6  C   UNL     1       5.225   4.339  15.361  0.00  0.00    +0.000 A 
ATOM      7  C   UNL     1       5.233   3.715  14.113  0.00  0.00    +0.000 A 
BRANCH   2   9
ATOM      8  C   UNL     1       5.359   2.488  11.605  0.00  0.00    +0.000 C 
ATOM      9  O   UNL     1       6.426   3.338  12.008  0.00  0.00    +0.000 OA
ENDBRANCH   2   9
ENDBRANCH   1   5
BRANCH   1  10
ATOM     10  C   UNL     1       4.924   5.903  17.888  0.00  0.00    +0.000 A 
ATOM     11  C   UNL     1       4.875   4.965  18.931  0.00  0.00    +0.000 A 
ATOM     12  C   UNL     1       3.744   4.864  19.747  0.00  0.00    +0.000 A 
ATOM     13  C   UNL     1       2.656   5.717  19.562  0.00  0.00    +0.000 A 
ATOM     14  C   UNL     1       2.688   6.653  18.535  0.00  0.00    +0.000 A 
ATOM     15  C   UNL     1       3.815   6.752  17.718  0.00  0.00    +0.000 A 
BRANCH  13  16
ATOM     16  O   UNL     1       1.612   5.539  20.425  0.00  0.00    +0.000 OA
ATOM     17  C   UNL     1       1.331   4.181  20.752  0.00  0.00    +0.000 C 
ENDBRANCH  13  16
ENDBRANCH   1  10
BRANCH   1  18
ATOM     18  O   UNL     1       6.440   7.474  16.728  0.00  0.00    +0.000 OA
BRANCH  18  19
ATOM     19  C   UNL     1       7.779   7.883  16.993  0.00  0.00    +0.000 C 
BRANCH  19  20
ATOM     20  C   UNL     1       7.933   8.605  18.334  0.00  0.00    +0.000 C 
BRANCH  20  21
ATOM     21  O   UNL     1       8.866   7.908  19.167  0.00  0.00    +0.000 OA
ATOM     22  H   UNL     1       8.385   7.575  19.943  0.00  0.00    +0.000 HD
ENDBRANCH  20  21
BRANCH  20  23
ATOM     23  C   UNL     1       8.445  10.034  18.007  0.00  0.00    +0.000 C 
BRANCH  23  24
ATOM     24  N   UNL     1       9.643  10.495  18.732  0.00  0.00    +0.000 NA
ATOM     25  C   UNL     1       9.274  11.236  19.944  0.00  0.00    +0.000 C 
ATOM     26  C   UNL     1      10.499  11.766  20.687  0.00  0.00    +0.000 C 
ATOM     27  C   UNL     1      11.402  12.591  19.778  0.00  0.00    +0.000 C 
ATOM     28  C   UNL     1      11.743  11.814  18.513  0.00  0.00    +0.000 C 
ATOM     29  C   UNL     1      10.488  11.287  17.824  0.00  0.00    +0.000 C 
BRANCH  27  30
ATOM     30  O   UNL     1      10.786  13.840  19.452  0.00  0.00    +0.000 OA
ATOM     31  H   UNL     1      11.477  14.491  19.249  0.00  0.00    +0.000 HD
ENDBRANCH  27  30
ENDBRANCH  23  24
ENDBRANCH  20  23
ENDBRANCH  19  20
ENDBRANCH  18  19
ENDBRANCH   1  18
TORSDOF 11
ENDMDL
MODEL 2
REMARK VINA RESULT:      -6.8      0.875      1.294
REMARK  Name = 
REMARK  13 active torsions:
REMARK  status: ('A' for Active; 'I' for Inactive)
REMARK    1  A    between atoms: C_1  and  O_2
REMARK    2  A    between atoms: O_2  and  C_3
REMARK    3  A    between atoms: C_6  and  C_7
REMARK    4  A    between atoms: C_7  and  O_8
REMARK    5  A    between atoms: C_7  and  C_20
REMARK    6  A    between atoms: O_8  and  C_9
REMARK    7  A    between atoms: C_9  and  C_10
REMARK    8  A    between atoms: C_10  and  O_11
REMARK    9  A    between atoms: C_10  and  C_12
REMARK   10  A    between atoms: C_12  and  N_13
REMARK   11  A    between atoms: C_16  and  O_17
REMARK   12  A    between atoms: C_23  and  O_24
REMARK   13  A    between atoms: O_24  and  C_25
REMARK                            x       y       z     vdW  Elec       q    Type
REMARK                         _______ _______ _______ _____ _____    ______ ____
ROOT
ATOM      1  C   UNL     1       6.713   5.970  17.040  0.00  0.00    +0.000 C 
ENDROOT
BRANCH   1   5
ATOM      2  C   UNL     1       6.449   3.964  13.190  0.00  0.00    +0.000 A 
ATOM      3  C   UNL     1       7.481   4.865  13.455  0.00  0.00    +0.000 A 
ATOM      4  C   UNL     1       7.591   5.477  14.708  0.00  0.00    +0.000 A 
ATOM      5  C   UNL     1       6.675   5.183  15.727  0.00  0.00    +0.000 A 
ATOM      6  C   UNL     1       5.701   4.202  15.472  0.00  0.00    +0.000 A 
ATOM      7  C   UNL     1       5.557   3.636  14.204  0.00  0.00    +0.000 A 
BRANCH   2   9
ATOM      8  C   UNL     1       5.443   2.463  11.665  0.00  0.00    +0.000 C 
ATOM      9  O   UNL     1       6.396   3.492  11.908  0.00  0.00    +0.000 OA
ENDBRANCH   2   9
ENDBRANCH   1   5
BRANCH   1  10
ATOM     10  C   UNL     1       5.428   6.028  17.863  0.00  0.00    +0.000 A 
ATOM     11  C   UNL     1       4.347   6.848  17.507  0.00  0.00    +0.000 A 
ATOM     12  C   UNL     1       3.167   6.841  18.258  0.00  0.00    +0.000 A 
ATOM     13  C   UNL     1       3.030   5.992  19.356  0.00  0.00    +0.000 A 
ATOM     14  C   UNL     1       4.091   5.171  19.723  0.00  0.00    +0.000 A 
ATOM     15  C   UNL     1       5.270   5.182  18.975  0.00  0.00    +0.000 A 
BRANCH  13  16
ATOM     16  O   UNL     1       1.831   6.058  20.008  0.00  0.00    +0.000 OA
ATOM     17  C   UNL     1       1.408   4.835  20.604  0.00  0.00    +0.000 C 
ENDBRANCH  13  16
ENDBRANCH   1  10
BRANCH   1  18
ATOM     18  O   UNL     1       7.310   7.278  16.861  0.00  0.00    +0.000 OA
BRANCH  18  19
ATOM     19  C   UNL     1       8.031   7.771  17.988  0.00  0.00    +0.000 C 
BRANCH  19  20
ATOM     20  C   UNL     1       8.388   9.256  17.870  0.00  0.00    +0.000 C 
BRANCH  20  21
ATOM     21  O   UNL     1       7.222  10.021  17.546  0.00  0.00    +0.000 OA
ATOM     22  H   UNL     1       6.889   9.713  16.686  0.00  0.00    +0.000 HD
ENDBRANCH  20  21
BRANCH  20  23
ATOM     23  C   UNL     1       8.962   9.679  19.249  0.00  0.00    +0.000 C 
BRANCH  23  24
ATOM     24  N   UNL     1      10.029  10.696  19.243  0.00  0.00    +0.000 NA
ATOM     25  C   UNL     1       9.746  11.765  20.208  0.00  0.00    +0.000 C 
ATOM     26  C   UNL     1      10.815  12.855  20.186  0.00  0.00    +0.000 C 
ATOM     27  C   UNL     1      11.033  13.409  18.783  0.00  0.00    +0.000 C 
ATOM     28  C   UNL     1      11.292  12.279  17.795  0.00  0.00    +0.000 C 
ATOM     29  C   UNL     1      10.209  11.206  17.875  0.00  0.00    +0.000 C 
BRANCH  27  30
ATOM     30  O   UNL     1       9.911  14.194  18.368  0.00  0.00    +0.000 OA
ATOM     31  H   UNL     1       9.094  13.711  18.571  0.00  0.00    +0.000 HD
ENDBRANCH  27  30
ENDBRANCH  23  24
ENDBRANCH  20  23
ENDBRANCH  19  20
ENDBRANCH  18  19
ENDBRANCH   1  18
TORSDOF 11
ENDMDL
MODEL 3
REMARK VINA RESULT:      -6.7      4.630      6.045
REMARK  Name = 
REMARK  13 active torsions:
REMARK  status: ('A' for Active; 'I' for Inactive)
REMARK    1  A    between atoms: C_1  and  O_2
REMARK    2  A    between atoms: O_2  and  C_3
REMARK    3  A    between atoms: C_6  and  C_7
REMARK    4  A    between atoms: C_7  and  O_8
REMARK    5  A    between atoms: C_7  and  C_20
REMARK    6  A    between atoms: O_8  and  C_9
REMARK    7  A    between atoms: C_9  and  C_10
REMARK    8  A    between atoms: C_10  and  O_11
REMARK    9  A    between atoms: C_10  and  C_12
REMARK   10  A    between atoms: C_12  and  N_13
REMARK   11  A    between atoms: C_16  and  O_17
REMARK   12  A    between atoms: C_23  and  O_24
REMARK   13  A    between atoms: O_24  and  C_25
REMARK                            x       y       z     vdW  Elec       q    Type
REMARK                         _______ _______ _______ _____ _____    ______ ____
ROOT
ATOM      1  C   UNL     1       4.818   5.674  16.962  0.00  0.00    +0.000 C 
ENDROOT
BRANCH   1   5
ATOM      2  C   UNL     1       6.538   3.974  13.346  0.00  0.00    +0.000 A 
ATOM      3  C   UNL     1       5.174   3.854  13.611  0.00  0.00    +0.000 A 
ATOM      4  C   UNL     1       4.613   4.438  14.752  0.00  0.00    +0.000 A 
ATOM      5  C   UNL     1       5.410   5.170  15.643  0.00  0.00    +0.000 A 
ATOM      6  C   UNL     1       6.762   5.361  15.309  0.00  0.00    +0.000 A 
ATOM      7  C   UNL     1       7.332   4.729  14.202  0.00  0.00    +0.000 A 
BRANCH   2   9
ATOM      8  C   UNL     1       6.083   2.343  11.697  0.00  0.00    +0.000 C 
ATOM      9  O   UNL     1       6.986   3.295  12.247  0.00  0.00    +0.000 OA
ENDBRANCH   2   9
ENDBRANCH   1   5
BRANCH   1  10
ATOM     10  C   UNL     1       4.045   4.670  17.815  0.00  0.00    +0.000 A 
ATOM     11  C   UNL     1       4.602   4.068  18.953  0.00  0.00    +0.000 A 
ATOM     12  C   UNL     1       3.848   3.189  19.737  0.00  0.00    +0.000 A 
ATOM     13  C   UNL     1       2.517   2.920  19.421  0.00  0.00    +0.000 A 
ATOM     14  C   UNL     1       1.948   3.509  18.298  0.00  0.00    +0.000 A 
ATOM     15  C   UNL     1       2.702   4.383  17.513  0.00  0.00    +0.000 A 
BRANCH  13  16
ATOM     16  O   UNL     1       1.871   2.058  20.263  0.00  0.00    +0.000 OA
ATOM     17  C   UNL     1       1.574   2.591  21.551  0.00  0.00    +0.000 C 
ENDBRANCH  13  16
ENDBRANCH   1  10
BRANCH   1  18
ATOM     18  O   UNL     1       4.092   6.914  16.780  0.00  0.00    +0.000 OA
BRANCH  18  19
ATOM     19  C   UNL     1       3.858   7.656  17.975  0.00  0.00    +0.000 C 
BRANCH  19  20
ATOM     20  C   UNL     1       2.373   7.923  18.236  0.00  0.00    +0.000 C 
BRANCH  20  21
ATOM     21  O   UNL     1       2.055   7.655  19.606  0.00  0.00    +0.000 OA
ATOM     22  H   UNL     1       1.312   8.227  19.860  0.00  0.00    +0.000 HD
ENDBRANCH  20  21
BRANCH  20  23
ATOM     23  C   UNL     1       2.131   9.418  17.895  0.00  0.00    +0.000 C 
BRANCH  23  24
ATOM     24  N   UNL     1       1.019  10.090  18.593  0.00  0.00    +0.000 NA
ATOM     25  C   UNL     1      -0.258   9.841  17.914  0.00  0.00    +0.000 C 
ATOM     26  C   UNL     1      -1.418  10.566  18.592  0.00  0.00    +0.000 C 
ATOM     27  C   UNL     1      -1.145  12.058  18.745  0.00  0.00    +0.000 C 
ATOM     28  C   UNL     1       0.200  12.290  19.422  0.00  0.00    +0.000 C 
ATOM     29  C   UNL     1       1.319  11.524  18.721  0.00  0.00    +0.000 C 
BRANCH  27  30
ATOM     30  O   UNL     1      -1.189  12.714  17.474  0.00  0.00    +0.000 OA
ATOM     31  H   UNL     1      -2.028  12.501  17.036  0.00  0.00    +0.000 HD
ENDBRANCH  27  30
ENDBRANCH  23  24
ENDBRANCH  20  23
ENDBRANCH  19  20
ENDBRANCH  18  19
ENDBRANCH   1  18
TORSDOF 11
ENDMDL
MODEL 4
REMARK VINA RESULT:      -6.7      5.779     10.375
REMARK  Name = 
REMARK  13 active torsions:
REMARK  status: ('A' for Active; 'I' for Inactive)
REMARK    1  A    between atoms: C_1  and  O_2
REMARK    2  A    between atoms: O_2  and  C_3
REMARK    3  A    between atoms: C_6  and  C_7
REMARK    4  A    between atoms: C_7  and  O_8
REMARK    5  A    between atoms: C_7  and  C_20
REMARK    6  A    between atoms: O_8  and  C_9
REMARK    7  A    between atoms: C_9  and  C_10
REMARK    8  A    between atoms: C_10  and  O_11
REMARK    9  A    between atoms: C_10  and  C_12
REMARK   10  A    between atoms: C_12  and  N_13
REMARK   11  A    between atoms: C_16  and  O_17
REMARK   12  A    between atoms: C_23  and  O_24
REMARK   13  A    between atoms: O_24  and  C_25
REMARK                            x       y       z     vdW  Elec       q    Type
REMARK                         _______ _______ _______ _____ _____    ______ ____
ROOT
ATOM      1  C   UNL     1       0.415  10.408  18.744  0.00  0.00    +0.000 C 
ENDROOT
BRANCH   1   5
ATOM      2  C   UNL     1      -3.797  10.825  17.744  0.00  0.00    +0.000 A 
ATOM      3  C   UNL     1      -3.203  11.660  18.690  0.00  0.00    +0.000 A 
ATOM      4  C   UNL     1      -1.839  11.556  18.980  0.00  0.00    +0.000 A 
ATOM      5  C   UNL     1      -1.039  10.618  18.312  0.00  0.00    +0.000 A 
ATOM      6  C   UNL     1      -1.634   9.853  17.294  0.00  0.00    +0.000 A 
ATOM      7  C   UNL     1      -3.006   9.918  17.047  0.00  0.00    +0.000 A 
BRANCH   2   9
ATOM      8  C   UNL     1      -5.596  12.225  17.116  0.00  0.00    +0.000 C 
ATOM      9  O   UNL     1      -5.150  10.964  17.603  0.00  0.00    +0.000 OA
ENDBRANCH   2   9
ENDBRANCH   1   5
BRANCH   1  10
ATOM     10  C   UNL     1       1.243  11.654  19.055  0.00  0.00    +0.000 A 
ATOM     11  C   UNL     1       1.394  12.147  20.360  0.00  0.00    +0.000 A 
ATOM     12  C   UNL     1       2.197  13.263  20.613  0.00  0.00    +0.000 A 
ATOM     13  C   UNL     1       2.893  13.886  19.578  0.00  0.00    +0.000 A 
ATOM     14  C   UNL     1       2.758  13.410  18.278  0.00  0.00    +0.000 A 
ATOM     15  C   UNL     1       1.951  12.299  18.025  0.00  0.00    +0.000 A 
BRANCH  13  16
ATOM     16  O   UNL     1       3.660  14.958  19.941  0.00  0.00    +0.000 OA
ATOM     17  C   UNL     1       3.175  16.219  19.490  0.00  0.00    +0.000 C 
ENDBRANCH  13  16
ENDBRANCH   1  10
BRANCH   1  18
ATOM     18  O   UNL     1       1.108   9.496  17.857  0.00  0.00    +0.000 OA
BRANCH  18  19
ATOM     19  C   UNL     1       2.327   8.964  18.372  0.00  0.00    +0.000 C 
BRANCH  19  20
ATOM     20  C   UNL     1       2.525   7.483  18.037  0.00  0.00    +0.000 C 
BRANCH  20  21
ATOM     21  O   UNL     1       3.786   7.287  17.387  0.00  0.00    +0.000 OA
ATOM     22  H   UNL     1       3.976   6.334  17.381  0.00  0.00    +0.000 HD
ENDBRANCH  20  21
BRANCH  20  23
ATOM     23  C   UNL     1       2.475   6.717  19.386  0.00  0.00    +0.000 C 
BRANCH  23  24
ATOM     24  N   UNL     1       2.577   5.248  19.324  0.00  0.00    +0.000 NA
ATOM     25  C   UNL     1       1.805   4.712  18.197  0.00  0.00    +0.000 C 
ATOM     26  C   UNL     1       1.857   3.187  18.141  0.00  0.00    +0.000 C 
ATOM     27  C   UNL     1       1.436   2.554  19.461  0.00  0.00    +0.000 C 
ATOM     28  C   UNL     1       2.227   3.150  20.618  0.00  0.00    +0.000 C 
ATOM     29  C   UNL     1       2.162   4.675  20.614  0.00  0.00    +0.000 C 
BRANCH  27  30
ATOM     30  O   UNL     1       0.031   2.717  19.675  0.00  0.00    +0.000 OA
ATOM     31  H   UNL     1      -0.252   3.563  19.292  0.00  0.00    +0.000 HD
ENDBRANCH  27  30
ENDBRANCH  23  24
ENDBRANCH  20  23
ENDBRANCH  19  20
ENDBRANCH  18  19
ENDBRANCH   1  18
TORSDOF 11
ENDMDL
MODEL 5
REMARK VINA RESULT:      -6.7      5.783     10.164
REMARK  Name = 
REMARK  13 active torsions:
REMARK  status: ('A' for Active; 'I' for Inactive)
REMARK    1  A    between atoms: C_1  and  O_2
REMARK    2  A    between atoms: O_2  and  C_3
REMARK    3  A    between atoms: C_6  and  C_7
REMARK    4  A    between atoms: C_7  and  O_8
REMARK    5  A    between atoms: C_7  and  C_20
REMARK    6  A    between atoms: O_8  and  C_9
REMARK    7  A    between atoms: C_9  and  C_10
REMARK    8  A    between atoms: C_10  and  O_11
REMARK    9  A    between atoms: C_10  and  C_12
REMARK   10  A    between atoms: C_12  and  N_13
REMARK   11  A    between atoms: C_16  and  O_17
REMARK   12  A    between atoms: C_23  and  O_24
REMARK   13  A    between atoms: O_24  and  C_25
REMARK                            x       y       z     vdW  Elec       q    Type
REMARK                         _______ _______ _______ _____ _____    ______ ____
ROOT
ATOM      1  C   UNL     1       0.457  10.428  19.114  0.00  0.00    +0.000 C 
ENDROOT
BRANCH   1   5
ATOM      2  C   UNL     1      -3.453  11.047  17.315  0.00  0.00    +0.000 A 
ATOM      3  C   UNL     1      -2.567  10.109  16.787  0.00  0.00    +0.000 A 
ATOM      4  C   UNL     1      -1.326   9.878  17.392  0.00  0.00    +0.000 A 
ATOM      5  C   UNL     1      -0.958  10.576  18.550  0.00  0.00    +0.000 A 
ATOM      6  C   UNL     1      -1.903  11.447  19.121  0.00  0.00    +0.000 A 
ATOM      7  C   UNL     1      -3.116  11.718  18.485  0.00  0.00    +0.000 A 
BRANCH   2   9
ATOM      8  C   UNL     1      -5.527  12.169  17.147  0.00  0.00    +0.000 C 
ATOM      9  O   UNL     1      -4.599  11.244  16.594  0.00  0.00    +0.000 OA
ENDBRANCH   2   9
ENDBRANCH   1   5
BRANCH   1  10
ATOM     10  C   UNL     1       1.267  11.706  19.326  0.00  0.00    +0.000 A 
ATOM     11  C   UNL     1       1.321  12.362  20.565  0.00  0.00    +0.000 A 
ATOM     12  C   UNL     1       2.110  13.504  20.735  0.00  0.00    +0.000 A 
ATOM     13  C   UNL     1       2.887  13.992  19.685  0.00  0.00    +0.000 A 
ATOM     14  C   UNL     1       2.848  13.354  18.450  0.00  0.00    +0.000 A 
ATOM     15  C   UNL     1       2.056  12.217  18.280  0.00  0.00    +0.000 A 
BRANCH  13  16
ATOM     16  O   UNL     1       3.630  15.105  19.966  0.00  0.00    +0.000 OA
ATOM     17  C   UNL     1       4.911  14.841  20.530  0.00  0.00    +0.000 C 
ENDBRANCH  13  16
ENDBRANCH   1  10
BRANCH   1  18
ATOM     18  O   UNL     1       1.210   9.413  18.406  0.00  0.00    +0.000 OA
BRANCH  18  19
ATOM     19  C   UNL     1       1.833   8.436  19.236  0.00  0.00    +0.000 C 
BRANCH  19  20
ATOM     20  C   UNL     1       2.458   7.284  18.444  0.00  0.00    +0.000 C 
BRANCH  20  21
ATOM     21  O   UNL     1       3.608   7.744  17.726  0.00  0.00    +0.000 OA
ATOM     22  H   UNL     1       3.731   7.166  16.954  0.00  0.00    +0.000 HD
ENDBRANCH  20  21
BRANCH  20  23
ATOM     23  C   UNL     1       2.852   6.200  19.484  0.00  0.00    +0.000 C 
BRANCH  23  24
ATOM     24  N   UNL     1       2.383   4.826  19.226  0.00  0.00    +0.000 NA
ATOM     25  C   UNL     1       2.997   3.875  20.160  0.00  0.00    +0.000 C 
ATOM     26  C   UNL     1       2.564   2.438  19.880  0.00  0.00    +0.000 C 
ATOM     27  C   UNL     1       2.811   2.040  18.430  0.00  0.00    +0.000 C 
ATOM     28  C   UNL     1       2.193   3.060  17.482  0.00  0.00    +0.000 C 
ATOM     29  C   UNL     1       2.640   4.480  17.819  0.00  0.00    +0.000 C 
BRANCH  27  30
ATOM     30  O   UNL     1       4.212   1.899  18.176  0.00  0.00    +0.000 OA
ATOM     31  H   UNL     1       4.367   1.948  17.219  0.00  0.00    +0.000 HD
ENDBRANCH  27  30
ENDBRANCH  23  24
ENDBRANCH  20  23
ENDBRANCH  19  20
ENDBRANCH  18  19
ENDBRANCH   1  18
TORSDOF 11
ENDMDL
MODEL 6
REMARK VINA RESULT:      -6.7      4.437      7.955
REMARK  Name = 
REMARK  13 active torsions:
REMARK  status: ('A' for Active; 'I' for Inactive)
REMARK    1  A    between atoms: C_1  and  O_2
REMARK    2  A    between atoms: O_2  and  C_3
REMARK    3  A    between atoms: C_6  and  C_7
REMARK    4  A    between atoms: C_7  and  O_8
REMARK    5  A    between atoms: C_7  and  C_20
REMARK    6  A    between atoms: O_8  and  C_9
REMARK    7  A    between atoms: C_9  and  C_10
REMARK    8  A    between atoms: C_10  and  O_11
REMARK    9  A    between atoms: C_10  and  C_12
REMARK   10  A    between atoms: C_12  and  N_13
REMARK   11  A    between atoms: C_16  and  O_17
REMARK   12  A    between atoms: C_23  and  O_24
REMARK   13  A    between atoms: O_24  and  C_25
REMARK                            x       y       z     vdW  Elec       q    Type
REMARK                         _______ _______ _______ _____ _____    ______ ____
ROOT
ATOM      1  C   UNL     1       2.828   7.124  17.872  0.00  0.00    +0.000 C 
ENDROOT
BRANCH   1   5
ATOM      2  C   UNL     1       1.036  10.711  19.557  0.00  0.00    +0.000 A 
ATOM      3  C   UNL     1       1.540  10.710  18.257  0.00  0.00    +0.000 A 
ATOM      4  C   UNL     1       2.076   9.545  17.699  0.00  0.00    +0.000 A 
ATOM      5  C   UNL     1       2.103   8.351  18.433  0.00  0.00    +0.000 A 
ATOM      6  C   UNL     1       1.504   8.348  19.705  0.00  0.00    +0.000 A 
ATOM      7  C   UNL     1       1.021   9.524  20.281  0.00  0.00    +0.000 A 
BRANCH   2   9
ATOM      8  C   UNL     1      -0.321  11.885  21.096  0.00  0.00    +0.000 C 
ATOM      9  O   UNL     1       0.611  11.925  20.023  0.00  0.00    +0.000 OA
ENDBRANCH   2   9
ENDBRANCH   1   5
BRANCH   1  10
ATOM     10  C   UNL     1       2.543   5.777  18.532  0.00  0.00    +0.000 A 
ATOM     11  C   UNL     1       2.976   5.472  19.831  0.00  0.00    +0.000 A 
ATOM     12  C   UNL     1       2.657   4.244  20.421  0.00  0.00    +0.000 A 
ATOM     13  C   UNL     1       1.872   3.314  19.741  0.00  0.00    +0.000 A 
ATOM     14  C   UNL     1       1.433   3.599  18.453  0.00  0.00    +0.000 A 
ATOM     15  C   UNL     1       1.756   4.822  17.863  0.00  0.00    +0.000 A 
BRANCH  13  16
ATOM     16  O   UNL     1       1.610   2.155  20.417  0.00  0.00    +0.000 OA
ATOM     17  C   UNL     1       1.651   2.268  21.836  0.00  0.00    +0.000 C 
ENDBRANCH  13  16
ENDBRANCH   1  10
BRANCH   1  18
ATOM     18  O   UNL     1       4.248   7.370  17.715  0.00  0.00    +0.000 OA
BRANCH  18  19
ATOM     19  C   UNL     1       4.820   6.848  16.518  0.00  0.00    +0.000 C 
BRANCH  19  20
ATOM     20  C   UNL     1       6.009   5.919  16.776  0.00  0.00    +0.000 C 
BRANCH  20  21
ATOM     21  O   UNL     1       6.114   5.625  18.173  0.00  0.00    +0.000 OA
ATOM     22  H   UNL     1       5.221   5.441  18.509  0.00  0.00    +0.000 HD
ENDBRANCH  20  21
BRANCH  20  23
ATOM     23  C   UNL     1       5.741   4.627  15.958  0.00  0.00    +0.000 C 
BRANCH  23  24
ATOM     24  N   UNL     1       5.837   4.734  14.491  0.00  0.00    +0.000 NA
ATOM     25  C   UNL     1       5.080   3.662  13.833  0.00  0.00    +0.000 C 
ATOM     26  C   UNL     1       5.204   3.724  12.312  0.00  0.00    +0.000 C 
ATOM     27  C   UNL     1       6.660   3.742  11.860  0.00  0.00    +0.000 C 
ATOM     28  C   UNL     1       7.431   4.840  12.582  0.00  0.00    +0.000 C 
ATOM     29  C   UNL     1       7.254   4.748  14.095  0.00  0.00    +0.000 C 
BRANCH  27  30
ATOM     30  O   UNL     1       7.274   2.468  12.079  0.00  0.00    +0.000 OA
ATOM     31  H   UNL     1       6.606   1.846  12.409  0.00  0.00    +0.000 HD
ENDBRANCH  27  30
ENDBRANCH  23  24
ENDBRANCH  20  23
ENDBRANCH  19  20
ENDBRANCH  18  19
ENDBRANCH   1  18
TORSDOF 11
ENDMDL
MODEL 7
REMARK VINA RESULT:      -6.7      7.219     11.260
REMARK  Name = 
REMARK  13 active torsions:
REMARK  status: ('A' for Active; 'I' for Inactive)
REMARK    1  A    between atoms: C_1  and  O_2
REMARK    2  A    between atoms: O_2  and  C_3
REMARK    3  A    between atoms: C_6  and  C_7
REMARK    4  A    between atoms: C_7  and  O_8
REMARK    5  A    between atoms: C_7  and  C_20
REMARK    6  A    between atoms: O_8  and  C_9
REMARK    7  A    between atoms: C_9  and  C_10
REMARK    8  A    between atoms: C_10  and  O_11
REMARK    9  A    between atoms: C_10  and  C_12
REMARK   10  A    between atoms: C_12  and  N_13
REMARK   11  A    between atoms: C_16  and  O_17
REMARK   12  A    between atoms: C_23  and  O_24
REMARK   13  A    between atoms: O_24  and  C_25
REMARK                            x       y       z     vdW  Elec       q    Type
REMARK                         _______ _______ _______ _____ _____    ______ ____
ROOT
ATOM      1  C   UNL     1       0.679  10.500  18.654  0.00  0.00    +0.000 C 
ENDROOT
BRANCH   1   5
ATOM      2  C   UNL     1       2.462   6.630  19.525  0.00  0.00    +0.000 A 
ATOM      3  C   UNL     1       2.606   7.214  18.267  0.00  0.00    +0.000 A 
ATOM      4  C   UNL     1       2.070   8.478  18.000  0.00  0.00    +0.000 A 
ATOM      5  C   UNL     1       1.391   9.189  18.999  0.00  0.00    +0.000 A 
ATOM      6  C   UNL     1       1.340   8.626  20.286  0.00  0.00    +0.000 A 
ATOM      7  C   UNL     1       1.824   7.341  20.535  0.00  0.00    +0.000 A 
BRANCH   2   9
ATOM      8  C   UNL     1       2.401   4.575  20.694  0.00  0.00    +0.000 C 
ATOM      9  O   UNL     1       2.956   5.360  19.645  0.00  0.00    +0.000 OA
ENDBRANCH   2   9
ENDBRANCH   1   5
BRANCH   1  10
ATOM     10  C   UNL     1       1.394  11.802  19.008  0.00  0.00    +0.000 A 
ATOM     11  C   UNL     1       1.257  12.416  20.262  0.00  0.00    +0.000 A 
ATOM     12  C   UNL     1       1.964  13.584  20.567  0.00  0.00    +0.000 A 
ATOM     13  C   UNL     1       2.846  14.141  19.642  0.00  0.00    +0.000 A 
ATOM     14  C   UNL     1       2.996  13.546  18.395  0.00  0.00    +0.000 A 
ATOM     15  C   UNL     1       2.287  12.382  18.089  0.00  0.00    +0.000 A 
BRANCH  13  16
ATOM     16  O   UNL     1       3.494  15.273  20.050  0.00  0.00    +0.000 OA
ATOM     17  C   UNL     1       4.642  15.616  19.279  0.00  0.00    +0.000 C 
ENDBRANCH  13  16
ENDBRANCH   1  10
BRANCH   1  18
ATOM     18  O   UNL     1      -0.699  10.492  19.102  0.00  0.00    +0.000 OA
BRANCH  18  19
ATOM     19  C   UNL     1      -1.661  10.217  18.085  0.00  0.00    +0.000 C 
BRANCH  19  20
ATOM     20  C   UNL     1      -2.467  11.451  17.671  0.00  0.00    +0.000 C 
BRANCH  20  21
ATOM     21  O   UNL     1      -2.013  11.935  16.402  0.00  0.00    +0.000 OA
ATOM     22  H   UNL     1      -1.676  12.838  16.528  0.00  0.00    +0.000 HD
ENDBRANCH  20  21
BRANCH  20  23
ATOM     23  C   UNL     1      -3.950  11.000  17.592  0.00  0.00    +0.000 C 
BRANCH  23  24
ATOM     24  N   UNL     1      -4.947  11.867  18.246  0.00  0.00    +0.000 NA
ATOM     25  C   UNL     1      -4.447  12.370  19.531  0.00  0.00    +0.000 C 
ATOM     26  C   UNL     1      -5.482  13.232  20.251  0.00  0.00    +0.000 C 
ATOM     27  C   UNL     1      -6.814  12.508  20.410  0.00  0.00    +0.000 C 
ATOM     28  C   UNL     1      -7.294  11.967  19.070  0.00  0.00    +0.000 C 
ATOM     29  C   UNL     1      -6.215  11.134  18.383  0.00  0.00    +0.000 C 
BRANCH  27  30
ATOM     30  O   UNL     1      -6.704  11.452  21.369  0.00  0.00    +0.000 OA
ATOM     31  H   UNL     1      -7.292  11.640  22.118  0.00  0.00    +0.000 HD
ENDBRANCH  27  30
ENDBRANCH  23  24
ENDBRANCH  20  23
ENDBRANCH  19  20
ENDBRANCH  18  19
ENDBRANCH   1  18
TORSDOF 11
ENDMDL
MODEL 8
REMARK VINA RESULT:      -6.6      5.724     10.209
REMARK  Name = 
REMARK  13 active torsions:
REMARK  status: ('A' for Active; 'I' for Inactive)
REMARK    1  A    between atoms: C_1  and  O_2
REMARK    2  A    between atoms: O_2  and  C_3
REMARK    3  A    between atoms: C_6  and  C_7
REMARK    4  A    between atoms: C_7  and  O_8
REMARK    5  A    between atoms: C_7  and  C_20
REMARK    6  A    between atoms: O_8  and  C_9
REMARK    7  A    between atoms: C_9  and  C_10
REMARK    8  A    between atoms: C_10  and  O_11
REMARK    9  A    between atoms: C_10  and  C_12
REMARK   10  A    between atoms: C_12  and  N_13
REMARK   11  A    between atoms: C_16  and  O_17
REMARK   12  A    between atoms: C_23  and  O_24
REMARK   13  A    between atoms: O_24  and  C_25
REMARK                            x       y       z     vdW  Elec       q    Type
REMARK                         _______ _______ _______ _____ _____    ______ ____
ROOT
ATOM      1  C   UNL     1       0.655  10.621  18.361  0.00  0.00    +0.000 C 
ENDROOT
BRANCH   1   5
ATOM      2  C   UNL     1       2.881  13.936  20.086  0.00  0.00    +0.000 A 
ATOM      3  C   UNL     1       2.816  13.763  18.704  0.00  0.00    +0.000 A 
ATOM      4  C   UNL     1       2.065  12.723  18.147  0.00  0.00    +0.000 A 
ATOM      5  C   UNL     1       1.348  11.843  18.969  0.00  0.00    +0.000 A 
ATOM      6  C   UNL     1       1.348  12.091  20.353  0.00  0.00    +0.000 A 
ATOM      7  C   UNL     1       2.144  13.092  20.911  0.00  0.00    +0.000 A 
BRANCH   2   9
ATOM      8  C   UNL     1       4.955  15.041  19.839  0.00  0.00    +0.000 C 
ATOM      9  O   UNL     1       3.709  14.935  20.517  0.00  0.00    +0.000 OA
ENDBRANCH   2   9
ENDBRANCH   1   5
BRANCH   1  10
ATOM     10  C   UNL     1      -0.857  10.699  18.158  0.00  0.00    +0.000 A 
ATOM     11  C   UNL     1      -1.551   9.792  17.343  0.00  0.00    +0.000 A 
ATOM     12  C   UNL     1      -2.942   9.865  17.217  0.00  0.00    +0.000 A 
ATOM     13  C   UNL     1      -3.669  10.819  17.927  0.00  0.00    +0.000 A 
ATOM     14  C   UNL     1      -2.999  11.725  18.741  0.00  0.00    +0.000 A 
ATOM     15  C   UNL     1      -1.610  11.655  18.863  0.00  0.00    +0.000 A 
BRANCH  13  16
ATOM     16  O   UNL     1      -5.023  10.791  17.741  0.00  0.00    +0.000 OA
ATOM     17  C   UNL     1      -5.689  12.021  18.010  0.00  0.00    +0.000 C 
ENDBRANCH  13  16
ENDBRANCH   1  10
BRANCH   1  18
ATOM     18  O   UNL     1       1.058   9.395  19.021  0.00  0.00    +0.000 OA
BRANCH  18  19
ATOM     19  C   UNL     1       1.981   8.592  18.289  0.00  0.00    +0.000 C 
BRANCH  19  20
ATOM     20  C   UNL     1       2.605   7.476  19.131  0.00  0.00    +0.000 C 
BRANCH  20  21
ATOM     21  O   UNL     1       1.852   7.282  20.333  0.00  0.00    +0.000 OA
ATOM     22  H   UNL     1       2.343   6.665  20.899  0.00  0.00    +0.000 HD
ENDBRANCH  20  21
BRANCH  20  23
ATOM     23  C   UNL     1       2.581   6.197  18.251  0.00  0.00    +0.000 C 
BRANCH  23  24
ATOM     24  N   UNL     1       2.207   4.936  18.917  0.00  0.00    +0.000 NA
ATOM     25  C   UNL     1       3.391   4.248  19.446  0.00  0.00    +0.000 C 
ATOM     26  C   UNL     1       3.034   2.914  20.099  0.00  0.00    +0.000 C 
ATOM     27  C   UNL     1       2.234   2.018  19.161  0.00  0.00    +0.000 C 
ATOM     28  C   UNL     1       1.031   2.765  18.600  0.00  0.00    +0.000 C 
ATOM     29  C   UNL     1       1.440   4.100  17.982  0.00  0.00    +0.000 C 
BRANCH  27  30
ATOM     30  O   UNL     1       3.062   1.528  18.101  0.00  0.00    +0.000 OA
ATOM     31  H   UNL     1       3.080   2.182  17.384  0.00  0.00    +0.000 HD
ENDBRANCH  27  30
ENDBRANCH  23  24
ENDBRANCH  20  23
ENDBRANCH  19  20
ENDBRANCH  18  19
ENDBRANCH   1  18
TORSDOF 11
ENDMDL
MODEL 9
REMARK VINA RESULT:      -6.6      4.705      8.160
REMARK  Name = 
REMARK  13 active torsions:
REMARK  status: ('A' for Active; 'I' for Inactive)
REMARK    1  A    between atoms: C_1  and  O_2
REMARK    2  A    between atoms: O_2  and  C_3
REMARK    3  A    between atoms: C_6  and  C_7
REMARK    4  A    between atoms: C_7  and  O_8
REMARK    5  A    between atoms: C_7  and  C_20
REMARK    6  A    between atoms: O_8  and  C_9
REMARK    7  A    between atoms: C_9  and  C_10
REMARK    8  A    between atoms: C_10  and  O_11
REMARK    9  A    between atoms: C_10  and  C_12
REMARK   10  A    between atoms: C_12  and  N_13
REMARK   11  A    between atoms: C_16  and  O_17
REMARK   12  A    between atoms: C_23  and  O_24
REMARK   13  A    between atoms: O_24  and  C_25
REMARK                            x       y       z     vdW  Elec       q    Type
REMARK                         _______ _______ _______ _____ _____    ______ ____
ROOT
ATOM      1  C   UNL     1       2.669   6.318  17.873  0.00  0.00    +0.000 C 
ENDROOT
BRANCH   1   5
ATOM      2  C   UNL     1       1.489   3.489  20.959  0.00  0.00    +0.000 A 
ATOM      3  C   UNL     1       2.233   4.625  21.280  0.00  0.00    +0.000 A 
ATOM      4  C   UNL     1       2.575   5.557  20.295  0.00  0.00    +0.000 A 
ATOM      5  C   UNL     1       2.162   5.375  18.968  0.00  0.00    +0.000 A 
ATOM      6  C   UNL     1       1.333   4.276  18.683  0.00  0.00    +0.000 A 
ATOM      7  C   UNL     1       1.041   3.317  19.654  0.00  0.00    +0.000 A 
BRANCH   2   9
ATOM      8  C   UNL     1       2.265   1.590  22.133  0.00  0.00    +0.000 C 
ATOM      9  O   UNL     1       1.285   2.610  21.986  0.00  0.00    +0.000 OA
ENDBRANCH   2   9
ENDBRANCH   1   5
BRANCH   1  10
ATOM     10  C   UNL     1       3.943   5.916  17.133  0.00  0.00    +0.000 A 
ATOM     11  C   UNL     1       4.889   6.858  16.703  0.00  0.00    +0.000 A 
ATOM     12  C   UNL     1       6.066   6.450  16.068  0.00  0.00    +0.000 A 
ATOM     13  C   UNL     1       6.339   5.095  15.883  0.00  0.00    +0.000 A 
ATOM     14  C   UNL     1       5.414   4.147  16.304  0.00  0.00    +0.000 A 
ATOM     15  C   UNL     1       4.237   4.555  16.933  0.00  0.00    +0.000 A 
BRANCH  13  16
ATOM     16  O   UNL     1       7.525   4.809  15.265  0.00  0.00    +0.000 OA
ATOM     17  C   UNL     1       7.513   4.963  13.849  0.00  0.00    +0.000 C 
ENDBRANCH  13  16
ENDBRANCH   1  10
BRANCH   1  18
ATOM     18  O   UNL     1       2.711   7.693  18.331  0.00  0.00    +0.000 OA
BRANCH  18  19
ATOM     19  C   UNL     1       1.798   8.573  17.679  0.00  0.00    +0.000 C 
BRANCH  19  20
ATOM     20  C   UNL     1       1.523   9.851  18.476  0.00  0.00    +0.000 C 
BRANCH  20  21
ATOM     21  O   UNL     1       2.218  10.958  17.891  0.00  0.00    +0.000 OA
ATOM     22  H   UNL     1       3.124  10.962  18.242  0.00  0.00    +0.000 HD
ENDBRANCH  20  21
BRANCH  20  23
ATOM     23  C   UNL     1      -0.012  10.076  18.427  0.00  0.00    +0.000 C 
BRANCH  23  24
ATOM     24  N   UNL     1      -0.642  10.643  19.634  0.00  0.00    +0.000 NA
ATOM     25  C   UNL     1      -0.909  12.076  19.466  0.00  0.00    +0.000 C 
ATOM     26  C   UNL     1      -1.517  12.696  20.723  0.00  0.00    +0.000 C 
ATOM     27  C   UNL     1      -0.669  12.424  21.959  0.00  0.00    +0.000 C 
ATOM     28  C   UNL     1      -0.377  10.935  22.092  0.00  0.00    +0.000 C 
ATOM     29  C   UNL     1       0.206  10.361  20.803  0.00  0.00    +0.000 C 
BRANCH  27  30
ATOM     30  O   UNL     1       0.549  13.174  21.912  0.00  0.00    +0.000 OA
ATOM     31  H   UNL     1       0.965  13.159  22.788  0.00  0.00    +0.000 HD
ENDBRANCH  27  30
ENDBRANCH  23  24
ENDBRANCH  20  23
ENDBRANCH  19  20
ENDBRANCH  18  19
ENDBRANCH   1  18
TORSDOF 11
ENDMDL
