MODEL 1
REMARK VINA RESULT:      -8.7      0.000      0.000
REMARK  Name = 
REMARK  6 active torsions:
REMARK  status: ('A' for Active; 'I' for Inactive)
REMARK    1  A    between atoms: C_2  and  C_10
REMARK    2  A    between atoms: N_3  and  C_4
REMARK    3  A    between atoms: C_4  and  C_5
REMARK    4  A    between atoms: C_10  and  C_12
REMARK    5  A    between atoms: N_14  and  C_15
REMARK    6  A    between atoms: C_15  and  C_16
REMARK                            x       y       z     vdW  Elec       q    Type
REMARK                         _______ _______ _______ _____ _____    ______ ____
ROOT
ATOM      1  C   UNL     1       4.978   5.211  17.737  0.00  0.00    +0.000 A 
ATOM      2  C   UNL     1       4.424   6.477  17.800  0.00  0.00    +0.000 A 
ATOM      3  N   UNL     1       3.071   6.364  17.988  0.00  0.00    +0.000 N 
ATOM      4  C   UNL     1       2.715   5.033  18.035  0.00  0.00    +0.000 A 
ATOM      5  C   UNL     1       1.458   4.417  18.153  0.00  0.00    +0.000 A 
ATOM      6  C   UNL     1       1.406   3.020  18.184  0.00  0.00    +0.000 A 
ATOM      7  C   UNL     1       2.567   2.260  18.116  0.00  0.00    +0.000 A 
ATOM      8  C   UNL     1       3.815   2.880  17.993  0.00  0.00    +0.000 A 
ATOM      9  C   UNL     1       3.898   4.289  17.938  0.00  0.00    +0.000 A 
ENDROOT
BRANCH   1  10
ATOM     10  C   UNL     1       6.387   4.913  17.475  0.00  0.00    +0.000 C 
ATOM     11  O   UNL     1       7.119   4.361  18.296  0.00  0.00    +0.000 OA
BRANCH  10  13
ATOM     12  O   UNL     1       7.761   6.185  15.930  0.00  0.00    +0.000 OA
ATOM     13  C   UNL     1       7.002   5.236  16.092  0.00  0.00    +0.000 C 
ATOM     14  N   UNL     1       6.603   4.400  15.070  0.00  0.00    +0.000 N 
ATOM     15  H   UNL     1       6.028   3.597  15.306  0.00  0.00    +0.000 HD
BRANCH  14  16
ATOM     16  C   UNL     1       7.088   4.575  13.723  0.00  0.00    +0.000 C 
BRANCH  16  17
ATOM     17  C   UNL     1       6.293   3.730  12.802  0.00  0.00    +0.000 A 
ATOM     18  C   UNL     1       6.621   2.701  11.940  0.00  0.00    +0.000 A 
ATOM     19  C   UNL     1       5.412   2.295  11.327  0.00  0.00    +0.000 A 
ATOM     20  C   UNL     1       4.427   3.100  11.849  0.00  0.00    +0.000 A 
ATOM     21  O   UNL     1       4.952   3.975  12.746  0.00  0.00    +0.000 OA
ENDBRANCH  16  17
ENDBRANCH  14  16
ENDBRANCH  10  13
ENDBRANCH   1  10
BRANCH   3  22
ATOM     22  C   UNL     1       2.163   7.511  18.009  0.00  0.00    +0.000 C 
BRANCH  22  23
ATOM     23  C   UNL     1       1.790   7.952  19.417  0.00  0.00    +0.000 C 
ATOM     24  O   UNL     1       1.818   7.173  20.372  0.00  0.00    +0.000 OA
ATOM     25  N   UNL     1       1.429   9.292  19.584  0.00  0.00    +0.000 N 
ATOM     26  C   UNL     1       1.216   9.795  20.940  0.00  0.00    +0.000 C 
ATOM     27  C   UNL     1      -0.276   9.931  21.228  0.00  0.00    +0.000 C 
ATOM     28  C   UNL     1      -0.942  10.822  20.179  0.00  0.00    +0.000 C 
ATOM     29  C   UNL     1      -0.648  10.318  18.763  0.00  0.00    +0.000 C 
ATOM     30  C   UNL     1       0.855  10.131  18.530  0.00  0.00    +0.000 C 
ENDBRANCH  22  23
ENDBRANCH   3  22
TORSDOF 6
ENDMDL
MODEL 2
REMARK VINA RESULT:      -8.5      1.001      1.236
REMARK  Name = 
REMARK  6 active torsions:
REMARK  status: ('A' for Active; 'I' for Inactive)
REMARK    1  A    between atoms: C_2  and  C_10
REMARK    2  A    between atoms: N_3  and  C_4
REMARK    3  A    between atoms: C_4  and  C_5
REMARK    4  A    between atoms: C_10  and  C_12
REMARK    5  A    between atoms: N_14  and  C_15
REMARK    6  A    between atoms: C_15  and  C_16
REMARK                            x       y       z     vdW  Elec       q    Type
REMARK                         _______ _______ _______ _____ _____    ______ ____
ROOT
ATOM      1  C   UNL     1       5.052   5.357  18.529  0.00  0.00    +0.000 A 
ATOM      2  C   UNL     1       4.440   6.595  18.463  0.00  0.00    +0.000 A 
ATOM      3  N   UNL     1       3.096   6.420  18.262  0.00  0.00    +0.000 N 
ATOM      4  C   UNL     1       2.807   5.074  18.178  0.00  0.00    +0.000 A 
ATOM      5  C   UNL     1       1.600   4.402  17.928  0.00  0.00    +0.000 A 
ATOM      6  C   UNL     1       1.611   3.004  17.912  0.00  0.00    +0.000 A 
ATOM      7  C   UNL     1       2.782   2.295  18.154  0.00  0.00    +0.000 A 
ATOM      8  C   UNL     1       3.983   2.971  18.397  0.00  0.00    +0.000 A 
ATOM      9  C   UNL     1       4.007   4.384  18.399  0.00  0.00    +0.000 A 
ENDROOT
BRANCH   1  10
ATOM     10  C   UNL     1       6.492   5.128  18.663  0.00  0.00    +0.000 C 
ATOM     11  O   UNL     1       7.072   5.134  19.749  0.00  0.00    +0.000 OA
BRANCH  10  13
ATOM     12  O   UNL     1       8.374   4.138  17.493  0.00  0.00    +0.000 OA
ATOM     13  C   UNL     1       7.344   4.798  17.415  0.00  0.00    +0.000 C 
ATOM     14  N   UNL     1       6.871   5.329  16.232  0.00  0.00    +0.000 N 
ATOM     15  H   UNL     1       5.973   5.804  16.247  0.00  0.00    +0.000 HD
BRANCH  14  16
ATOM     16  C   UNL     1       7.557   5.112  14.983  0.00  0.00    +0.000 C 
BRANCH  16  17
ATOM     17  C   UNL     1       6.639   4.452  14.027  0.00  0.00    +0.000 A 
ATOM     18  C   UNL     1       5.306   4.092  14.088  0.00  0.00    +0.000 A 
ATOM     19  C   UNL     1       5.000   3.488  12.846  0.00  0.00    +0.000 A 
ATOM     20  C   UNL     1       6.160   3.514  12.109  0.00  0.00    +0.000 A 
ATOM     21  O   UNL     1       7.162   4.097  12.818  0.00  0.00    +0.000 OA
ENDBRANCH  16  17
ENDBRANCH  14  16
ENDBRANCH  10  13
ENDBRANCH   1  10
BRANCH   3  22
ATOM     22  C   UNL     1       2.161   7.526  18.054  0.00  0.00    +0.000 C 
BRANCH  22  23
ATOM     23  C   UNL     1       1.708   8.177  19.354  0.00  0.00    +0.000 C 
ATOM     24  O   UNL     1       1.729   7.572  20.427  0.00  0.00    +0.000 OA
ATOM     25  N   UNL     1       1.280   9.505  19.278  0.00  0.00    +0.000 N 
ATOM     26  C   UNL     1       0.986  10.217  20.521  0.00  0.00    +0.000 C 
ATOM     27  C   UNL     1      -0.522  10.322  20.729  0.00  0.00    +0.000 C 
ATOM     28  C   UNL     1      -1.181  10.988  19.521  0.00  0.00    +0.000 C 
ATOM     29  C   UNL     1      -0.804  10.270  18.222  0.00  0.00    +0.000 C 
ATOM     30  C   UNL     1       0.715  10.124  18.078  0.00  0.00    +0.000 C 
ENDBRANCH  22  23
ENDBRANCH   3  22
TORSDOF 6
ENDMDL
MODEL 3
REMARK VINA RESULT:      -8.2      3.948      7.074
REMARK  Name = 
REMARK  6 active torsions:
REMARK  status: ('A' for Active; 'I' for Inactive)
REMARK    1  A    between atoms: C_2  and  C_10
REMARK    2  A    between atoms: N_3  and  C_4
REMARK    3  A    between atoms: C_4  and  C_5
REMARK    4  A    between atoms: C_10  and  C_12
REMARK    5  A    between atoms: N_14  and  C_15
REMARK    6  A    between atoms: C_15  and  C_16
REMARK                            x       y       z     vdW  Elec       q    Type
REMARK                         _______ _______ _______ _____ _____    ______ ____
ROOT
ATOM      1  C   UNL     1       6.784   5.344  17.510  0.00  0.00    +0.000 A 
ATOM      2  C   UNL     1       5.790   4.559  18.068  0.00  0.00    +0.000 A 
ATOM      3  N   UNL     1       5.229   3.785  17.086  0.00  0.00    +0.000 N 
ATOM      4  C   UNL     1       5.830   4.057  15.874  0.00  0.00    +0.000 A 
ATOM      5  C   UNL     1       5.570   3.568  14.584  0.00  0.00    +0.000 A 
ATOM      6  C   UNL     1       6.364   4.027  13.529  0.00  0.00    +0.000 A 
ATOM      7  C   UNL     1       7.396   4.932  13.753  0.00  0.00    +0.000 A 
ATOM      8  C   UNL     1       7.646   5.419  15.040  0.00  0.00    +0.000 A 
ATOM      9  C   UNL     1       6.846   4.989  16.123  0.00  0.00    +0.000 A 
ENDROOT
BRANCH   1  10
ATOM     10  C   UNL     1       7.566   6.355  18.224  0.00  0.00    +0.000 C 
ATOM     11  O   UNL     1       8.275   6.091  19.195  0.00  0.00    +0.000 OA
BRANCH  10  13
ATOM     12  O   UNL     1       6.831   8.201  16.829  0.00  0.00    +0.000 OA
ATOM     13  C   UNL     1       7.577   7.820  17.725  0.00  0.00    +0.000 C 
ATOM     14  N   UNL     1       8.503   8.636  18.340  0.00  0.00    +0.000 N 
ATOM     15  H   UNL     1       9.031   8.257  19.120  0.00  0.00    +0.000 HD
BRANCH  14  16
ATOM     16  C   UNL     1       8.636  10.026  17.981  0.00  0.00    +0.000 C 
BRANCH  16  17
ATOM     17  C   UNL     1       9.467  10.717  18.994  0.00  0.00    +0.000 A 
ATOM     18  C   UNL     1      10.692  11.354  18.940  0.00  0.00    +0.000 A 
ATOM     19  C   UNL     1      10.959  11.815  20.250  0.00  0.00    +0.000 A 
ATOM     20  C   UNL     1       9.887  11.429  21.019  0.00  0.00    +0.000 A 
ATOM     21  O   UNL     1       8.976  10.760  20.266  0.00  0.00    +0.000 OA
ENDBRANCH  16  17
ENDBRANCH  14  16
ENDBRANCH  10  13
ENDBRANCH   1  10
BRANCH   3  22
ATOM     22  C   UNL     1       4.085   2.902  17.312  0.00  0.00    +0.000 C 
BRANCH  22  23
ATOM     23  C   UNL     1       2.875   3.627  17.883  0.00  0.00    +0.000 C 
ATOM     24  O   UNL     1       2.531   4.739  17.478  0.00  0.00    +0.000 OA
ATOM     25  N   UNL     1       2.155   2.964  18.881  0.00  0.00    +0.000 N 
ATOM     26  C   UNL     1       0.899   3.551  19.346  0.00  0.00    +0.000 C 
ATOM     27  C   UNL     1       1.096   4.221  20.702  0.00  0.00    +0.000 C 
ATOM     28  C   UNL     1       1.664   3.222  21.711  0.00  0.00    +0.000 C 
ATOM     29  C   UNL     1       2.940   2.566  21.176  0.00  0.00    +0.000 C 
ATOM     30  C   UNL     1       2.724   1.962  19.784  0.00  0.00    +0.000 C 
ENDBRANCH  22  23
ENDBRANCH   3  22
TORSDOF 6
ENDMDL
MODEL 4
REMARK VINA RESULT:      -8.1      0.962      1.393
REMARK  Name = 
REMARK  6 active torsions:
REMARK  status: ('A' for Active; 'I' for Inactive)
REMARK    1  A    between atoms: C_2  and  C_10
REMARK    2  A    between atoms: N_3  and  C_4
REMARK    3  A    between atoms: C_4  and  C_5
REMARK    4  A    between atoms: C_10  and  C_12
REMARK    5  A    between atoms: N_14  and  C_15
REMARK    6  A    between atoms: C_15  and  C_16
REMARK                            x       y       z     vdW  Elec       q    Type
REMARK                         _______ _______ _______ _____ _____    ______ ____
ROOT
ATOM      1  C   UNL     1       5.164   5.027  18.358  0.00  0.00    +0.000 A 
ATOM      2  C   UNL     1       4.647   6.132  19.011  0.00  0.00    +0.000 A 
ATOM      3  N   UNL     1       3.307   5.939  19.222  0.00  0.00    +0.000 N 
ATOM      4  C   UNL     1       2.921   4.721  18.701  0.00  0.00    +0.000 A 
ATOM      5  C   UNL     1       1.660   4.108  18.622  0.00  0.00    +0.000 A 
ATOM      6  C   UNL     1       1.576   2.841  18.038  0.00  0.00    +0.000 A 
ATOM      7  C   UNL     1       2.712   2.196  17.562  0.00  0.00    +0.000 A 
ATOM      8  C   UNL     1       3.964   2.815  17.639  0.00  0.00    +0.000 A 
ATOM      9  C   UNL     1       4.078   4.104  18.206  0.00  0.00    +0.000 A 
ENDROOT
BRANCH   1  10
ATOM     10  C   UNL     1       6.546   4.886  17.895  0.00  0.00    +0.000 C 
ATOM     11  O   UNL     1       7.410   4.292  18.540  0.00  0.00    +0.000 OA
BRANCH  10  13
ATOM     12  O   UNL     1       7.453   6.553  16.383  0.00  0.00    +0.000 OA
ATOM     13  C   UNL     1       6.959   5.438  16.510  0.00  0.00    +0.000 C 
ATOM     14  N   UNL     1       6.697   4.598  15.448  0.00  0.00    +0.000 N 
ATOM     15  H   UNL     1       6.351   3.665  15.651  0.00  0.00    +0.000 HD
BRANCH  14  16
ATOM     16  C   UNL     1       7.022   4.974  14.095  0.00  0.00    +0.000 C 
BRANCH  16  17
ATOM     17  C   UNL     1       6.339   4.056  13.153  0.00  0.00    +0.000 A 
ATOM     18  C   UNL     1       6.794   3.170  12.197  0.00  0.00    +0.000 A 
ATOM     19  C   UNL     1       5.644   2.582  11.619  0.00  0.00    +0.000 A 
ATOM     20  C   UNL     1       4.564   3.147  12.254  0.00  0.00    +0.000 A 
ATOM     21  O   UNL     1       4.975   4.044  13.187  0.00  0.00    +0.000 OA
ENDBRANCH  16  17
ENDBRANCH  14  16
ENDBRANCH  10  13
ENDBRANCH   1  10
BRANCH   3  22
ATOM     22  C   UNL     1       2.430   6.953  19.809  0.00  0.00    +0.000 C 
BRANCH  22  23
ATOM     23  C   UNL     1       2.161   8.123  18.874  0.00  0.00    +0.000 C 
ATOM     24  O   UNL     1       2.834   8.315  17.860  0.00  0.00    +0.000 OA
ATOM     25  N   UNL     1       1.097   8.965  19.209  0.00  0.00    +0.000 N 
ATOM     26  C   UNL     1       0.703  10.006  18.259  0.00  0.00    +0.000 C 
ATOM     27  C   UNL     1       1.208  11.369  18.726  0.00  0.00    +0.000 C 
ATOM     28  C   UNL     1       0.704  11.667  20.139  0.00  0.00    +0.000 C 
ATOM     29  C   UNL     1       1.065  10.532  21.102  0.00  0.00    +0.000 C 
ATOM     30  C   UNL     1       0.602   9.172  20.571  0.00  0.00    +0.000 C 
ENDBRANCH  22  23
ENDBRANCH   3  22
TORSDOF 6
ENDMDL
MODEL 5
REMARK VINA RESULT:      -8.0      0.931      1.228
REMARK  Name = 
REMARK  6 active torsions:
REMARK  status: ('A' for Active; 'I' for Inactive)
REMARK    1  A    between atoms: C_2  and  C_10
REMARK    2  A    between atoms: N_3  and  C_4
REMARK    3  A    between atoms: C_4  and  C_5
REMARK    4  A    between atoms: C_10  and  C_12
REMARK    5  A    between atoms: N_14  and  C_15
REMARK    6  A    between atoms: C_15  and  C_16
REMARK                            x       y       z     vdW  Elec       q    Type
REMARK                         _______ _______ _______ _____ _____    ______ ____
ROOT
ATOM      1  C   UNL     1       5.030   6.388  17.274  0.00  0.00    +0.000 A 
ATOM      2  C   UNL     1       4.176   7.458  17.478  0.00  0.00    +0.000 A 
ATOM      3  N   UNL     1       2.924   6.981  17.767  0.00  0.00    +0.000 N 
ATOM      4  C   UNL     1       2.931   5.602  17.743  0.00  0.00    +0.000 A 
ATOM      5  C   UNL     1       1.895   4.670  17.918  0.00  0.00    +0.000 A 
ATOM      6  C   UNL     1       2.210   3.310  17.848  0.00  0.00    +0.000 A 
ATOM      7  C   UNL     1       3.517   2.888  17.628  0.00  0.00    +0.000 A 
ATOM      8  C   UNL     1       4.542   3.822  17.448  0.00  0.00    +0.000 A 
ATOM      9  C   UNL     1       4.251   5.204  17.493  0.00  0.00    +0.000 A 
ENDROOT
BRANCH   1  10
ATOM     10  C   UNL     1       6.435   6.489  16.875  0.00  0.00    +0.000 C 
ATOM     11  O   UNL     1       7.154   7.437  17.190  0.00  0.00    +0.000 OA
BRANCH  10  13
ATOM     12  O   UNL     1       7.828   4.519  16.613  0.00  0.00    +0.000 OA
ATOM     13  C   UNL     1       7.096   5.342  16.074  0.00  0.00    +0.000 C 
ATOM     14  N   UNL     1       6.823   5.344  14.722  0.00  0.00    +0.000 N 
ATOM     15  H   UNL     1       6.151   6.020  14.372  0.00  0.00    +0.000 HD
BRANCH  14  16
ATOM     16  C   UNL     1       7.370   4.340  13.843  0.00  0.00    +0.000 C 
BRANCH  16  17
ATOM     17  C   UNL     1       6.289   3.796  12.988  0.00  0.00    +0.000 A 
ATOM     18  C   UNL     1       4.930   4.030  12.916  0.00  0.00    +0.000 A 
ATOM     19  C   UNL     1       4.436   3.193  11.888  0.00  0.00    +0.000 A 
ATOM     20  C   UNL     1       5.520   2.502  11.402  0.00  0.00    +0.000 A 
ATOM     21  O   UNL     1       6.650   2.860  12.064  0.00  0.00    +0.000 OA
ENDBRANCH  16  17
ENDBRANCH  14  16
ENDBRANCH  10  13
ENDBRANCH   1  10
BRANCH   3  22
ATOM     22  C   UNL     1       1.756   7.843  17.949  0.00  0.00    +0.000 C 
BRANCH  22  23
ATOM     23  C   UNL     1       1.636   8.395  19.362  0.00  0.00    +0.000 C 
ATOM     24  O   UNL     1       1.933   7.723  20.351  0.00  0.00    +0.000 OA
ATOM     25  N   UNL     1       1.189   9.713  19.488  0.00  0.00    +0.000 N 
ATOM     26  C   UNL     1       1.208  10.335  20.812  0.00  0.00    +0.000 C 
ATOM     27  C   UNL     1      -0.201  10.384  21.396  0.00  0.00    +0.000 C 
ATOM     28  C   UNL     1      -1.149  11.109  20.440  0.00  0.00    +0.000 C 
ATOM     29  C   UNL     1      -1.101  10.487  19.042  0.00  0.00    +0.000 C 
ATOM     30  C   UNL     1       0.334  10.393  18.513  0.00  0.00    +0.000 C 
ENDBRANCH  22  23
ENDBRANCH   3  22
TORSDOF 6
ENDMDL
MODEL 6
REMARK VINA RESULT:      -7.9      4.091      7.119
REMARK  Name = 
REMARK  6 active torsions:
REMARK  status: ('A' for Active; 'I' for Inactive)
REMARK    1  A    between atoms: C_2  and  C_10
REMARK    2  A    between atoms: N_3  and  C_4
REMARK    3  A    between atoms: C_4  and  C_5
REMARK    4  A    between atoms: C_10  and  C_12
REMARK    5  A    between atoms: N_14  and  C_15
REMARK    6  A    between atoms: C_15  and  C_16
REMARK                            x       y       z     vdW  Elec       q    Type
REMARK                         _______ _______ _______ _____ _____    ______ ____
ROOT
ATOM      1  C   UNL     1       6.653   5.649  17.453  0.00  0.00    +0.000 A 
ATOM      2  C   UNL     1       5.517   5.092  18.013  0.00  0.00    +0.000 A 
ATOM      3  N   UNL     1       4.888   4.319  17.071  0.00  0.00    +0.000 N 
ATOM      4  C   UNL     1       5.586   4.368  15.883  0.00  0.00    +0.000 A 
ATOM      5  C   UNL     1       5.316   3.797  14.629  0.00  0.00    +0.000 A 
ATOM      6  C   UNL     1       6.228   4.015  13.592  0.00  0.00    +0.000 A 
ATOM      7  C   UNL     1       7.381   4.763  13.799  0.00  0.00    +0.000 A 
ATOM      8  C   UNL     1       7.641   5.334  15.050  0.00  0.00    +0.000 A 
ATOM      9  C   UNL     1       6.728   5.148  16.111  0.00  0.00    +0.000 A 
ENDROOT
BRANCH   1  10
ATOM     10  C   UNL     1       7.552   6.592  18.120  0.00  0.00    +0.000 C 
ATOM     11  O   UNL     1       8.334   6.255  19.010  0.00  0.00    +0.000 OA
BRANCH  10  13
ATOM     12  O   UNL     1       6.901   8.485  16.749  0.00  0.00    +0.000 OA
ATOM     13  C   UNL     1       7.596   8.071  17.670  0.00  0.00    +0.000 C 
ATOM     14  N   UNL     1       8.491   8.862  18.360  0.00  0.00    +0.000 N 
ATOM     15  H   UNL     1       8.975   8.455  19.155  0.00  0.00    +0.000 HD
BRANCH  14  16
ATOM     16  C   UNL     1       8.648  10.262  18.054  0.00  0.00    +0.000 C 
BRANCH  16  17
ATOM     17  C   UNL     1       9.576  10.877  19.032  0.00  0.00    +0.000 A 
ATOM     18  C   UNL     1      10.907  11.242  18.974  0.00  0.00    +0.000 A 
ATOM     19  C   UNL     1      11.227  11.780  20.243  0.00  0.00    +0.000 A 
ATOM     20  C   UNL     1      10.078  11.707  20.992  0.00  0.00    +0.000 A 
ATOM     21  O   UNL     1       9.069  11.159  20.266  0.00  0.00    +0.000 OA
ENDBRANCH  16  17
ENDBRANCH  14  16
ENDBRANCH  10  13
ENDBRANCH   1  10
BRANCH   3  22
ATOM     22  C   UNL     1       3.605   3.655  17.301  0.00  0.00    +0.000 C 
BRANCH  22  23
ATOM     23  C   UNL     1       3.624   2.717  18.499  0.00  0.00    +0.000 C 
ATOM     24  O   UNL     1       3.898   1.520  18.385  0.00  0.00    +0.000 OA
ATOM     25  N   UNL     1       3.335   3.279  19.745  0.00  0.00    +0.000 N 
ATOM     26  C   UNL     1       3.495   2.451  20.941  0.00  0.00    +0.000 C 
ATOM     27  C   UNL     1       2.135   1.985  21.451  0.00  0.00    +0.000 C 
ATOM     28  C   UNL     1       1.223   3.185  21.707  0.00  0.00    +0.000 C 
ATOM     29  C   UNL     1       1.124   4.077  20.467  0.00  0.00    +0.000 C 
ATOM     30  C   UNL     1       2.509   4.471  19.943  0.00  0.00    +0.000 C 
ENDBRANCH  22  23
ENDBRANCH   3  22
TORSDOF 6
ENDMDL
MODEL 7
REMARK VINA RESULT:      -7.9      3.243      4.947
REMARK  Name = 
REMARK  6 active torsions:
REMARK  status: ('A' for Active; 'I' for Inactive)
REMARK    1  A    between atoms: C_2  and  C_10
REMARK    2  A    between atoms: N_3  and  C_4
REMARK    3  A    between atoms: C_4  and  C_5
REMARK    4  A    between atoms: C_10  and  C_12
REMARK    5  A    between atoms: N_14  and  C_15
REMARK    6  A    between atoms: C_15  and  C_16
REMARK                            x       y       z     vdW  Elec       q    Type
REMARK                         _______ _______ _______ _____ _____    ______ ____
ROOT
ATOM      1  C   UNL     1       5.102   6.502  17.344  0.00  0.00    +0.000 A 
ATOM      2  C   UNL     1       4.269   7.588  17.545  0.00  0.00    +0.000 A 
ATOM      3  N   UNL     1       2.998   7.137  17.793  0.00  0.00    +0.000 N 
ATOM      4  C   UNL     1       2.973   5.759  17.743  0.00  0.00    +0.000 A 
ATOM      5  C   UNL     1       1.911   4.849  17.873  0.00  0.00    +0.000 A 
ATOM      6  C   UNL     1       2.195   3.483  17.786  0.00  0.00    +0.000 A 
ATOM      7  C   UNL     1       3.496   3.034  17.592  0.00  0.00    +0.000 A 
ATOM      8  C   UNL     1       4.548   3.946  17.457  0.00  0.00    +0.000 A 
ATOM      9  C   UNL     1       4.290   5.333  17.520  0.00  0.00    +0.000 A 
ENDROOT
BRANCH   1  10
ATOM     10  C   UNL     1       6.518   6.575  16.983  0.00  0.00    +0.000 C 
ATOM     11  O   UNL     1       6.941   6.271  15.868  0.00  0.00    +0.000 OA
BRANCH  10  13
ATOM     12  O   UNL     1       8.002   6.408  18.896  0.00  0.00    +0.000 OA
ATOM     13  C   UNL     1       7.550   7.114  18.002  0.00  0.00    +0.000 C 
ATOM     14  N   UNL     1       7.887   8.442  17.841  0.00  0.00    +0.000 N 
ATOM     15  H   UNL     1       7.519   8.933  17.031  0.00  0.00    +0.000 HD
BRANCH  14  16
ATOM     16  C   UNL     1       8.833   9.089  18.715  0.00  0.00    +0.000 C 
BRANCH  16  17
ATOM     17  C   UNL     1       9.012  10.497  18.289  0.00  0.00    +0.000 A 
ATOM     18  C   UNL     1      10.064  11.388  18.379  0.00  0.00    +0.000 A 
ATOM     19  C   UNL     1       9.617  12.593  17.788  0.00  0.00    +0.000 A 
ATOM     20  C   UNL     1       8.325  12.364  17.379  0.00  0.00    +0.000 A 
ATOM     21  O   UNL     1       7.947  11.094  17.680  0.00  0.00    +0.000 OA
ENDBRANCH  16  17
ENDBRANCH  14  16
ENDBRANCH  10  13
ENDBRANCH   1  10
BRANCH   3  22
ATOM     22  C   UNL     1       1.847   8.024  17.960  0.00  0.00    +0.000 C 
BRANCH  22  23
ATOM     23  C   UNL     1       1.639   8.466  19.402  0.00  0.00    +0.000 C 
ATOM     24  O   UNL     1       1.867   7.717  20.353  0.00  0.00    +0.000 OA
ATOM     25  N   UNL     1       1.193   9.776  19.601  0.00  0.00    +0.000 N 
ATOM     26  C   UNL     1       1.131  10.293  20.968  0.00  0.00    +0.000 C 
ATOM     27  C   UNL     1      -0.313  10.312  21.463  0.00  0.00    +0.000 C 
ATOM     28  C   UNL     1      -1.192  11.119  20.508  0.00  0.00    +0.000 C 
ATOM     29  C   UNL     1      -1.058  10.607  19.071  0.00  0.00    +0.000 C 
ATOM     30  C   UNL     1       0.407  10.539  18.630  0.00  0.00    +0.000 C 
ENDBRANCH  22  23
ENDBRANCH   3  22
TORSDOF 6
ENDMDL
MODEL 8
REMARK VINA RESULT:      -7.8      4.214      7.205
REMARK  Name = 
REMARK  6 active torsions:
REMARK  status: ('A' for Active; 'I' for Inactive)
REMARK    1  A    between atoms: C_2  and  C_10
REMARK    2  A    between atoms: N_3  and  C_4
REMARK    3  A    between atoms: C_4  and  C_5
REMARK    4  A    between atoms: C_10  and  C_12
REMARK    5  A    between atoms: N_14  and  C_15
REMARK    6  A    between atoms: C_15  and  C_16
REMARK                            x       y       z     vdW  Elec       q    Type
REMARK                         _______ _______ _______ _____ _____    ______ ____
ROOT
ATOM      1  C   UNL     1       0.633  10.107  18.860  0.00  0.00    +0.000 A 
ATOM      2  C   UNL     1       0.858  11.055  19.841  0.00  0.00    +0.000 A 
ATOM      3  N   UNL     1      -0.251  11.852  19.955  0.00  0.00    +0.000 N 
ATOM      4  C   UNL     1      -1.209  11.453  19.047  0.00  0.00    +0.000 A 
ATOM      5  C   UNL     1      -2.475  11.982  18.747  0.00  0.00    +0.000 A 
ATOM      6  C   UNL     1      -3.243  11.348  17.767  0.00  0.00    +0.000 A 
ATOM      7  C   UNL     1      -2.774  10.212  17.116  0.00  0.00    +0.000 A 
ATOM      8  C   UNL     1      -1.510   9.693  17.416  0.00  0.00    +0.000 A 
ATOM      9  C   UNL     1      -0.703  10.325  18.388  0.00  0.00    +0.000 A 
ENDROOT
BRANCH   1  10
ATOM     10  C   UNL     1       1.609   9.119  18.396  0.00  0.00    +0.000 C 
ATOM     11  O   UNL     1       2.176   9.199  17.306  0.00  0.00    +0.000 OA
BRANCH  10  13
ATOM     12  O   UNL     1       1.662   7.887  20.487  0.00  0.00    +0.000 OA
ATOM     13  C   UNL     1       2.017   7.943  19.314  0.00  0.00    +0.000 C 
ATOM     14  N   UNL     1       2.827   6.997  18.721  0.00  0.00    +0.000 N 
ATOM     15  H   UNL     1       3.015   7.084  17.727  0.00  0.00    +0.000 HD
BRANCH  14  16
ATOM     16  C   UNL     1       3.294   5.843  19.450  0.00  0.00    +0.000 C 
BRANCH  16  17
ATOM     17  C   UNL     1       2.350   4.720  19.246  0.00  0.00    +0.000 A 
ATOM     18  C   UNL     1       1.933   4.024  18.127  0.00  0.00    +0.000 A 
ATOM     19  C   UNL     1       1.008   3.055  18.583  0.00  0.00    +0.000 A 
ATOM     20  C   UNL     1       0.916   3.223  19.944  0.00  0.00    +0.000 A 
ATOM     21  O   UNL     1       1.726   4.232  20.357  0.00  0.00    +0.000 OA
ENDBRANCH  16  17
ENDBRANCH  14  16
ENDBRANCH  10  13
ENDBRANCH   1  10
BRANCH   3  22
ATOM     22  C   UNL     1      -0.319  13.016  20.839  0.00  0.00    +0.000 C 
BRANCH  22  23
ATOM     23  C   UNL     1      -0.941  12.704  22.192  0.00  0.00    +0.000 C 
ATOM     24  O   UNL     1      -0.490  11.825  22.929  0.00  0.00    +0.000 OA
ATOM     25  N   UNL     1      -2.042  13.475  22.574  0.00  0.00    +0.000 N 
ATOM     26  C   UNL     1      -2.572  13.317  23.928  0.00  0.00    +0.000 C 
ATOM     27  C   UNL     1      -3.856  12.492  23.903  0.00  0.00    +0.000 C 
ATOM     28  C   UNL     1      -4.879  13.129  22.962  0.00  0.00    +0.000 C 
ATOM     29  C   UNL     1      -4.282  13.351  21.569  0.00  0.00    +0.000 C 
ATOM     30  C   UNL     1      -2.961  14.125  21.637  0.00  0.00    +0.000 C 
ENDBRANCH  22  23
ENDBRANCH   3  22
TORSDOF 6
ENDMDL
MODEL 9
REMARK VINA RESULT:      -7.8      3.072      4.965
REMARK  Name = 
REMARK  6 active torsions:
REMARK  status: ('A' for Active; 'I' for Inactive)
REMARK    1  A    between atoms: C_2  and  C_10
REMARK    2  A    between atoms: N_3  and  C_4
REMARK    3  A    between atoms: C_4  and  C_5
REMARK    4  A    between atoms: C_10  and  C_12
REMARK    5  A    between atoms: N_14  and  C_15
REMARK    6  A    between atoms: C_15  and  C_16
REMARK                            x       y       z     vdW  Elec       q    Type
REMARK                         _______ _______ _______ _____ _____    ______ ____
ROOT
ATOM      1  C   UNL     1       4.509   6.406  17.320  0.00  0.00    +0.000 A 
ATOM      2  C   UNL     1       3.812   7.487  17.829  0.00  0.00    +0.000 A 
ATOM      3  N   UNL     1       2.594   7.057  18.289  0.00  0.00    +0.000 N 
ATOM      4  C   UNL     1       2.467   5.700  18.077  0.00  0.00    +0.000 A 
ATOM      5  C   UNL     1       1.398   4.823  18.322  0.00  0.00    +0.000 A 
ATOM      6  C   UNL     1       1.566   3.471  18.009  0.00  0.00    +0.000 A 
ATOM      7  C   UNL     1       2.764   3.002  17.484  0.00  0.00    +0.000 A 
ATOM      8  C   UNL     1       3.823   3.882  17.237  0.00  0.00    +0.000 A 
ATOM      9  C   UNL     1       3.676   5.257  17.524  0.00  0.00    +0.000 A 
ENDROOT
BRANCH   1  10
ATOM     10  C   UNL     1       5.821   6.472  16.673  0.00  0.00    +0.000 C 
ATOM     11  O   UNL     1       5.964   6.461  15.450  0.00  0.00    +0.000 OA
BRANCH  10  13
ATOM     12  O   UNL     1       7.710   5.654  17.957  0.00  0.00    +0.000 OA
ATOM     13  C   UNL     1       7.100   6.627  17.528  0.00  0.00    +0.000 C 
ATOM     14  N   UNL     1       7.470   7.930  17.791  0.00  0.00    +0.000 N 
ATOM     15  H   UNL     1       6.949   8.675  17.337  0.00  0.00    +0.000 HD
BRANCH  14  16
ATOM     16  C   UNL     1       8.639   8.236  18.577  0.00  0.00    +0.000 C 
BRANCH  16  17
ATOM     17  C   UNL     1       8.831   9.704  18.619  0.00  0.00    +0.000 A 
ATOM     18  C   UNL     1       8.585  10.718  17.714  0.00  0.00    +0.000 A 
ATOM     19  C   UNL     1       8.988  11.920  18.343  0.00  0.00    +0.000 A 
ATOM     20  C   UNL     1       9.456  11.565  19.585  0.00  0.00    +0.000 A 
ATOM     21  O   UNL     1       9.366  10.221  19.763  0.00  0.00    +0.000 OA
ENDBRANCH  16  17
ENDBRANCH  14  16
ENDBRANCH  10  13
ENDBRANCH   1  10
BRANCH   3  22
ATOM     22  C   UNL     1       1.566   7.958  18.809  0.00  0.00    +0.000 C 
BRANCH  22  23
ATOM     23  C   UNL     1       1.478   7.950  20.329  0.00  0.00    +0.000 C 
ATOM     24  O   UNL     1       1.529   6.904  20.979  0.00  0.00    +0.000 OA
ATOM     25  N   UNL     1       1.356   9.191  20.960  0.00  0.00    +0.000 N 
ATOM     26  C   UNL     1       1.427   9.243  22.420  0.00  0.00    +0.000 C 
ATOM     27  C   UNL     1       0.033   9.422  23.013  0.00  0.00    +0.000 C 
ATOM     28  C   UNL     1      -0.637  10.667  22.430  0.00  0.00    +0.000 C 
ATOM     29  C   UNL     1      -0.638  10.626  20.900  0.00  0.00    +0.000 C 
ATOM     30  C   UNL     1       0.766  10.379  20.340  0.00  0.00    +0.000 C 
ENDBRANCH  22  23
ENDBRANCH   3  22
TORSDOF 6
ENDMDL
