MODEL 1
REMARK VINA RESULT:      -8.1      0.000      0.000
REMARK  Name = 
REMARK  7 active torsions:
REMARK  status: ('A' for Active; 'I' for Inactive)
REMARK    1  A    between atoms: C_1  and  N_2
REMARK    2  A    between atoms: N_2  and  C_3
REMARK    3  A    between atoms: N_2  and  C_4
REMARK    4  A    between atoms: C_8  and  C_9
REMARK    5  A    between atoms: C_11  and  C_12
REMARK    6  A    between atoms: N_18  and  C_19
REMARK    7  A    between atoms: C_19  and  C_20
REMARK                            x       y       z     vdW  Elec       q    Type
REMARK                         _______ _______ _______ _____ _____    ______ ____
ROOT
ATOM      1  C   UNL     1       3.263   6.297  17.986  0.00  0.00    +0.000 A 
ATOM      2  N   UNL     1       4.407   6.306  17.313  0.00  0.00    +0.000 NA
ATOM      3  C   UNL     1       4.609   5.001  16.944  0.00  0.00    +0.000 A 
ATOM      4  N   UNL     1       3.646   4.168  17.347  0.00  0.00    +0.000 NA
ATOM      5  N   UNL     1       2.802   4.996  17.989  0.00  0.00    +0.000 N 
ENDROOT
BRANCH   1  10
ATOM      6  C   UNL     1       1.268   8.632  20.268  0.00  0.00    +0.000 A 
ATOM      7  C   UNL     1       0.867   9.571  19.307  0.00  0.00    +0.000 A 
ATOM      8  C   UNL     1       1.341   9.529  17.992  0.00  0.00    +0.000 A 
ATOM      9  C   UNL     1       2.170   8.485  17.580  0.00  0.00    +0.000 A 
ATOM     10  C   UNL     1       2.550   7.491  18.480  0.00  0.00    +0.000 A 
ATOM     11  C   UNL     1       2.163   7.638  19.827  0.00  0.00    +0.000 A 
BRANCH   6  13
ATOM     12  C   UNL     1      -0.651   8.410  21.819  0.00  0.00    +0.000 C 
ATOM     13  N   UNL     1       0.769   8.631  21.569  0.00  0.00    +0.000 N 
ATOM     14  C   UNL     1       1.539   9.241  22.650  0.00  0.00    +0.000 C 
ENDBRANCH   6  13
ENDBRANCH   1  10
BRANCH   3  15
ATOM     15  C   UNL     1       5.729   4.522  16.098  0.00  0.00    +0.000 C 
ATOM     16  C   UNL     1       5.406   4.478  14.618  0.00  0.00    +0.000 C 
ATOM     17  C   UNL     1       6.780   4.441  13.986  0.00  0.00    +0.000 C 
ATOM     18  O   UNL     1       7.668   5.139  14.869  0.00  0.00    +0.000 OA
ATOM     19  C   UNL     1       6.981   5.377  16.112  0.00  0.00    +0.000 C 
ENDBRANCH   3  15
BRANCH   5  20
ATOM     20  C   UNL     1       1.516   4.474  18.378  0.00  0.00    +0.000 C 
BRANCH  20  21
ATOM     21  C   UNL     1       1.509   3.943  19.788  0.00  0.00    +0.000 C 
ATOM     22  F   UNL     1       2.687   4.086  20.430  0.00  0.00    +0.000 F 
ATOM     23  F   UNL     1       0.586   4.607  20.530  0.00  0.00    +0.000 F 
ATOM     24  F   UNL     1       1.169   2.634  19.830  0.00  0.00    +0.000 F 
ENDBRANCH  20  21
ENDBRANCH   5  20
TORSDOF 5
ENDMDL
MODEL 2
REMARK VINA RESULT:      -8.1      1.208      2.096
REMARK  Name = 
REMARK  7 active torsions:
REMARK  status: ('A' for Active; 'I' for Inactive)
REMARK    1  A    between atoms: C_1  and  N_2
REMARK    2  A    between atoms: N_2  and  C_3
REMARK    3  A    between atoms: N_2  and  C_4
REMARK    4  A    between atoms: C_8  and  C_9
REMARK    5  A    between atoms: C_11  and  C_12
REMARK    6  A    between atoms: N_18  and  C_19
REMARK    7  A    between atoms: C_19  and  C_20
REMARK                            x       y       z     vdW  Elec       q    Type
REMARK                         _______ _______ _______ _____ _____    ______ ____
ROOT
ATOM      1  C   UNL     1       3.102   5.944  18.294  0.00  0.00    +0.000 A 
ATOM      2  N   UNL     1       4.333   6.112  17.825  0.00  0.00    +0.000 NA
ATOM      3  C   UNL     1       4.609   4.958  17.137  0.00  0.00    +0.000 A 
ATOM      4  N   UNL     1       3.609   4.071  17.144  0.00  0.00    +0.000 NA
ATOM      5  N   UNL     1       2.667   4.708  17.863  0.00  0.00    +0.000 N 
ENDROOT
BRANCH   1  10
ATOM      6  C   UNL     1       1.378   9.266  19.087  0.00  0.00    +0.000 A 
ATOM      7  C   UNL     1       1.138   9.057  20.453  0.00  0.00    +0.000 A 
ATOM      8  C   UNL     1       1.397   7.827  21.066  0.00  0.00    +0.000 A 
ATOM      9  C   UNL     1       1.989   6.793  20.341  0.00  0.00    +0.000 A 
ATOM     10  C   UNL     1       2.305   6.970  18.994  0.00  0.00    +0.000 A 
ATOM     11  C   UNL     1       1.909   8.172  18.376  0.00  0.00    +0.000 A 
BRANCH   6  13
ATOM     12  C   UNL     1       2.301  11.329  18.070  0.00  0.00    +0.000 C 
ATOM     13  N   UNL     1       1.170  10.499  18.471  0.00  0.00    +0.000 N 
ATOM     14  C   UNL     1      -0.127  11.163  18.579  0.00  0.00    +0.000 C 
ENDBRANCH   6  13
ENDBRANCH   1  10
BRANCH   3  15
ATOM     15  C   UNL     1       5.848   4.706  16.365  0.00  0.00    +0.000 C 
ATOM     16  C   UNL     1       5.623   4.552  14.874  0.00  0.00    +0.000 C 
ATOM     17  C   UNL     1       7.005   4.792  14.309  0.00  0.00    +0.000 C 
ATOM     18  O   UNL     1       7.676   5.689  15.204  0.00  0.00    +0.000 OA
ATOM     19  C   UNL     1       6.888   5.810  16.403  0.00  0.00    +0.000 C 
ENDBRANCH   3  15
BRANCH   5  20
ATOM     20  C   UNL     1       1.346   4.132  17.897  0.00  0.00    +0.000 C 
BRANCH  20  21
ATOM     21  C   UNL     1       1.129   3.251  19.101  0.00  0.00    +0.000 C 
ATOM     22  F   UNL     1       2.271   2.787  19.649  0.00  0.00    +0.000 F 
ATOM     23  F   UNL     1       0.491   3.948  20.076  0.00  0.00    +0.000 F 
ATOM     24  F   UNL     1       0.345   2.188  18.810  0.00  0.00    +0.000 F 
ENDBRANCH  20  21
ENDBRANCH   5  20
TORSDOF 5
ENDMDL
MODEL 3
REMARK VINA RESULT:      -8.0      3.216      4.662
REMARK  Name = 
REMARK  7 active torsions:
REMARK  status: ('A' for Active; 'I' for Inactive)
REMARK    1  A    between atoms: C_1  and  N_2
REMARK    2  A    between atoms: N_2  and  C_3
REMARK    3  A    between atoms: N_2  and  C_4
REMARK    4  A    between atoms: C_8  and  C_9
REMARK    5  A    between atoms: C_11  and  C_12
REMARK    6  A    between atoms: N_18  and  C_19
REMARK    7  A    between atoms: C_19  and  C_20
REMARK                            x       y       z     vdW  Elec       q    Type
REMARK                         _______ _______ _______ _____ _____    ______ ____
ROOT
ATOM      1  C   UNL     1       5.145   5.438  16.797  0.00  0.00    +0.000 A 
ATOM      2  N   UNL     1       5.046   4.605  15.769  0.00  0.00    +0.000 NA
ATOM      3  C   UNL     1       6.215   4.768  15.069  0.00  0.00    +0.000 A 
ATOM      4  N   UNL     1       7.050   5.660  15.610  0.00  0.00    +0.000 NA
ATOM      5  N   UNL     1       6.371   6.063  16.699  0.00  0.00    +0.000 N 
ENDROOT
BRANCH   1  10
ATOM      6  C   UNL     1       2.753   4.429  19.609  0.00  0.00    +0.000 A 
ATOM      7  C   UNL     1       2.092   5.654  19.771  0.00  0.00    +0.000 A 
ATOM      8  C   UNL     1       2.500   6.808  19.092  0.00  0.00    +0.000 A 
ATOM      9  C   UNL     1       3.536   6.743  18.161  0.00  0.00    +0.000 A 
ATOM     10  C   UNL     1       4.188   5.535  17.917  0.00  0.00    +0.000 A 
ATOM     11  C   UNL     1       3.841   4.426  18.713  0.00  0.00    +0.000 A 
BRANCH   6  13
ATOM     12  C   UNL     1       1.800   2.147  19.461  0.00  0.00    +0.000 C 
ATOM     13  N   UNL     1       2.331   3.260  20.240  0.00  0.00    +0.000 N 
ATOM     14  C   UNL     1       2.027   3.268  21.668  0.00  0.00    +0.000 C 
ENDBRANCH   6  13
ENDBRANCH   1  10
BRANCH   3  15
ATOM     15  C   UNL     1       6.603   3.986  13.872  0.00  0.00    +0.000 C 
ATOM     16  C   UNL     1       5.427   3.513  13.040  0.00  0.00    +0.000 C 
ATOM     17  C   UNL     1       6.076   3.199  11.710  0.00  0.00    +0.000 C 
ATOM     18  O   UNL     1       7.202   4.076  11.573  0.00  0.00    +0.000 OA
ATOM     19  C   UNL     1       7.431   4.725  12.838  0.00  0.00    +0.000 C 
ENDBRANCH   3  15
BRANCH   5  20
ATOM     20  C   UNL     1       7.069   6.881  17.660  0.00  0.00    +0.000 C 
BRANCH  20  21
ATOM     21  C   UNL     1       7.676   6.071  18.777  0.00  0.00    +0.000 C 
ATOM     22  F   UNL     1       6.810   5.774  19.767  0.00  0.00    +0.000 F 
ATOM     23  F   UNL     1       8.131   4.886  18.296  0.00  0.00    +0.000 F 
ATOM     24  F   UNL     1       8.740   6.697  19.329  0.00  0.00    +0.000 F 
ENDBRANCH  20  21
ENDBRANCH   5  20
TORSDOF 5
ENDMDL
MODEL 4
REMARK VINA RESULT:      -7.9      3.190      4.614
REMARK  Name = 
REMARK  7 active torsions:
REMARK  status: ('A' for Active; 'I' for Inactive)
REMARK    1  A    between atoms: C_1  and  N_2
REMARK    2  A    between atoms: N_2  and  C_3
REMARK    3  A    between atoms: N_2  and  C_4
REMARK    4  A    between atoms: C_8  and  C_9
REMARK    5  A    between atoms: C_11  and  C_12
REMARK    6  A    between atoms: N_18  and  C_19
REMARK    7  A    between atoms: C_19  and  C_20
REMARK                            x       y       z     vdW  Elec       q    Type
REMARK                         _______ _______ _______ _____ _____    ______ ____
ROOT
ATOM      1  C   UNL     1       4.935   5.374  16.846  0.00  0.00    +0.000 A 
ATOM      2  N   UNL     1       4.829   4.505  15.849  0.00  0.00    +0.000 NA
ATOM      3  C   UNL     1       5.964   4.687  15.100  0.00  0.00    +0.000 A 
ATOM      4  N   UNL     1       6.784   5.626  15.580  0.00  0.00    +0.000 NA
ATOM      5  N   UNL     1       6.132   6.040  16.681  0.00  0.00    +0.000 N 
ENDROOT
BRANCH   1  10
ATOM      6  C   UNL     1       2.528   4.377  19.649  0.00  0.00    +0.000 A 
ATOM      7  C   UNL     1       1.986   5.641  19.918  0.00  0.00    +0.000 A 
ATOM      8  C   UNL     1       2.481   6.801  19.313  0.00  0.00    +0.000 A 
ATOM      9  C   UNL     1       3.485   6.713  18.348  0.00  0.00    +0.000 A 
ATOM     10  C   UNL     1       4.018   5.472  17.998  0.00  0.00    +0.000 A 
ATOM     11  C   UNL     1       3.589   4.343  18.723  0.00  0.00    +0.000 A 
BRANCH   6  13
ATOM     12  C   UNL     1       2.015   3.013  21.653  0.00  0.00    +0.000 C 
ATOM     13  N   UNL     1       2.016   3.207  20.207  0.00  0.00    +0.000 N 
ATOM     14  C   UNL     1       1.855   2.012  19.382  0.00  0.00    +0.000 C 
ENDBRANCH   6  13
ENDBRANCH   1  10
BRANCH   3  15
ATOM     15  C   UNL     1       6.336   3.881  13.913  0.00  0.00    +0.000 C 
ATOM     16  C   UNL     1       5.168   3.548  13.006  0.00  0.00    +0.000 C 
ATOM     17  C   UNL     1       5.857   3.180  11.711  0.00  0.00    +0.000 C 
ATOM     18  O   UNL     1       7.078   3.930  11.655  0.00  0.00    +0.000 OA
ATOM     19  C   UNL     1       7.299   4.536  12.943  0.00  0.00    +0.000 C 
ENDBRANCH   3  15
BRANCH   5  20
ATOM     20  C   UNL     1       6.834   6.914  17.588  0.00  0.00    +0.000 C 
BRANCH  20  21
ATOM     21  C   UNL     1       7.615   6.158  18.632  0.00  0.00    +0.000 C 
ATOM     22  F   UNL     1       8.649   6.853  19.148  0.00  0.00    +0.000 F 
ATOM     23  F   UNL     1       6.807   5.842  19.676  0.00  0.00    +0.000 F 
ATOM     24  F   UNL     1       8.098   4.990  18.150  0.00  0.00    +0.000 F 
ENDBRANCH  20  21
ENDBRANCH   5  20
TORSDOF 5
ENDMDL
MODEL 5
REMARK VINA RESULT:      -7.8      2.692      4.240
REMARK  Name = 
REMARK  7 active torsions:
REMARK  status: ('A' for Active; 'I' for Inactive)
REMARK    1  A    between atoms: C_1  and  N_2
REMARK    2  A    between atoms: N_2  and  C_3
REMARK    3  A    between atoms: N_2  and  C_4
REMARK    4  A    between atoms: C_8  and  C_9
REMARK    5  A    between atoms: C_11  and  C_12
REMARK    6  A    between atoms: N_18  and  C_19
REMARK    7  A    between atoms: C_19  and  C_20
REMARK                            x       y       z     vdW  Elec       q    Type
REMARK                         _______ _______ _______ _____ _____    ______ ____
ROOT
ATOM      1  C   UNL     1       5.096   5.634  16.708  0.00  0.00    +0.000 A 
ATOM      2  N   UNL     1       5.027   4.814  15.666  0.00  0.00    +0.000 NA
ATOM      3  C   UNL     1       6.263   4.891  15.076  0.00  0.00    +0.000 A 
ATOM      4  N   UNL     1       7.110   5.715  15.697  0.00  0.00    +0.000 NA
ATOM      5  N   UNL     1       6.370   6.165  16.726  0.00  0.00    +0.000 N 
ENDROOT
BRANCH   1  10
ATOM      6  C   UNL     1       2.471   7.255  18.972  0.00  0.00    +0.000 A 
ATOM      7  C   UNL     1       2.364   6.237  19.930  0.00  0.00    +0.000 A 
ATOM      8  C   UNL     1       3.014   5.008  19.776  0.00  0.00    +0.000 A 
ATOM      9  C   UNL     1       3.863   4.796  18.690  0.00  0.00    +0.000 A 
ATOM     10  C   UNL     1       4.053   5.798  17.740  0.00  0.00    +0.000 A 
ATOM     11  C   UNL     1       3.282   6.971  17.855  0.00  0.00    +0.000 A 
BRANCH   6  13
ATOM     12  C   UNL     1       1.168   8.833  20.368  0.00  0.00    +0.000 C 
ATOM     13  N   UNL     1       1.870   8.502  19.133  0.00  0.00    +0.000 N 
ATOM     14  C   UNL     1       1.572   9.327  17.965  0.00  0.00    +0.000 C 
ENDBRANCH   6  13
ENDBRANCH   1  10
BRANCH   3  15
ATOM     15  C   UNL     1       6.696   4.086  13.909  0.00  0.00    +0.000 C 
ATOM     16  C   UNL     1       5.551   3.516  13.096  0.00  0.00    +0.000 C 
ATOM     17  C   UNL     1       6.219   3.188  11.779  0.00  0.00    +0.000 C 
ATOM     18  O   UNL     1       7.295   4.120  11.608  0.00  0.00    +0.000 OA
ATOM     19  C   UNL     1       7.485   4.829  12.848  0.00  0.00    +0.000 C 
ENDBRANCH   3  15
BRANCH   5  20
ATOM     20  C   UNL     1       7.038   6.924  17.753  0.00  0.00    +0.000 C 
BRANCH  20  21
ATOM     21  C   UNL     1       7.637   6.048  18.823  0.00  0.00    +0.000 C 
ATOM     22  F   UNL     1       6.770   5.712  19.801  0.00  0.00    +0.000 F 
ATOM     23  F   UNL     1       8.072   4.882  18.279  0.00  0.00    +0.000 F 
ATOM     24  F   UNL     1       8.713   6.628  19.403  0.00  0.00    +0.000 F 
ENDBRANCH  20  21
ENDBRANCH   5  20
TORSDOF 5
ENDMDL
MODEL 6
REMARK VINA RESULT:      -7.8      0.246      1.056
REMARK  Name = 
REMARK  7 active torsions:
REMARK  status: ('A' for Active; 'I' for Inactive)
REMARK    1  A    between atoms: C_1  and  N_2
REMARK    2  A    between atoms: N_2  and  C_3
REMARK    3  A    between atoms: N_2  and  C_4
REMARK    4  A    between atoms: C_8  and  C_9
REMARK    5  A    between atoms: C_11  and  C_12
REMARK    6  A    between atoms: N_18  and  C_19
REMARK    7  A    between atoms: C_19  and  C_20
REMARK                            x       y       z     vdW  Elec       q    Type
REMARK                         _______ _______ _______ _____ _____    ______ ____
ROOT
ATOM      1  C   UNL     1       3.217   6.468  18.058  0.00  0.00    +0.000 A 
ATOM      2  N   UNL     1       4.366   6.478  17.393  0.00  0.00    +0.000 NA
ATOM      3  C   UNL     1       4.604   5.163  17.081  0.00  0.00    +0.000 A 
ATOM      4  N   UNL     1       3.658   4.324  17.513  0.00  0.00    +0.000 NA
ATOM      5  N   UNL     1       2.790   5.157  18.113  0.00  0.00    +0.000 N 
ENDROOT
BRANCH   1  10
ATOM      6  C   UNL     1       1.168   8.856  20.234  0.00  0.00    +0.000 A 
ATOM      7  C   UNL     1       0.730   9.731  19.230  0.00  0.00    +0.000 A 
ATOM      8  C   UNL     1       1.195   9.635  17.914  0.00  0.00    +0.000 A 
ATOM      9  C   UNL     1       2.053   8.597  17.549  0.00  0.00    +0.000 A 
ATOM     10  C   UNL     1       2.471   7.663  18.496  0.00  0.00    +0.000 A 
ATOM     11  C   UNL     1       2.090   7.868  19.837  0.00  0.00    +0.000 A 
BRANCH   6  13
ATOM     12  C   UNL     1       1.575   9.178  22.657  0.00  0.00    +0.000 C 
ATOM     13  N   UNL     1       0.678   8.908  21.538  0.00  0.00    +0.000 N 
ATOM     14  C   UNL     1      -0.613   8.305  21.860  0.00  0.00    +0.000 C 
ENDBRANCH   6  13
ENDBRANCH   1  10
BRANCH   3  15
ATOM     15  C   UNL     1       5.742   4.678  16.264  0.00  0.00    +0.000 C 
ATOM     16  C   UNL     1       5.439   4.585  14.782  0.00  0.00    +0.000 C 
ATOM     17  C   UNL     1       6.821   4.551  14.169  0.00  0.00    +0.000 C 
ATOM     18  O   UNL     1       7.688   5.288  15.042  0.00  0.00    +0.000 OA
ATOM     19  C   UNL     1       6.981   5.552  16.269  0.00  0.00    +0.000 C 
ENDBRANCH   3  15
BRANCH   5  20
ATOM     20  C   UNL     1       1.514   4.620  18.516  0.00  0.00    +0.000 C 
BRANCH  20  21
ATOM     21  C   UNL     1       1.483   4.229  19.971  0.00  0.00    +0.000 C 
ATOM     22  F   UNL     1       0.694   5.017  20.730  0.00  0.00    +0.000 F 
ATOM     23  F   UNL     1       1.003   2.966  20.102  0.00  0.00    +0.000 F 
ATOM     24  F   UNL     1       2.721   4.230  20.517  0.00  0.00    +0.000 F 
ENDBRANCH  20  21
ENDBRANCH   5  20
TORSDOF 5
ENDMDL
MODEL 7
REMARK VINA RESULT:      -7.7      4.621      7.821
REMARK  Name = 
REMARK  7 active torsions:
REMARK  status: ('A' for Active; 'I' for Inactive)
REMARK    1  A    between atoms: C_1  and  N_2
REMARK    2  A    between atoms: N_2  and  C_3
REMARK    3  A    between atoms: N_2  and  C_4
REMARK    4  A    between atoms: C_8  and  C_9
REMARK    5  A    between atoms: C_11  and  C_12
REMARK    6  A    between atoms: N_18  and  C_19
REMARK    7  A    between atoms: C_19  and  C_20
REMARK                            x       y       z     vdW  Elec       q    Type
REMARK                         _______ _______ _______ _____ _____    ______ ____
ROOT
ATOM      1  C   UNL     1       5.475   4.099  16.317  0.00  0.00    +0.000 A 
ATOM      2  N   UNL     1       4.236   3.805  16.691  0.00  0.00    +0.000 NA
ATOM      3  C   UNL     1       4.251   3.897  18.060  0.00  0.00    +0.000 A 
ATOM      4  N   UNL     1       5.438   4.240  18.567  0.00  0.00    +0.000 NA
ATOM      5  N   UNL     1       6.193   4.375  17.463  0.00  0.00    +0.000 N 
ENDROOT
BRANCH   1  10
ATOM      6  C   UNL     1       5.866   3.552  12.550  0.00  0.00    +0.000 A 
ATOM      7  C   UNL     1       7.050   4.278  12.355  0.00  0.00    +0.000 A 
ATOM      8  C   UNL     1       7.627   5.036  13.379  0.00  0.00    +0.000 A 
ATOM      9  C   UNL     1       7.076   5.018  14.660  0.00  0.00    +0.000 A 
ATOM     10  C   UNL     1       5.933   4.263  14.923  0.00  0.00    +0.000 A 
ATOM     11  C   UNL     1       5.304   3.620  13.840  0.00  0.00    +0.000 A 
BRANCH   6  13
ATOM     12  C   UNL     1       3.959   3.023  11.060  0.00  0.00    +0.000 C 
ATOM     13  N   UNL     1       5.304   2.754  11.555  0.00  0.00    +0.000 N 
ATOM     14  C   UNL     1       5.852   1.428  11.284  0.00  0.00    +0.000 C 
ENDBRANCH   6  13
ENDBRANCH   1  10
BRANCH   3  15
ATOM     15  C   UNL     1       3.065   3.731  18.934  0.00  0.00    +0.000 C 
ATOM     16  C   UNL     1       1.776   3.473  18.178  0.00  0.00    +0.000 C 
ATOM     17  C   UNL     1       0.885   2.882  19.248  0.00  0.00    +0.000 C 
ATOM     18  O   UNL     1       1.738   2.200  20.177  0.00  0.00    +0.000 OA
ATOM     19  C   UNL     1       3.103   2.550  19.884  0.00  0.00    +0.000 C 
ENDBRANCH   3  15
BRANCH   5  20
ATOM     20  C   UNL     1       7.503   4.959  17.612  0.00  0.00    +0.000 C 
BRANCH  20  21
ATOM     21  C   UNL     1       7.449   6.439  17.892  0.00  0.00    +0.000 C 
ATOM     22  F   UNL     1       8.032   7.195  16.939  0.00  0.00    +0.000 F 
ATOM     23  F   UNL     1       6.157   6.850  17.971  0.00  0.00    +0.000 F 
ATOM     24  F   UNL     1       8.025   6.747  19.077  0.00  0.00    +0.000 F 
ENDBRANCH  20  21
ENDBRANCH   5  20
TORSDOF 5
ENDMDL
MODEL 8
REMARK VINA RESULT:      -7.7      4.593      7.711
REMARK  Name = 
REMARK  7 active torsions:
REMARK  status: ('A' for Active; 'I' for Inactive)
REMARK    1  A    between atoms: C_1  and  N_2
REMARK    2  A    between atoms: N_2  and  C_3
REMARK    3  A    between atoms: N_2  and  C_4
REMARK    4  A    between atoms: C_8  and  C_9
REMARK    5  A    between atoms: C_11  and  C_12
REMARK    6  A    between atoms: N_18  and  C_19
REMARK    7  A    between atoms: C_19  and  C_20
REMARK                            x       y       z     vdW  Elec       q    Type
REMARK                         _______ _______ _______ _____ _____    ______ ____
ROOT
ATOM      1  C   UNL     1       5.232   4.114  16.649  0.00  0.00    +0.000 A 
ATOM      2  N   UNL     1       4.272   3.250  16.956  0.00  0.00    +0.000 NA
ATOM      3  C   UNL     1       3.973   3.507  18.270  0.00  0.00    +0.000 A 
ATOM      4  N   UNL     1       4.695   4.495  18.806  0.00  0.00    +0.000 NA
ATOM      5  N   UNL     1       5.471   4.874  17.775  0.00  0.00    +0.000 N 
ENDROOT
BRANCH   1  10
ATOM      6  C   UNL     1       5.887   3.719  12.900  0.00  0.00    +0.000 A 
ATOM      7  C   UNL     1       7.108   4.403  12.828  0.00  0.00    +0.000 A 
ATOM      8  C   UNL     1       7.635   5.091  13.927  0.00  0.00    +0.000 A 
ATOM      9  C   UNL     1       6.987   5.039  15.161  0.00  0.00    +0.000 A 
ATOM     10  C   UNL     1       5.800   4.321  15.302  0.00  0.00    +0.000 A 
ATOM     11  C   UNL     1       5.231   3.753  14.146  0.00  0.00    +0.000 A 
BRANCH   6  13
ATOM     12  C   UNL     1       4.028   3.256  11.328  0.00  0.00    +0.000 C 
ATOM     13  N   UNL     1       5.372   2.990  11.829  0.00  0.00    +0.000 N 
ATOM     14  C   UNL     1       5.970   1.710  11.460  0.00  0.00    +0.000 C 
ENDBRANCH   6  13
ENDBRANCH   1  10
BRANCH   3  15
ATOM     15  C   UNL     1       2.897   2.841  19.041  0.00  0.00    +0.000 C 
ATOM     16  C   UNL     1       2.800   3.299  20.482  0.00  0.00    +0.000 C 
ATOM     17  C   UNL     1       1.403   2.866  20.868  0.00  0.00    +0.000 C 
ATOM     18  O   UNL     1       0.606   2.901  19.676  0.00  0.00    +0.000 OA
ATOM     19  C   UNL     1       1.483   3.082  18.548  0.00  0.00    +0.000 C 
ENDBRANCH   3  15
BRANCH   5  20
ATOM     20  C   UNL     1       6.241   6.084  17.925  0.00  0.00    +0.000 C 
BRANCH  20  21
ATOM     21  C   UNL     1       7.531   5.860  18.672  0.00  0.00    +0.000 C 
ATOM     22  F   UNL     1       8.391   6.897  18.597  0.00  0.00    +0.000 F 
ATOM     23  F   UNL     1       7.275   5.670  19.992  0.00  0.00    +0.000 F 
ATOM     24  F   UNL     1       8.175   4.752  18.241  0.00  0.00    +0.000 F 
ENDBRANCH  20  21
ENDBRANCH   5  20
TORSDOF 5
ENDMDL
MODEL 9
REMARK VINA RESULT:      -7.6      4.459      7.777
REMARK  Name = 
REMARK  7 active torsions:
REMARK  status: ('A' for Active; 'I' for Inactive)
REMARK    1  A    between atoms: C_1  and  N_2
REMARK    2  A    between atoms: N_2  and  C_3
REMARK    3  A    between atoms: N_2  and  C_4
REMARK    4  A    between atoms: C_8  and  C_9
REMARK    5  A    between atoms: C_11  and  C_12
REMARK    6  A    between atoms: N_18  and  C_19
REMARK    7  A    between atoms: C_19  and  C_20
REMARK                            x       y       z     vdW  Elec       q    Type
REMARK                         _______ _______ _______ _____ _____    ______ ____
ROOT
ATOM      1  C   UNL     1       5.219   4.154  16.697  0.00  0.00    +0.000 A 
ATOM      2  N   UNL     1       4.247   3.324  17.056  0.00  0.00    +0.000 NA
ATOM      3  C   UNL     1       3.994   3.625  18.370  0.00  0.00    +0.000 A 
ATOM      4  N   UNL     1       4.756   4.609  18.856  0.00  0.00    +0.000 NA
ATOM      5  N   UNL     1       5.510   4.939  17.793  0.00  0.00    +0.000 N 
ENDROOT
BRANCH   1  10
ATOM      6  C   UNL     1       5.790   3.600  12.954  0.00  0.00    +0.000 A 
ATOM      7  C   UNL     1       6.999   4.297  12.821  0.00  0.00    +0.000 A 
ATOM      8  C   UNL     1       7.541   5.041  13.875  0.00  0.00    +0.000 A 
ATOM      9  C   UNL     1       6.924   5.035  15.126  0.00  0.00    +0.000 A 
ATOM     10  C   UNL     1       5.751   4.308  15.329  0.00  0.00    +0.000 A 
ATOM     11  C   UNL     1       5.163   3.681  14.213  0.00  0.00    +0.000 A 
BRANCH   6  13
ATOM     12  C   UNL     1       6.058   1.761  11.316  0.00  0.00    +0.000 C 
ATOM     13  N   UNL     1       5.261   2.817  11.930  0.00  0.00    +0.000 N 
ATOM     14  C   UNL     1       4.094   3.279  11.183  0.00  0.00    +0.000 C 
ENDBRANCH   6  13
ENDBRANCH   1  10
BRANCH   3  15
ATOM     15  C   UNL     1       2.925   3.009  19.191  0.00  0.00    +0.000 C 
ATOM     16  C   UNL     1       2.426   3.895  20.316  0.00  0.00    +0.000 C 
ATOM     17  C   UNL     1       1.090   3.271  20.653  0.00  0.00    +0.000 C 
ATOM     18  O   UNL     1       0.584   2.682  19.447  0.00  0.00    +0.000 OA
ATOM     19  C   UNL     1       1.635   2.685  18.463  0.00  0.00    +0.000 C 
ENDBRANCH   3  15
BRANCH   5  20
ATOM     20  C   UNL     1       6.314   6.132  17.885  0.00  0.00    +0.000 C 
BRANCH  20  21
ATOM     21  C   UNL     1       7.576   5.920  18.681  0.00  0.00    +0.000 C 
ATOM     22  F   UNL     1       7.361   5.707  19.996  0.00  0.00    +0.000 F 
ATOM     23  F   UNL     1       8.239   4.829  18.219  0.00  0.00    +0.000 F 
ATOM     24  F   UNL     1       8.426   6.966  18.563  0.00  0.00    +0.000 F 
ENDBRANCH  20  21
ENDBRANCH   5  20
TORSDOF 5
ENDMDL
