MODEL 1
REMARK VINA RESULT:      -7.3      0.000      0.000
REMARK  Name = 
REMARK  6 active torsions:
REMARK  status: ('A' for Active; 'I' for Inactive)
REMARK    1  A    between atoms: C_2  and  C_22
REMARK    2  A    between atoms: N_3  and  C_4
REMARK    3  A    between atoms: C_4  and  C_12
REMARK    4  A    between atoms: C_5  and  N_6
REMARK    5  A    between atoms: C_18  and  C_19
REMARK    6  A    between atoms: C_19  and  O_21
REMARK                            x       y       z     vdW  Elec       q    Type
REMARK                         _______ _______ _______ _____ _____    ______ ____
ROOT
ATOM      1  C   UNK A   1       2.792   6.551  18.970  0.00  0.00    +0.000 C 
ATOM      2  C   UNK A   1       4.133   6.627  19.127  0.00  0.00    +0.000 C 
ENDROOT
BRANCH   2   3
ATOM      3  N   UNK A   1       5.105   5.834  18.568  0.00  0.00    +0.000 N 
ATOM      4  C   UNK A   1       5.347   5.621  17.253  0.00  0.00    +0.000 C 
ATOM      5  N   UNK A   1       4.995   6.387  16.281  0.00  0.00    +0.000 NA
ATOM      6  C   UNK A   1       5.479   5.844  15.005  0.00  0.00    +0.000 C 
ATOM      7  C   UNK A   1       6.600   4.844  15.234  0.00  0.00    +0.000 C 
ATOM      8  S   UNK A   1       6.273   4.193  16.879  0.00  0.00    +0.000 S 
ATOM      9  H   UNK A   1       5.605   5.225  19.209  0.00  0.00    +0.000 HD
ENDBRANCH   2   3
BRANCH   1  10
ATOM     10  C   UNK A   1       1.876   7.432  19.779  0.00  0.00    +0.000 C 
ATOM     11  O   UNK A   1       1.418   6.999  20.835  0.00  0.00    +0.000 OA
ATOM     12  N   UNK A   2       1.627   8.745  19.389  0.00  0.00    +0.000 N 
ATOM     13  C   UNK A   2       1.955   9.302  18.096  0.00  0.00    +0.000 C 
ATOM     14  S   UNK A   2       1.750  11.065  18.248  0.00  0.00    +0.000 S 
ATOM     15  C   UNK A   2       0.382  10.878  19.417  0.00  0.00    +0.000 C 
ATOM     16  C   UNK A   2       0.502   9.467  20.032  0.00  0.00    +0.000 C 
BRANCH  16  17
ATOM     17  C   UNK A   2       0.574   9.691  21.544  0.00  0.00    +0.000 C 
ATOM     18  O   UNK A   2       1.456  10.358  22.070  0.00  0.00    +0.000 OA
BRANCH  17  19
ATOM     19  O   UNK A   2      -0.300   8.951  22.263  0.00  0.00    +0.000 OA
ATOM     20  H   UNK A   2      -0.215   7.999  22.062  0.00  0.00    +0.000 HD
ENDBRANCH  17  19
ENDBRANCH  16  17
ENDBRANCH   1  10
BRANCH   1  23
ATOM     21  O   UNK A   0       1.144   3.967  17.127  0.00  0.00    +0.000 OA
ATOM     22  C   UNK A   0       1.761   4.458  18.071  0.00  0.00    +0.000 C 
ATOM     23  N   UNK A   1       2.262   5.743  17.989  0.00  0.00    +0.000 N 
ATOM     24  H   UNK A   1       2.135   6.176  17.079  0.00  0.00    +0.000 HD
BRANCH  22  25
ATOM     25  C   UNK A   0       2.013   3.635  19.284  0.00  0.00    +0.000 A 
ATOM     26  C   UNK A   0       3.221   2.961  19.490  0.00  0.00    +0.000 A 
ATOM     27  C   UNK A   0       3.497   2.358  20.716  0.00  0.00    +0.000 A 
ATOM     28  C   UNK A   0       2.522   2.334  21.705  0.00  0.00    +0.000 A 
ATOM     29  C   UNK A   0       1.259   2.871  21.450  0.00  0.00    +0.000 A 
ATOM     30  C   UNK A   0       1.003   3.523  20.243  0.00  0.00    +0.000 A 
ENDBRANCH  22  25
ENDBRANCH   1  23
TORSDOF 6
ENDMDL
MODEL 2
REMARK VINA RESULT:      -7.0      1.124      1.536
REMARK  Name = 
REMARK  6 active torsions:
REMARK  status: ('A' for Active; 'I' for Inactive)
REMARK    1  A    between atoms: C_2  and  C_22
REMARK    2  A    between atoms: N_3  and  C_4
REMARK    3  A    between atoms: C_4  and  C_12
REMARK    4  A    between atoms: C_5  and  N_6
REMARK    5  A    between atoms: C_18  and  C_19
REMARK    6  A    between atoms: C_19  and  O_21
REMARK                            x       y       z     vdW  Elec       q    Type
REMARK                         _______ _______ _______ _____ _____    ______ ____
ROOT
ATOM      1  C   UNK A   1       2.508   6.732  18.845  0.00  0.00    +0.000 C 
ATOM      2  C   UNK A   1       3.819   7.003  18.655  0.00  0.00    +0.000 C 
ENDROOT
BRANCH   2   3
ATOM      3  N   UNK A   1       4.697   6.410  17.782  0.00  0.00    +0.000 N 
ATOM      4  C   UNK A   1       5.913   5.884  18.058  0.00  0.00    +0.000 C 
ATOM      5  N   UNK A   1       6.325   5.484  19.209  0.00  0.00    +0.000 NA
ATOM      6  C   UNK A   1       7.682   4.932  19.100  0.00  0.00    +0.000 C 
ATOM      7  C   UNK A   1       8.005   4.575  17.658  0.00  0.00    +0.000 C 
ATOM      8  S   UNK A   1       6.979   5.693  16.693  0.00  0.00    +0.000 S 
ATOM      9  H   UNK A   1       4.475   6.506  16.795  0.00  0.00    +0.000 HD
ENDBRANCH   2   3
BRANCH   1  10
ATOM     10  C   UNK A   1       1.740   7.404  19.954  0.00  0.00    +0.000 C 
ATOM     11  O   UNK A   1       1.527   6.778  20.991  0.00  0.00    +0.000 OA
ATOM     12  N   UNK A   2       1.359   8.738  19.845  0.00  0.00    +0.000 N 
ATOM     13  C   UNK A   2       1.389   9.512  18.624  0.00  0.00    +0.000 C 
ATOM     14  S   UNK A   2       1.143  11.209  19.105  0.00  0.00    +0.000 S 
ATOM     15  C   UNK A   2       0.054  10.740  20.471  0.00  0.00    +0.000 C 
ATOM     16  C   UNK A   2       0.358   9.263  20.806  0.00  0.00    +0.000 C 
BRANCH  16  17
ATOM     17  C   UNK A   2       0.730   9.255  22.291  0.00  0.00    +0.000 C 
ATOM     18  O   UNK A   2      -0.108   9.334  23.180  0.00  0.00    +0.000 OA
BRANCH  17  19
ATOM     19  O   UNK A   2       2.057   9.337  22.538  0.00  0.00    +0.000 OA
ATOM     20  H   UNK A   2       2.235   9.694  23.429  0.00  0.00    +0.000 HD
ENDBRANCH  17  19
ENDBRANCH  16  17
ENDBRANCH   1  10
BRANCH   1  23
ATOM     21  O   UNK A   0       0.657   4.110  17.266  0.00  0.00    +0.000 OA
ATOM     22  C   UNK A   0       1.414   4.611  18.096  0.00  0.00    +0.000 C 
ATOM     23  N   UNK A   1       1.842   5.918  17.956  0.00  0.00    +0.000 N 
ATOM     24  H   UNK A   1       1.535   6.361  17.095  0.00  0.00    +0.000 HD
BRANCH  22  25
ATOM     25  C   UNK A   0       1.913   3.779  19.223  0.00  0.00    +0.000 A 
ATOM     26  C   UNK A   0       3.211   3.260  19.249  0.00  0.00    +0.000 A 
ATOM     27  C   UNK A   0       3.709   2.648  20.398  0.00  0.00    +0.000 A 
ATOM     28  C   UNK A   0       2.872   2.459  21.492  0.00  0.00    +0.000 A 
ATOM     29  C   UNK A   0       1.531   2.838  21.417  0.00  0.00    +0.000 A 
ATOM     30  C   UNK A   0       1.050   3.499  20.286  0.00  0.00    +0.000 A 
ENDBRANCH  22  25
ENDBRANCH   1  23
TORSDOF 6
ENDMDL
MODEL 3
REMARK VINA RESULT:      -6.6      2.710      6.086
REMARK  Name = 
REMARK  6 active torsions:
REMARK  status: ('A' for Active; 'I' for Inactive)
REMARK    1  A    between atoms: C_2  and  C_22
REMARK    2  A    between atoms: N_3  and  C_4
REMARK    3  A    between atoms: C_4  and  C_12
REMARK    4  A    between atoms: C_5  and  N_6
REMARK    5  A    between atoms: C_18  and  C_19
REMARK    6  A    between atoms: C_19  and  O_21
REMARK                            x       y       z     vdW  Elec       q    Type
REMARK                         _______ _______ _______ _____ _____    ______ ____
ROOT
ATOM      1  C   UNK A   1       3.067   5.462  17.780  0.00  0.00    +0.000 C 
ATOM      2  C   UNK A   1       3.155   6.555  18.571  0.00  0.00    +0.000 C 
ENDROOT
BRANCH   2   3
ATOM      3  N   UNK A   1       2.147   7.224  19.222  0.00  0.00    +0.000 N 
ATOM      4  C   UNK A   1       1.803   8.527  19.100  0.00  0.00    +0.000 C 
ATOM      5  N   UNK A   1       2.073   9.295  18.104  0.00  0.00    +0.000 NA
ATOM      6  C   UNK A   1       1.493  10.628  18.318  0.00  0.00    +0.000 C 
ATOM      7  C   UNK A   1       0.399  10.577  19.373  0.00  0.00    +0.000 C 
ATOM      8  S   UNK A   1       0.859   9.182  20.410  0.00  0.00    +0.000 S 
ATOM      9  H   UNK A   1       1.703   6.723  19.986  0.00  0.00    +0.000 HD
ENDBRANCH   2   3
BRANCH   1  10
ATOM     10  C   UNK A   1       4.277   4.952  17.042  0.00  0.00    +0.000 C 
ATOM     11  O   UNK A   1       4.135   4.517  15.900  0.00  0.00    +0.000 OA
ATOM     12  N   UNK A   2       5.547   5.056  17.603  0.00  0.00    +0.000 N 
ATOM     13  C   UNK A   2       5.817   5.374  18.987  0.00  0.00    +0.000 C 
ATOM     14  S   UNK A   2       7.562   5.718  19.086  0.00  0.00    +0.000 S 
ATOM     15  C   UNK A   2       7.947   4.509  17.797  0.00  0.00    +0.000 C 
ATOM     16  C   UNK A   2       6.652   4.280  16.989  0.00  0.00    +0.000 C 
BRANCH  16  17
ATOM     17  C   UNK A   2       7.020   4.598  15.538  0.00  0.00    +0.000 C 
ATOM     18  O   UNK A   2       7.536   5.657  15.206  0.00  0.00    +0.000 OA
BRANCH  17  19
ATOM     19  O   UNK A   2       6.569   3.699  14.635  0.00  0.00    +0.000 OA
ATOM     20  H   UNK A   2       7.284   3.395  14.042  0.00  0.00    +0.000 HD
ENDBRANCH  17  19
ENDBRANCH  16  17
ENDBRANCH   1  10
BRANCH   1  23
ATOM     21  O   UNK A   0       0.374   3.180  18.355  0.00  0.00    +0.000 OA
ATOM     22  C   UNK A   0       1.541   3.568  18.361  0.00  0.00    +0.000 C 
ATOM     23  N   UNK A   1       1.892   4.747  17.730  0.00  0.00    +0.000 N 
ATOM     24  H   UNK A   1       1.127   5.185  17.225  0.00  0.00    +0.000 HD
BRANCH  22  25
ATOM     25  C   UNK A   0       2.586   2.727  19.004  0.00  0.00    +0.000 A 
ATOM     26  C   UNK A   0       3.257   1.713  18.313  0.00  0.00    +0.000 A 
ATOM     27  C   UNK A   0       4.357   1.074  18.883  0.00  0.00    +0.000 A 
ATOM     28  C   UNK A   0       4.723   1.372  20.190  0.00  0.00    +0.000 A 
ATOM     29  C   UNK A   0       3.964   2.273  20.938  0.00  0.00    +0.000 A 
ATOM     30  C   UNK A   0       2.897   2.952  20.348  0.00  0.00    +0.000 A 
ENDBRANCH  22  25
ENDBRANCH   1  23
TORSDOF 6
ENDMDL
MODEL 4
REMARK VINA RESULT:      -6.6      2.865      6.633
REMARK  Name = 
REMARK  6 active torsions:
REMARK  status: ('A' for Active; 'I' for Inactive)
REMARK    1  A    between atoms: C_2  and  C_22
REMARK    2  A    between atoms: N_3  and  C_4
REMARK    3  A    between atoms: C_4  and  C_12
REMARK    4  A    between atoms: C_5  and  N_6
REMARK    5  A    between atoms: C_18  and  C_19
REMARK    6  A    between atoms: C_19  and  O_21
REMARK                            x       y       z     vdW  Elec       q    Type
REMARK                         _______ _______ _______ _____ _____    ______ ____
ROOT
ATOM      1  C   UNK A   1       3.354   6.413  18.392  0.00  0.00    +0.000 C 
ATOM      2  C   UNK A   1       2.609   7.245  19.154  0.00  0.00    +0.000 C 
ENDROOT
BRANCH   2   3
ATOM      3  N   UNK A   1       2.270   8.554  18.912  0.00  0.00    +0.000 N 
ATOM      4  C   UNK A   1       1.297   9.282  19.507  0.00  0.00    +0.000 C 
ATOM      5  N   UNK A   1       0.763   9.046  20.653  0.00  0.00    +0.000 NA
ATOM      6  C   UNK A   1      -0.224  10.085  20.977  0.00  0.00    +0.000 C 
ATOM      7  C   UNK A   1       0.002  11.327  20.131  0.00  0.00    +0.000 C 
ATOM      8  S   UNK A   1       0.779  10.700  18.636  0.00  0.00    +0.000 S 
ATOM      9  H   UNK A   1       2.700   8.979  18.096  0.00  0.00    +0.000 HD
ENDBRANCH   2   3
BRANCH   1  10
ATOM     10  C   UNK A   1       3.731   5.044  18.896  0.00  0.00    +0.000 C 
ATOM     11  O   UNK A   1       4.814   4.897  19.458  0.00  0.00    +0.000 OA
ATOM     12  N   UNK A   2       2.831   3.985  18.811  0.00  0.00    +0.000 N 
ATOM     13  C   UNK A   2       1.620   3.987  18.021  0.00  0.00    +0.000 C 
ATOM     14  S   UNK A   2       0.687   2.560  18.537  0.00  0.00    +0.000 S 
ATOM     15  C   UNK A   2       2.189   1.600  18.846  0.00  0.00    +0.000 C 
ATOM     16  C   UNK A   2       3.342   2.610  19.034  0.00  0.00    +0.000 C 
BRANCH  16  17
ATOM     17  C   UNK A   2       3.939   2.289  20.406  0.00  0.00    +0.000 C 
ATOM     18  O   UNK A   2       3.343   2.515  21.452  0.00  0.00    +0.000 OA
BRANCH  17  19
ATOM     19  O   UNK A   2       5.236   1.910  20.379  0.00  0.00    +0.000 OA
ATOM     20  H   UNK A   2       5.711   2.195  21.183  0.00  0.00    +0.000 HD
ENDBRANCH  17  19
ENDBRANCH  16  17
ENDBRANCH   1  10
BRANCH   1  23
ATOM     21  O   UNK A   0       4.911   6.813  15.197  0.00  0.00    +0.000 OA
ATOM     22  C   UNK A   0       4.865   6.605  16.408  0.00  0.00    +0.000 C 
ATOM     23  N   UNK A   1       3.683   6.775  17.105  0.00  0.00    +0.000 N 
ATOM     24  H   UNK A   1       2.924   7.146  16.541  0.00  0.00    +0.000 HD
BRANCH  22  25
ATOM     25  C   UNK A   0       6.109   6.224  17.129  0.00  0.00    +0.000 A 
ATOM     26  C   UNK A   0       6.810   7.127  17.934  0.00  0.00    +0.000 A 
ATOM     27  C   UNK A   0       7.858   6.691  18.744  0.00  0.00    +0.000 A 
ATOM     28  C   UNK A   0       8.277   5.368  18.671  0.00  0.00    +0.000 A 
ATOM     29  C   UNK A   0       7.680   4.497  17.757  0.00  0.00    +0.000 A 
ATOM     30  C   UNK A   0       6.596   4.922  16.988  0.00  0.00    +0.000 A 
ENDBRANCH  22  25
ENDBRANCH   1  23
TORSDOF 6
ENDMDL
MODEL 5
REMARK VINA RESULT:      -6.3      3.023      6.783
REMARK  Name = 
REMARK  6 active torsions:
REMARK  status: ('A' for Active; 'I' for Inactive)
REMARK    1  A    between atoms: C_2  and  C_22
REMARK    2  A    between atoms: N_3  and  C_4
REMARK    3  A    between atoms: C_4  and  C_12
REMARK    4  A    between atoms: C_5  and  N_6
REMARK    5  A    between atoms: C_18  and  C_19
REMARK    6  A    between atoms: C_19  and  O_21
REMARK                            x       y       z     vdW  Elec       q    Type
REMARK                         _______ _______ _______ _____ _____    ______ ____
ROOT
ATOM      1  C   UNK A   1       4.217   6.184  18.632  0.00  0.00    +0.000 C 
ATOM      2  C   UNK A   1       2.986   6.701  18.416  0.00  0.00    +0.000 C 
ENDROOT
BRANCH   2   3
ATOM      3  N   UNK A   1       2.640   8.003  18.151  0.00  0.00    +0.000 N 
ATOM      4  C   UNK A   1       1.803   8.799  18.857  0.00  0.00    +0.000 C 
ATOM      5  N   UNK A   1       1.473   8.651  20.091  0.00  0.00    +0.000 NA
ATOM      6  C   UNK A   1       0.582   9.740  20.513  0.00  0.00    +0.000 C 
ATOM      7  C   UNK A   1       0.684  10.920  19.561  0.00  0.00    +0.000 C 
ATOM      8  S   UNK A   1       1.171  10.177  17.997  0.00  0.00    +0.000 S 
ATOM      9  H   UNK A   1       2.928   8.363  17.246  0.00  0.00    +0.000 HD
ENDBRANCH   2   3
BRANCH   1  10
ATOM     10  C   UNK A   1       4.381   4.744  19.044  0.00  0.00    +0.000 C 
ATOM     11  O   UNK A   1       5.452   4.386  19.531  0.00  0.00    +0.000 OA
ATOM     12  N   UNK A   2       3.312   3.857  18.962  0.00  0.00    +0.000 N 
ATOM     13  C   UNK A   2       2.080   4.107  18.249  0.00  0.00    +0.000 C 
ATOM     14  S   UNK A   2       0.947   2.827  18.751  0.00  0.00    +0.000 S 
ATOM     15  C   UNK A   2       2.278   1.614  18.919  0.00  0.00    +0.000 C 
ATOM     16  C   UNK A   2       3.593   2.406  19.086  0.00  0.00    +0.000 C 
BRANCH  16  17
ATOM     17  C   UNK A   2       4.198   1.910  20.402  0.00  0.00    +0.000 C 
ATOM     18  O   UNK A   2       3.689   2.145  21.490  0.00  0.00    +0.000 OA
BRANCH  17  19
ATOM     19  O   UNK A   2       5.424   1.353  20.281  0.00  0.00    +0.000 OA
ATOM     20  H   UNK A   2       6.127   1.964  20.575  0.00  0.00    +0.000 HD
ENDBRANCH  17  19
ENDBRANCH  16  17
ENDBRANCH   1  10
BRANCH   1  23
ATOM     21  O   UNK A   0       7.002   7.845  17.122  0.00  0.00    +0.000 OA
ATOM     22  C   UNK A   0       6.166   6.954  17.267  0.00  0.00    +0.000 C 
ATOM     23  N   UNK A   1       5.334   6.946  18.371  0.00  0.00    +0.000 N 
ATOM     24  H   UNK A   1       5.539   7.677  19.045  0.00  0.00    +0.000 HD
BRANCH  22  25
ATOM     25  C   UNK A   0       6.097   5.851  16.272  0.00  0.00    +0.000 A 
ATOM     26  C   UNK A   0       5.204   5.874  15.195  0.00  0.00    +0.000 A 
ATOM     27  C   UNK A   0       5.294   4.924  14.179  0.00  0.00    +0.000 A 
ATOM     28  C   UNK A   0       6.209   3.884  14.290  0.00  0.00    +0.000 A 
ATOM     29  C   UNK A   0       6.998   3.769  15.435  0.00  0.00    +0.000 A 
ATOM     30  C   UNK A   0       6.945   4.751  16.426  0.00  0.00    +0.000 A 
ENDBRANCH  22  25
ENDBRANCH   1  23
TORSDOF 6
ENDMDL
MODEL 6
REMARK VINA RESULT:      -6.3      2.322      5.810
REMARK  Name = 
REMARK  6 active torsions:
REMARK  status: ('A' for Active; 'I' for Inactive)
REMARK    1  A    between atoms: C_2  and  C_22
REMARK    2  A    between atoms: N_3  and  C_4
REMARK    3  A    between atoms: C_4  and  C_12
REMARK    4  A    between atoms: C_5  and  N_6
REMARK    5  A    between atoms: C_18  and  C_19
REMARK    6  A    between atoms: C_19  and  O_21
REMARK                            x       y       z     vdW  Elec       q    Type
REMARK                         _______ _______ _______ _____ _____    ______ ____
ROOT
ATOM      1  C   UNK A   1       3.216   6.438  18.309  0.00  0.00    +0.000 C 
ATOM      2  C   UNK A   1       2.815   7.453  19.107  0.00  0.00    +0.000 C 
ENDROOT
BRANCH   2   3
ATOM      3  N   UNK A   1       1.585   8.062  19.164  0.00  0.00    +0.000 N 
ATOM      4  C   UNK A   1       1.306   9.381  19.042  0.00  0.00    +0.000 C 
ATOM      5  N   UNK A   1       2.048  10.266  18.476  0.00  0.00    +0.000 NA
ATOM      6  C   UNK A   1       1.385  11.577  18.501  0.00  0.00    +0.000 C 
ATOM      7  C   UNK A   1      -0.107  11.422  18.748  0.00  0.00    +0.000 C 
ATOM      8  S   UNK A   1      -0.237   9.885  19.674  0.00  0.00    +0.000 S 
ATOM      9  H   UNK A   1       0.815   7.478  19.477  0.00  0.00    +0.000 HD
ENDBRANCH   2   3
BRANCH   1  10
ATOM     10  C   UNK A   1       4.656   5.994  18.299  0.00  0.00    +0.000 C 
ATOM     11  O   UNK A   1       5.228   5.815  19.372  0.00  0.00    +0.000 OA
ATOM     12  N   UNK A   2       5.300   5.702  17.099  0.00  0.00    +0.000 N 
ATOM     13  C   UNK A   2       4.801   6.044  15.786  0.00  0.00    +0.000 C 
ATOM     14  S   UNK A   2       5.812   5.151  14.623  0.00  0.00    +0.000 S 
ATOM     15  C   UNK A   2       7.276   5.293  15.675  0.00  0.00    +0.000 C 
ATOM     16  C   UNK A   2       6.777   5.568  17.111  0.00  0.00    +0.000 C 
BRANCH  16  17
ATOM     17  C   UNK A   2       7.381   4.453  17.968  0.00  0.00    +0.000 C 
ATOM     18  O   UNK A   2       8.571   4.166  17.933  0.00  0.00    +0.000 OA
BRANCH  17  19
ATOM     19  O   UNK A   2       6.473   3.697  18.625  0.00  0.00    +0.000 OA
ATOM     20  H   UNK A   2       6.810   3.405  19.495  0.00  0.00    +0.000 HD
ENDBRANCH  17  19
ENDBRANCH  16  17
ENDBRANCH   1  10
BRANCH   1  23
ATOM     21  O   UNK A   0       0.616   4.239  17.214  0.00  0.00    +0.000 OA
ATOM     22  C   UNK A   0       1.548   4.614  17.923  0.00  0.00    +0.000 C 
ATOM     23  N   UNK A   1       2.285   5.732  17.579  0.00  0.00    +0.000 N 
ATOM     24  H   UNK A   1       2.027   6.134  16.683  0.00  0.00    +0.000 HD
BRANCH  22  25
ATOM     25  C   UNK A   0       1.913   3.820  19.126  0.00  0.00    +0.000 A 
ATOM     26  C   UNK A   0       3.040   2.992  19.159  0.00  0.00    +0.000 A 
ATOM     27  C   UNK A   0       3.460   2.413  20.355  0.00  0.00    +0.000 A 
ATOM     28  C   UNK A   0       2.693   2.574  21.503  0.00  0.00    +0.000 A 
ATOM     29  C   UNK A   0       1.486   3.272  21.442  0.00  0.00    +0.000 A 
ATOM     30  C   UNK A   0       1.096   3.898  20.257  0.00  0.00    +0.000 A 
ENDBRANCH  22  25
ENDBRANCH   1  23
TORSDOF 6
ENDMDL
MODEL 7
REMARK VINA RESULT:      -6.2      2.429      6.216
REMARK  Name = 
REMARK  6 active torsions:
REMARK  status: ('A' for Active; 'I' for Inactive)
REMARK    1  A    between atoms: C_2  and  C_22
REMARK    2  A    between atoms: N_3  and  C_4
REMARK    3  A    between atoms: C_4  and  C_12
REMARK    4  A    between atoms: C_5  and  N_6
REMARK    5  A    between atoms: C_18  and  C_19
REMARK    6  A    between atoms: C_19  and  O_21
REMARK                            x       y       z     vdW  Elec       q    Type
REMARK                         _______ _______ _______ _____ _____    ______ ____
ROOT
ATOM      1  C   UNK A   1       2.774   6.237  19.546  0.00  0.00    +0.000 C 
ATOM      2  C   UNK A   1       2.301   7.493  19.380  0.00  0.00    +0.000 C 
ENDROOT
BRANCH   2   3
ATOM      3  N   UNK A   1       1.537   8.239  20.243  0.00  0.00    +0.000 N 
ATOM      4  C   UNK A   1       0.898   9.406  19.988  0.00  0.00    +0.000 C 
ATOM      5  N   UNK A   1       0.554   9.847  18.830  0.00  0.00    +0.000 NA
ATOM      6  C   UNK A   1      -0.159  11.125  18.964  0.00  0.00    +0.000 C 
ATOM      7  C   UNK A   1      -0.674  11.309  20.383  0.00  0.00    +0.000 C 
ATOM      8  S   UNK A   1       0.469  10.350  21.388  0.00  0.00    +0.000 S 
ATOM      9  H   UNK A   1       1.572   7.964  21.220  0.00  0.00    +0.000 HD
ENDBRANCH   2   3
BRANCH   1  10
ATOM     10  C   UNK A   1       3.486   5.532  18.421  0.00  0.00    +0.000 C 
ATOM     11  O   UNK A   1       2.826   5.117  17.470  0.00  0.00    +0.000 OA
ATOM     12  N   UNK A   2       4.875   5.434  18.411  0.00  0.00    +0.000 N 
ATOM     13  C   UNK A   2       5.733   5.715  19.539  0.00  0.00    +0.000 C 
ATOM     14  S   UNK A   2       7.394   5.773  18.898  0.00  0.00    +0.000 S 
ATOM     15  C   UNK A   2       7.036   4.507  17.656  0.00  0.00    +0.000 C 
ATOM     16  C   UNK A   2       5.505   4.485  17.461  0.00  0.00    +0.000 C 
BRANCH  16  17
ATOM     17  C   UNK A   2       5.285   4.728  15.965  0.00  0.00    +0.000 C 
ATOM     18  O   UNK A   2       5.388   3.837  15.131  0.00  0.00    +0.000 OA
BRANCH  17  19
ATOM     19  O   UNK A   2       5.148   6.028  15.623  0.00  0.00    +0.000 OA
ATOM     20  H   UNK A   2       4.938   6.584  16.399  0.00  0.00    +0.000 HD
ENDBRANCH  17  19
ENDBRANCH  16  17
ENDBRANCH   1  10
BRANCH   1  23
ATOM     21  O   UNK A   0       2.748   3.933  22.281  0.00  0.00    +0.000 OA
ATOM     22  C   UNK A   0       2.600   4.299  21.117  0.00  0.00    +0.000 C 
ATOM     23  N   UNK A   1       2.701   5.636  20.783  0.00  0.00    +0.000 N 
ATOM     24  H   UNK A   1       2.827   6.250  21.582  0.00  0.00    +0.000 HD
BRANCH  22  25
ATOM     25  C   UNK A   0       2.253   3.294  20.076  0.00  0.00    +0.000 A 
ATOM     26  C   UNK A   0       0.947   3.130  19.603  0.00  0.00    +0.000 A 
ATOM     27  C   UNK A   0       0.689   2.319  18.500  0.00  0.00    +0.000 A 
ATOM     28  C   UNK A   0       1.722   1.584  17.931  0.00  0.00    +0.000 A 
ATOM     29  C   UNK A   0       2.998   1.625  18.494  0.00  0.00    +0.000 A 
ATOM     30  C   UNK A   0       3.267   2.479  19.564  0.00  0.00    +0.000 A 
ENDBRANCH  22  25
ENDBRANCH   1  23
TORSDOF 6
ENDMDL
MODEL 8
REMARK VINA RESULT:      -6.2      3.209      6.641
REMARK  Name = 
REMARK  6 active torsions:
REMARK  status: ('A' for Active; 'I' for Inactive)
REMARK    1  A    between atoms: C_2  and  C_22
REMARK    2  A    between atoms: N_3  and  C_4
REMARK    3  A    between atoms: C_4  and  C_12
REMARK    4  A    between atoms: C_5  and  N_6
REMARK    5  A    between atoms: C_18  and  C_19
REMARK    6  A    between atoms: C_19  and  O_21
REMARK                            x       y       z     vdW  Elec       q    Type
REMARK                         _______ _______ _______ _____ _____    ______ ____
ROOT
ATOM      1  C   UNK A   1       3.568   5.696  17.528  0.00  0.00    +0.000 C 
ATOM      2  C   UNK A   1       2.909   6.619  18.264  0.00  0.00    +0.000 C 
ENDROOT
BRANCH   2   3
ATOM      3  N   UNK A   1       2.875   7.981  18.096  0.00  0.00    +0.000 N 
ATOM      4  C   UNK A   1       2.035   8.868  18.679  0.00  0.00    +0.000 C 
ATOM      5  N   UNK A   1       1.376   8.688  19.769  0.00  0.00    +0.000 NA
ATOM      6  C   UNK A   1       0.610   9.895  20.105  0.00  0.00    +0.000 C 
ATOM      7  C   UNK A   1       1.158  11.106  19.367  0.00  0.00    +0.000 C 
ATOM      8  S   UNK A   1       1.896  10.411  17.881  0.00  0.00    +0.000 S 
ATOM      9  H   UNK A   1       3.446   8.350  17.341  0.00  0.00    +0.000 HD
ENDBRANCH   2   3
BRANCH   1  10
ATOM     10  C   UNK A   1       3.592   4.251  17.954  0.00  0.00    +0.000 C 
ATOM     11  O   UNK A   1       4.162   3.431  17.237  0.00  0.00    +0.000 OA
ATOM     12  N   UNK A   2       3.061   3.865  19.182  0.00  0.00    +0.000 N 
ATOM     13  C   UNK A   2       2.216   4.690  20.015  0.00  0.00    +0.000 C 
ATOM     14  S   UNK A   2       2.113   3.864  21.590  0.00  0.00    +0.000 S 
ATOM     15  C   UNK A   2       2.200   2.229  20.820  0.00  0.00    +0.000 C 
ATOM     16  C   UNK A   2       2.833   2.419  19.424  0.00  0.00    +0.000 C 
BRANCH  16  17
ATOM     17  C   UNK A   2       4.054   1.496  19.407  0.00  0.00    +0.000 C 
ATOM     18  O   UNK A   2       4.997   1.637  20.175  0.00  0.00    +0.000 OA
BRANCH  17  19
ATOM     19  O   UNK A   2       4.090   0.634  18.366  0.00  0.00    +0.000 OA
ATOM     20  H   UNK A   2       4.099  -0.295  18.669  0.00  0.00    +0.000 HD
ENDBRANCH  17  19
ENDBRANCH  16  17
ENDBRANCH   1  10
BRANCH   1  23
ATOM     21  O   UNK A   0       5.770   6.278  14.770  0.00  0.00    +0.000 OA
ATOM     22  C   UNK A   0       5.461   6.128  15.951  0.00  0.00    +0.000 C 
ATOM     23  N   UNK A   1       4.132   6.056  16.324  0.00  0.00    +0.000 N 
ATOM     24  H   UNK A   1       3.482   6.212  15.559  0.00  0.00    +0.000 HD
BRANCH  22  25
ATOM     25  C   UNK A   0       6.530   6.083  16.984  0.00  0.00    +0.000 A 
ATOM     26  C   UNK A   0       7.094   7.243  17.525  0.00  0.00    +0.000 A 
ATOM     27  C   UNK A   0       7.952   7.171  18.621  0.00  0.00    +0.000 A 
ATOM     28  C   UNK A   0       8.333   5.929  19.114  0.00  0.00    +0.000 A 
ATOM     29  C   UNK A   0       7.894   4.764  18.482  0.00  0.00    +0.000 A 
ATOM     30  C   UNK A   0       6.992   4.838  17.420  0.00  0.00    +0.000 A 
ENDBRANCH  22  25
ENDBRANCH   1  23
TORSDOF 6
ENDMDL
MODEL 9
REMARK VINA RESULT:      -6.1      2.420      4.701
REMARK  Name = 
REMARK  6 active torsions:
REMARK  status: ('A' for Active; 'I' for Inactive)
REMARK    1  A    between atoms: C_2  and  C_22
REMARK    2  A    between atoms: N_3  and  C_4
REMARK    3  A    between atoms: C_4  and  C_12
REMARK    4  A    between atoms: C_5  and  N_6
REMARK    5  A    between atoms: C_18  and  C_19
REMARK    6  A    between atoms: C_19  and  O_21
REMARK                            x       y       z     vdW  Elec       q    Type
REMARK                         _______ _______ _______ _____ _____    ______ ____
ROOT
ATOM      1  C   UNK A   1       2.423   6.766  18.555  0.00  0.00    +0.000 C 
ATOM      2  C   UNK A   1       1.579   5.927  17.912  0.00  0.00    +0.000 C 
ENDROOT
BRANCH   2   3
ATOM      3  N   UNK A   1       1.719   4.579  17.690  0.00  0.00    +0.000 N 
ATOM      4  C   UNK A   1       1.838   3.595  18.612  0.00  0.00    +0.000 C 
ATOM      5  N   UNK A   1       1.466   3.656  19.842  0.00  0.00    +0.000 NA
ATOM      6  C   UNK A   1       1.719   2.374  20.513  0.00  0.00    +0.000 C 
ATOM      7  C   UNK A   1       1.896   1.258  19.496  0.00  0.00    +0.000 C 
ATOM      8  S   UNK A   1       2.516   2.098  18.032  0.00  0.00    +0.000 S 
ATOM      9  H   UNK A   1       1.899   4.303  16.729  0.00  0.00    +0.000 HD
ENDBRANCH   2   3
BRANCH   1  10
ATOM     10  C   UNK A   1       2.157   8.249  18.577  0.00  0.00    +0.000 C 
ATOM     11  O   UNK A   1       2.488   8.925  17.605  0.00  0.00    +0.000 OA
ATOM     12  N   UNK A   2       1.467   8.830  19.638  0.00  0.00    +0.000 N 
ATOM     13  C   UNK A   2       1.193   8.183  20.901  0.00  0.00    +0.000 C 
ATOM     14  S   UNK A   2       0.006   9.215  21.740  0.00  0.00    +0.000 S 
ATOM     15  C   UNK A   2       0.708  10.724  21.030  0.00  0.00    +0.000 C 
ATOM     16  C   UNK A   2       1.494  10.307  19.768  0.00  0.00    +0.000 C 
BRANCH  16  17
ATOM     17  C   UNK A   2       0.890  11.131  18.627  0.00  0.00    +0.000 C 
ATOM     18  O   UNK A   2      -0.300  11.089  18.343  0.00  0.00    +0.000 OA
BRANCH  17  19
ATOM     19  O   UNK A   2       1.798  11.763  17.851  0.00  0.00    +0.000 OA
ATOM     20  H   UNK A   2       2.671  11.814  18.287  0.00  0.00    +0.000 HD
ENDBRANCH  17  19
ENDBRANCH  16  17
ENDBRANCH   1  10
BRANCH   1  23
ATOM     21  O   UNK A   0       5.600   5.574  19.684  0.00  0.00    +0.000 OA
ATOM     22  C   UNK A   0       4.713   5.811  18.865  0.00  0.00    +0.000 C 
ATOM     23  N   UNK A   1       3.473   6.255  19.284  0.00  0.00    +0.000 N 
ATOM     24  H   UNK A   1       3.366   6.283  20.294  0.00  0.00    +0.000 HD
BRANCH  22  25
ATOM     25  C   UNK A   0       4.969   5.563  17.421  0.00  0.00    +0.000 A 
ATOM     26  C   UNK A   0       4.952   6.591  16.474  0.00  0.00    +0.000 A 
ATOM     27  C   UNK A   0       5.381   6.360  15.168  0.00  0.00    +0.000 A 
ATOM     28  C   UNK A   0       5.727   5.072  14.777  0.00  0.00    +0.000 A 
ATOM     29  C   UNK A   0       5.600   4.013  15.677  0.00  0.00    +0.000 A 
ATOM     30  C   UNK A   0       5.223   4.256  16.998  0.00  0.00    +0.000 A 
ENDBRANCH  22  25
ENDBRANCH   1  23
TORSDOF 6
ENDMDL
