MODEL 1
REMARK VINA RESULT:      -8.9      0.000      0.000
REMARK  Name = 
REMARK  9 active torsions:
REMARK  status: ('A' for Active; 'I' for Inactive)
REMARK    1  A    between atoms: C_1  and  C_2
REMARK    2  A    between atoms: C_5  and  C_6
REMARK    3  A    between atoms: C_6  and  C_7
REMARK    4  A    between atoms: C_7  and  N_8
REMARK    5  A    between atoms: N_16  and  C1*_17
REMARK    6  A    between atoms: C4*_19  and  C5*_20
REMARK    7  A    between atoms: C5*_20  and  O5*_21
REMARK    8  A    between atoms: C3*_22  and  O3*_23
REMARK    9  A    between atoms: C2*_24  and  O2*_25
REMARK                            x       y       z     vdW  Elec       q    Type
REMARK                         _______ _______ _______ _____ _____    ______ ____
ROOT
ATOM      1  N   UNL     1       8.071   7.396  18.880  0.00  0.00    +0.000 N 
ATOM      2  C   UNL     1       7.385   6.497  18.059  0.00  0.00    +0.000 A 
ATOM      3  N   UNL     1       7.735   6.416  16.760  0.00  0.00    +0.000 NA
ATOM      4  C   UNL     1       7.093   5.558  15.941  0.00  0.00    +0.000 A 
ATOM      5  N   UNL     1       7.464   5.524  14.602  0.00  0.00    +0.000 N 
ATOM      6  C   UNL     1       6.097   4.738  16.483  0.00  0.00    +0.000 A 
ATOM      7  N   UNL     1       5.313   3.748  15.935  0.00  0.00    +0.000 NA
ATOM      8  C   UNL     1       4.556   3.338  16.928  0.00  0.00    +0.000 A 
ATOM      9  N   UNL     1       4.807   4.031  18.087  0.00  0.00    +0.000 N 
ATOM     10  C   UNL     1       5.818   4.919  17.826  0.00  0.00    +0.000 A 
ATOM     11  N   UNL     1       6.417   5.782  18.665  0.00  0.00    +0.000 NA
ATOM     12  H   UNL     1       7.474   7.577  19.677  0.00  0.00    +0.000 HD
ATOM     13  H   UNL     1       8.402   5.878  14.464  0.00  0.00    +0.000 HD
ATOM     14  H   UNL     1       7.214   4.657  14.140  0.00  0.00    +0.000 HD
ENDROOT
BRANCH   9  15
ATOM     15  C1* UNL     1       4.083   3.838  19.324  0.00  0.00    +0.000 C 
ATOM     16  O4* UNL     1       3.567   2.489  19.372  0.00  0.00    +0.000 OA
ATOM     17  C4* UNL     1       2.236   2.530  19.943  0.00  0.00    +0.000 C 
ATOM     18  C3* UNL     1       2.029   3.949  20.468  0.00  0.00    +0.000 C 
ATOM     19  C2* UNL     1       2.916   4.792  19.562  0.00  0.00    +0.000 C 
BRANCH  18  20
ATOM     20  O3* UNL     1       2.514   4.098  21.818  0.00  0.00    +0.000 OA
ATOM     21  H3* UNL     1       3.481   4.223  21.801  0.00  0.00    +0.000 HD
ENDBRANCH  18  20
BRANCH  19  22
ATOM     22  O2* UNL     1       3.322   5.999  20.211  0.00  0.00    +0.000 OA
ATOM     23  H2* UNL     1       2.508   6.395  20.587  0.00  0.00    +0.000 HD
ENDBRANCH  19  22
BRANCH  17  24
ATOM     24  C5* UNL     1       1.217   2.139  18.871  0.00  0.00    +0.000 C 
BRANCH  24  25
ATOM     25  O5* UNL     1      -0.085   2.580  19.250  0.00  0.00    +0.000 OA
ATOM     26  H5* UNL     1      -0.127   2.497  20.223  0.00  0.00    +0.000 HD
ENDBRANCH  24  25
ENDBRANCH  17  24
ENDBRANCH   9  15
BRANCH   1  27
ATOM     27  C   UNL     1       8.572   8.579  18.184  0.00  0.00    +0.000 C 
BRANCH  27  28
ATOM     28  C   UNL     1       8.923   9.683  19.191  0.00  0.00    +0.000 C 
BRANCH  28  33
ATOM     29  C   UNL     1      11.379  14.371  16.730  0.00  0.00    +0.000 C 
ATOM     30  C   UNL     1      10.741  13.158  17.339  0.00  0.00    +0.000 A 
ATOM     31  C   UNL     1       9.349  13.030  17.402  0.00  0.00    +0.000 A 
ATOM     32  C   UNL     1       8.764  11.905  17.993  0.00  0.00    +0.000 A 
ATOM     33  C   UNL     1       9.559  10.888  18.536  0.00  0.00    +0.000 A 
ATOM     34  C   UNL     1      10.952  11.009  18.457  0.00  0.00    +0.000 A 
ATOM     35  C   UNL     1      11.538  12.133  17.865  0.00  0.00    +0.000 A 
ENDBRANCH  28  33
ENDBRANCH  27  28
ENDBRANCH   1  27
TORSDOF 8
ENDMDL
MODEL 2
REMARK VINA RESULT:      -8.8      0.915      1.010
REMARK  Name = 
REMARK  9 active torsions:
REMARK  status: ('A' for Active; 'I' for Inactive)
REMARK    1  A    between atoms: C_1  and  C_2
REMARK    2  A    between atoms: C_5  and  C_6
REMARK    3  A    between atoms: C_6  and  C_7
REMARK    4  A    between atoms: C_7  and  N_8
REMARK    5  A    between atoms: N_16  and  C1*_17
REMARK    6  A    between atoms: C4*_19  and  C5*_20
REMARK    7  A    between atoms: C5*_20  and  O5*_21
REMARK    8  A    between atoms: C3*_22  and  O3*_23
REMARK    9  A    between atoms: C2*_24  and  O2*_25
REMARK                            x       y       z     vdW  Elec       q    Type
REMARK                         _______ _______ _______ _____ _____    ______ ____
ROOT
ATOM      1  N   UNL     1       8.025   7.630  18.418  0.00  0.00    +0.000 N 
ATOM      2  C   UNL     1       7.318   6.647  17.718  0.00  0.00    +0.000 A 
ATOM      3  N   UNL     1       7.663   6.395  16.439  0.00  0.00    +0.000 NA
ATOM      4  C   UNL     1       7.002   5.453  15.736  0.00  0.00    +0.000 A 
ATOM      5  N   UNL     1       7.367   5.242  14.412  0.00  0.00    +0.000 N 
ATOM      6  C   UNL     1       5.991   4.729  16.378  0.00  0.00    +0.000 A 
ATOM      7  N   UNL     1       5.186   3.693  15.961  0.00  0.00    +0.000 NA
ATOM      8  C   UNL     1       4.423   3.428  16.999  0.00  0.00    +0.000 A 
ATOM      9  N   UNL     1       4.691   4.257  18.060  0.00  0.00    +0.000 N 
ATOM     10  C   UNL     1       5.719   5.084  17.688  0.00  0.00    +0.000 A 
ATOM     11  N   UNL     1       6.338   6.035  18.410  0.00  0.00    +0.000 NA
ATOM     12  H   UNL     1       7.433   7.922  19.186  0.00  0.00    +0.000 HD
ATOM     13  H   UNL     1       8.312   5.557  14.230  0.00  0.00    +0.000 HD
ATOM     14  H   UNL     1       7.099   4.328  14.064  0.00  0.00    +0.000 HD
ENDROOT
BRANCH   9  15
ATOM     15  C1* UNL     1       3.968   4.237  19.312  0.00  0.00    +0.000 C 
ATOM     16  O4* UNL     1       3.449   2.910  19.544  0.00  0.00    +0.000 OA
ATOM     17  C4* UNL     1       2.117   3.032  20.105  0.00  0.00    +0.000 C 
ATOM     18  C3* UNL     1       1.915   4.510  20.430  0.00  0.00    +0.000 C 
ATOM     19  C2* UNL     1       2.803   5.218  19.417  0.00  0.00    +0.000 C 
BRANCH  18  20
ATOM     20  O3* UNL     1       2.400   4.841  21.746  0.00  0.00    +0.000 OA
ATOM     21  H3* UNL     1       1.711   5.336  22.229  0.00  0.00    +0.000 HD
ENDBRANCH  18  20
BRANCH  19  22
ATOM     22  O2* UNL     1       3.213   6.502  19.895  0.00  0.00    +0.000 OA
ATOM     23  H2* UNL     1       2.628   7.156  19.457  0.00  0.00    +0.000 HD
ENDBRANCH  19  22
BRANCH  17  24
ATOM     24  C5* UNL     1       1.097   2.500  19.097  0.00  0.00    +0.000 C 
BRANCH  24  25
ATOM     25  O5* UNL     1       1.723   1.578  18.208  0.00  0.00    +0.000 OA
ATOM     26  H5* UNL     1       1.893   2.070  17.381  0.00  0.00    +0.000 HD
ENDBRANCH  24  25
ENDBRANCH  17  24
ENDBRANCH   9  15
BRANCH   1  27
ATOM     27  C   UNL     1       8.547   8.704  17.577  0.00  0.00    +0.000 C 
BRANCH  27  28
ATOM     28  C   UNL     1       7.976  10.057  18.024  0.00  0.00    +0.000 C 
BRANCH  28  33
ATOM     29  C   UNL     1      12.095  13.950  19.421  0.00  0.00    +0.000 C 
ATOM     30  C   UNL     1      11.048  12.945  19.039  0.00  0.00    +0.000 A 
ATOM     31  C   UNL     1      10.089  13.239  18.065  0.00  0.00    +0.000 A 
ATOM     32  C   UNL     1       9.102  12.303  17.732  0.00  0.00    +0.000 A 
ATOM     33  C   UNL     1       9.055  11.058  18.372  0.00  0.00    +0.000 A 
ATOM     34  C   UNL     1      10.026  10.759  19.335  0.00  0.00    +0.000 A 
ATOM     35  C   UNL     1      11.013  11.694  19.667  0.00  0.00    +0.000 A 
ENDBRANCH  28  33
ENDBRANCH  27  28
ENDBRANCH   1  27
TORSDOF 8
ENDMDL
MODEL 3
REMARK VINA RESULT:      -8.4      5.158      7.545
REMARK  Name = 
REMARK  9 active torsions:
REMARK  status: ('A' for Active; 'I' for Inactive)
REMARK    1  A    between atoms: C_1  and  C_2
REMARK    2  A    between atoms: C_5  and  C_6
REMARK    3  A    between atoms: C_6  and  C_7
REMARK    4  A    between atoms: C_7  and  N_8
REMARK    5  A    between atoms: N_16  and  C1*_17
REMARK    6  A    between atoms: C4*_19  and  C5*_20
REMARK    7  A    between atoms: C5*_20  and  O5*_21
REMARK    8  A    between atoms: C3*_22  and  O3*_23
REMARK    9  A    between atoms: C2*_24  and  O2*_25
REMARK                            x       y       z     vdW  Elec       q    Type
REMARK                         _______ _______ _______ _____ _____    ______ ____
ROOT
ATOM      1  N   UNL     1       1.686   7.867  20.259  0.00  0.00    +0.000 N 
ATOM      2  C   UNL     1       2.065   6.540  20.036  0.00  0.00    +0.000 A 
ATOM      3  N   UNL     1       1.391   5.562  20.675  0.00  0.00    +0.000 NA
ATOM      4  C   UNL     1       1.730   4.272  20.481  0.00  0.00    +0.000 A 
ATOM      5  N   UNL     1       1.032   3.295  21.180  0.00  0.00    +0.000 N 
ATOM      6  C   UNL     1       2.759   3.982  19.577  0.00  0.00    +0.000 A 
ATOM      7  N   UNL     1       3.292   2.793  19.132  0.00  0.00    +0.000 NA
ATOM      8  C   UNL     1       4.239   3.150  18.292  0.00  0.00    +0.000 A 
ATOM      9  N   UNL     1       4.349   4.515  18.189  0.00  0.00    +0.000 N 
ATOM     10  C   UNL     1       3.383   5.068  18.989  0.00  0.00    +0.000 A 
ATOM     11  N   UNL     1       3.090   6.366  19.180  0.00  0.00    +0.000 NA
ATOM     12  H   UNL     1       2.479   8.442  20.004  0.00  0.00    +0.000 HD
ATOM     13  H   UNL     1       0.123   3.626  21.477  0.00  0.00    +0.000 HD
ATOM     14  H   UNL     1       1.083   2.380  20.746  0.00  0.00    +0.000 HD
ENDROOT
BRANCH   9  15
ATOM     15  C1* UNL     1       5.343   5.194  17.387  0.00  0.00    +0.000 C 
ATOM     16  O4* UNL     1       4.768   5.544  16.109  0.00  0.00    +0.000 OA
ATOM     17  C4* UNL     1       5.767   5.319  15.083  0.00  0.00    +0.000 C 
ATOM     18  C3* UNL     1       7.080   5.027  15.807  0.00  0.00    +0.000 C 
ATOM     19  C2* UNL     1       6.626   4.410  17.123  0.00  0.00    +0.000 C 
BRANCH  18  20
ATOM     20  O3* UNL     1       7.802   6.236  16.117  0.00  0.00    +0.000 OA
ATOM     21  H3* UNL     1       8.724   6.148  15.810  0.00  0.00    +0.000 HD
ENDBRANCH  18  20
BRANCH  19  22
ATOM     22  O2* UNL     1       7.602   4.601  18.149  0.00  0.00    +0.000 OA
ATOM     23  H2* UNL     1       8.335   5.107  17.739  0.00  0.00    +0.000 HD
ENDBRANCH  19  22
BRANCH  17  24
ATOM     24  C5* UNL     1       5.315   4.165  14.186  0.00  0.00    +0.000 C 
BRANCH  24  25
ATOM     25  O5* UNL     1       6.448   3.438  13.717  0.00  0.00    +0.000 OA
ATOM     26  H5* UNL     1       6.360   2.535  14.079  0.00  0.00    +0.000 HD
ENDBRANCH  24  25
ENDBRANCH  17  24
ENDBRANCH   9  15
BRANCH   1  27
ATOM     27  C   UNL     1       1.127   8.114  21.587  0.00  0.00    +0.000 C 
BRANCH  27  28
ATOM     28  C   UNL     1      -0.257   8.766  21.470  0.00  0.00    +0.000 C 
BRANCH  28  33
ATOM     29  C   UNL     1      -0.202  13.783  18.486  0.00  0.00    +0.000 C 
ATOM     30  C   UNL     1      -0.200  12.483  19.235  0.00  0.00    +0.000 A 
ATOM     31  C   UNL     1      -0.888  11.368  18.746  0.00  0.00    +0.000 A 
ATOM     32  C   UNL     1      -0.899  10.166  19.464  0.00  0.00    +0.000 A 
ATOM     33  C   UNL     1      -0.227  10.060  20.687  0.00  0.00    +0.000 A 
ATOM     34  C   UNL     1       0.476  11.172  21.169  0.00  0.00    +0.000 A 
ATOM     35  C   UNL     1       0.488  12.373  20.450  0.00  0.00    +0.000 A 
ENDBRANCH  28  33
ENDBRANCH  27  28
ENDBRANCH   1  27
TORSDOF 8
ENDMDL
MODEL 4
REMARK VINA RESULT:      -8.4      0.997      1.031
REMARK  Name = 
REMARK  9 active torsions:
REMARK  status: ('A' for Active; 'I' for Inactive)
REMARK    1  A    between atoms: C_1  and  C_2
REMARK    2  A    between atoms: C_5  and  C_6
REMARK    3  A    between atoms: C_6  and  C_7
REMARK    4  A    between atoms: C_7  and  N_8
REMARK    5  A    between atoms: N_16  and  C1*_17
REMARK    6  A    between atoms: C4*_19  and  C5*_20
REMARK    7  A    between atoms: C5*_20  and  O5*_21
REMARK    8  A    between atoms: C3*_22  and  O3*_23
REMARK    9  A    between atoms: C2*_24  and  O2*_25
REMARK                            x       y       z     vdW  Elec       q    Type
REMARK                         _______ _______ _______ _____ _____    ______ ____
ROOT
ATOM      1  N   UNL     1       7.928   7.496  18.790  0.00  0.00    +0.000 N 
ATOM      2  C   UNL     1       7.271   6.563  17.983  0.00  0.00    +0.000 A 
ATOM      3  N   UNL     1       7.641   6.456  16.691  0.00  0.00    +0.000 NA
ATOM      4  C   UNL     1       7.028   5.565  15.886  0.00  0.00    +0.000 A 
ATOM      5  N   UNL     1       7.417   5.506  14.553  0.00  0.00    +0.000 N 
ATOM      6  C   UNL     1       6.042   4.739  16.435  0.00  0.00    +0.000 A 
ATOM      7  N   UNL     1       5.286   3.718  15.902  0.00  0.00    +0.000 NA
ATOM      8  C   UNL     1       4.524   3.318  16.896  0.00  0.00    +0.000 A 
ATOM      9  N   UNL     1       4.745   4.044  18.040  0.00  0.00    +0.000 N 
ATOM     10  C   UNL     1       5.741   4.946  17.769  0.00  0.00    +0.000 A 
ATOM     11  N   UNL     1       6.310   5.843  18.594  0.00  0.00    +0.000 NA
ATOM     12  H   UNL     1       7.316   7.684  19.575  0.00  0.00    +0.000 HD
ATOM     13  H   UNL     1       8.349   5.876  14.418  0.00  0.00    +0.000 HD
ATOM     14  H   UNL     1       7.191   4.622  14.110  0.00  0.00    +0.000 HD
ENDROOT
BRANCH   9  15
ATOM     15  C1* UNL     1       4.009   3.867  19.272  0.00  0.00    +0.000 C 
ATOM     16  O4* UNL     1       3.442   2.539  19.304  0.00  0.00    +0.000 OA
ATOM     17  C4* UNL     1       2.111   2.624  19.871  0.00  0.00    +0.000 C 
ATOM     18  C3* UNL     1       1.955   4.045  20.408  0.00  0.00    +0.000 C 
ATOM     19  C2* UNL     1       2.877   4.862  19.515  0.00  0.00    +0.000 C 
BRANCH  18  20
ATOM     20  O3* UNL     1       2.439   4.163  21.761  0.00  0.00    +0.000 OA
ATOM     21  H3* UNL     1       3.413   4.108  21.761  0.00  0.00    +0.000 HD
ENDBRANCH  18  20
BRANCH  19  22
ATOM     22  O2* UNL     1       3.326   6.046  20.177  0.00  0.00    +0.000 OA
ATOM     23  H2* UNL     1       3.697   5.755  21.037  0.00  0.00    +0.000 HD
ENDBRANCH  19  22
BRANCH  17  24
ATOM     24  C5* UNL     1       1.082   2.282  18.791  0.00  0.00    +0.000 C 
BRANCH  24  25
ATOM     25  O5* UNL     1       1.732   1.690  17.668  0.00  0.00    +0.000 OA
ATOM     26  H5* UNL     1       1.939   2.424  17.057  0.00  0.00    +0.000 HD
ENDBRANCH  24  25
ENDBRANCH  17  24
ENDBRANCH   9  15
BRANCH   1  27
ATOM     27  C   UNL     1       8.413   8.672  18.071  0.00  0.00    +0.000 C 
BRANCH  27  28
ATOM     28  C   UNL     1       9.284   9.539  18.991  0.00  0.00    +0.000 C 
BRANCH  28  33
ATOM     29  C   UNL     1       8.785  15.242  17.850  0.00  0.00    +0.000 C 
ATOM     30  C   UNL     1       8.925  13.772  18.121  0.00  0.00    +0.000 A 
ATOM     31  C   UNL     1       8.155  12.835  17.425  0.00  0.00    +0.000 A 
ATOM     32  C   UNL     1       8.277  11.468  17.701  0.00  0.00    +0.000 A 
ATOM     33  C   UNL     1       9.168  11.015  18.681  0.00  0.00    +0.000 A 
ATOM     34  C   UNL     1       9.951  11.953  19.365  0.00  0.00    +0.000 A 
ATOM     35  C   UNL     1       9.830  13.320  19.088  0.00  0.00    +0.000 A 
ENDBRANCH  28  33
ENDBRANCH  27  28
ENDBRANCH   1  27
TORSDOF 8
ENDMDL
MODEL 5
REMARK VINA RESULT:      -8.4      4.911      7.865
REMARK  Name = 
REMARK  9 active torsions:
REMARK  status: ('A' for Active; 'I' for Inactive)
REMARK    1  A    between atoms: C_1  and  C_2
REMARK    2  A    between atoms: C_5  and  C_6
REMARK    3  A    between atoms: C_6  and  C_7
REMARK    4  A    between atoms: C_7  and  N_8
REMARK    5  A    between atoms: N_16  and  C1*_17
REMARK    6  A    between atoms: C4*_19  and  C5*_20
REMARK    7  A    between atoms: C5*_20  and  O5*_21
REMARK    8  A    between atoms: C3*_22  and  O3*_23
REMARK    9  A    between atoms: C2*_24  and  O2*_25
REMARK                            x       y       z     vdW  Elec       q    Type
REMARK                         _______ _______ _______ _____ _____    ______ ____
ROOT
ATOM      1  N   UNL     1       2.094   7.629  20.112  0.00  0.00    +0.000 N 
ATOM      2  C   UNL     1       2.288   6.265  19.875  0.00  0.00    +0.000 A 
ATOM      3  N   UNL     1       1.417   5.388  20.414  0.00  0.00    +0.000 NA
ATOM      4  C   UNL     1       1.575   4.065  20.203  0.00  0.00    +0.000 A 
ATOM      5  N   UNL     1       0.674   3.191  20.799  0.00  0.00    +0.000 N 
ATOM      6  C   UNL     1       2.630   3.642  19.388  0.00  0.00    +0.000 A 
ATOM      7  N   UNL     1       3.019   2.396  18.949  0.00  0.00    +0.000 NA
ATOM      8  C   UNL     1       4.085   2.622  18.213  0.00  0.00    +0.000 A 
ATOM      9  N   UNL     1       4.408   3.956  18.171  0.00  0.00    +0.000 N 
ATOM     10  C   UNL     1       3.464   4.632  18.900  0.00  0.00    +0.000 A 
ATOM     11  N   UNL     1       3.353   5.956  19.111  0.00  0.00    +0.000 NA
ATOM     12  H   UNL     1       2.985   8.081  19.952  0.00  0.00    +0.000 HD
ATOM     13  H   UNL     1      -0.200   3.650  21.024  0.00  0.00    +0.000 HD
ATOM     14  H   UNL     1       0.628   2.289  20.338  0.00  0.00    +0.000 HD
ENDROOT
BRANCH   9  15
ATOM     15  C1* UNL     1       5.565   4.493  17.489  0.00  0.00    +0.000 C 
ATOM     16  O4* UNL     1       6.756   4.162  18.236  0.00  0.00    +0.000 OA
ATOM     17  C4* UNL     1       7.645   5.307  18.207  0.00  0.00    +0.000 C 
ATOM     18  C3* UNL     1       7.051   6.297  17.208  0.00  0.00    +0.000 C 
ATOM     19  C2* UNL     1       5.558   6.003  17.268  0.00  0.00    +0.000 C 
BRANCH  18  20
ATOM     20  O3* UNL     1       7.495   6.034  15.863  0.00  0.00    +0.000 OA
ATOM     21  H3* UNL     1       8.136   5.298  15.873  0.00  0.00    +0.000 HD
ENDBRANCH  18  20
BRANCH  19  22
ATOM     22  O2* UNL     1       4.908   6.373  16.050  0.00  0.00    +0.000 OA
ATOM     23  H2* UNL     1       5.510   6.101  15.325  0.00  0.00    +0.000 HD
ENDBRANCH  19  22
BRANCH  17  24
ATOM     24  C5* UNL     1       7.764   5.886  19.619  0.00  0.00    +0.000 C 
BRANCH  24  25
ATOM     25  O5* UNL     1       8.734   5.157  20.366  0.00  0.00    +0.000 OA
ATOM     26  H5* UNL     1       8.768   4.264  19.969  0.00  0.00    +0.000 HD
ENDBRANCH  24  25
ENDBRANCH  17  24
ENDBRANCH   9  15
BRANCH   1  27
ATOM     27  C   UNL     1       1.453   7.928  21.391  0.00  0.00    +0.000 C 
BRANCH  27  28
ATOM     28  C   UNL     1      -0.005   8.352  21.172  0.00  0.00    +0.000 C 
BRANCH  28  33
ATOM     29  C   UNL     1      -0.929  13.891  22.764  0.00  0.00    +0.000 C 
ATOM     30  C   UNL     1      -0.717  12.464  22.351  0.00  0.00    +0.000 A 
ATOM     31  C   UNL     1      -1.078  11.409  23.195  0.00  0.00    +0.000 A 
ATOM     32  C   UNL     1      -0.855  10.081  22.810  0.00  0.00    +0.000 A 
ATOM     33  C   UNL     1      -0.262   9.786  21.576  0.00  0.00    +0.000 A 
ATOM     34  C   UNL     1       0.083  10.844  20.725  0.00  0.00    +0.000 A 
ATOM     35  C   UNL     1      -0.141  12.171  21.109  0.00  0.00    +0.000 A 
ENDBRANCH  28  33
ENDBRANCH  27  28
ENDBRANCH   1  27
TORSDOF 8
ENDMDL
MODEL 6
REMARK VINA RESULT:      -8.4      4.632      7.416
REMARK  Name = 
REMARK  9 active torsions:
REMARK  status: ('A' for Active; 'I' for Inactive)
REMARK    1  A    between atoms: C_1  and  C_2
REMARK    2  A    between atoms: C_5  and  C_6
REMARK    3  A    between atoms: C_6  and  C_7
REMARK    4  A    between atoms: C_7  and  N_8
REMARK    5  A    between atoms: N_16  and  C1*_17
REMARK    6  A    between atoms: C4*_19  and  C5*_20
REMARK    7  A    between atoms: C5*_20  and  O5*_21
REMARK    8  A    between atoms: C3*_22  and  O3*_23
REMARK    9  A    between atoms: C2*_24  and  O2*_25
REMARK                            x       y       z     vdW  Elec       q    Type
REMARK                         _______ _______ _______ _____ _____    ______ ____
ROOT
ATOM      1  N   UNL     1       2.067   7.669  20.134  0.00  0.00    +0.000 N 
ATOM      2  C   UNL     1       2.289   6.303  19.936  0.00  0.00    +0.000 A 
ATOM      3  N   UNL     1       1.451   5.423  20.519  0.00  0.00    +0.000 NA
ATOM      4  C   UNL     1       1.637   4.098  20.347  0.00  0.00    +0.000 A 
ATOM      5  N   UNL     1       0.769   3.222  20.987  0.00  0.00    +0.000 N 
ATOM      6  C   UNL     1       2.686   3.674  19.524  0.00  0.00    +0.000 A 
ATOM      7  N   UNL     1       3.097   2.425  19.116  0.00  0.00    +0.000 NA
ATOM      8  C   UNL     1       4.143   2.653  18.353  0.00  0.00    +0.000 A 
ATOM      9  N   UNL     1       4.432   3.992  18.263  0.00  0.00    +0.000 N 
ATOM     10  C   UNL     1       3.486   4.669  18.988  0.00  0.00    +0.000 A 
ATOM     11  N   UNL     1       3.347   5.995  19.161  0.00  0.00    +0.000 NA
ATOM     12  H   UNL     1       2.943   8.137  19.942  0.00  0.00    +0.000 HD
ATOM     13  H   UNL     1      -0.110   3.667  21.215  0.00  0.00    +0.000 HD
ATOM     14  H   UNL     1       0.737   2.305  20.556  0.00  0.00    +0.000 HD
ENDROOT
BRANCH   9  15
ATOM     15  C1* UNL     1       5.562   4.535  17.541  0.00  0.00    +0.000 C 
ATOM     16  O4* UNL     1       6.781   4.209  18.246  0.00  0.00    +0.000 OA
ATOM     17  C4* UNL     1       7.663   5.358  18.187  0.00  0.00    +0.000 C 
ATOM     18  C3* UNL     1       7.029   6.346  17.210  0.00  0.00    +0.000 C 
ATOM     19  C2* UNL     1       5.541   6.046  17.321  0.00  0.00    +0.000 C 
BRANCH  18  20
ATOM     20  O3* UNL     1       7.429   6.085  15.850  0.00  0.00    +0.000 OA
ATOM     21  H3* UNL     1       7.130   6.819  15.280  0.00  0.00    +0.000 HD
ENDBRANCH  18  20
BRANCH  19  22
ATOM     22  O2* UNL     1       4.848   6.412  16.127  0.00  0.00    +0.000 OA
ATOM     23  H2* UNL     1       5.535   6.535  15.438  0.00  0.00    +0.000 HD
ENDBRANCH  19  22
BRANCH  17  24
ATOM     24  C5* UNL     1       7.827   5.937  19.594  0.00  0.00    +0.000 C 
BRANCH  24  25
ATOM     25  O5* UNL     1       8.693   5.108  20.365  0.00  0.00    +0.000 OA
ATOM     26  H5* UNL     1       9.462   4.913  19.794  0.00  0.00    +0.000 HD
ENDBRANCH  24  25
ENDBRANCH  17  24
ENDBRANCH   9  15
BRANCH   1  27
ATOM     27  C   UNL     1       1.444   7.993  21.416  0.00  0.00    +0.000 C 
BRANCH  27  28
ATOM     28  C   UNL     1       0.037   8.563  21.196  0.00  0.00    +0.000 C 
BRANCH  28  33
ATOM     29  C   UNL     1       0.168  13.794  18.609  0.00  0.00    +0.000 C 
ATOM     30  C   UNL     1       0.121  12.460  19.293  0.00  0.00    +0.000 A 
ATOM     31  C   UNL     1       0.866  12.217  20.451  0.00  0.00    +0.000 A 
ATOM     32  C   UNL     1       0.832  10.961  21.069  0.00  0.00    +0.000 A 
ATOM     33  C   UNL     1       0.056   9.924  20.537  0.00  0.00    +0.000 A 
ATOM     34  C   UNL     1      -0.703  10.174  19.387  0.00  0.00    +0.000 A 
ATOM     35  C   UNL     1      -0.671  11.430  18.770  0.00  0.00    +0.000 A 
ENDBRANCH  28  33
ENDBRANCH  27  28
ENDBRANCH   1  27
TORSDOF 8
ENDMDL
MODEL 7
REMARK VINA RESULT:      -8.4      5.175      7.996
REMARK  Name = 
REMARK  9 active torsions:
REMARK  status: ('A' for Active; 'I' for Inactive)
REMARK    1  A    between atoms: C_1  and  C_2
REMARK    2  A    between atoms: C_5  and  C_6
REMARK    3  A    between atoms: C_6  and  C_7
REMARK    4  A    between atoms: C_7  and  N_8
REMARK    5  A    between atoms: N_16  and  C1*_17
REMARK    6  A    between atoms: C4*_19  and  C5*_20
REMARK    7  A    between atoms: C5*_20  and  O5*_21
REMARK    8  A    between atoms: C3*_22  and  O3*_23
REMARK    9  A    between atoms: C2*_24  and  O2*_25
REMARK                            x       y       z     vdW  Elec       q    Type
REMARK                         _______ _______ _______ _____ _____    ______ ____
ROOT
ATOM      1  N   UNL     1       1.781   7.878  20.328  0.00  0.00    +0.000 N 
ATOM      2  C   UNL     1       2.119   6.546  20.068  0.00  0.00    +0.000 A 
ATOM      3  N   UNL     1       1.428   5.573  20.694  0.00  0.00    +0.000 NA
ATOM      4  C   UNL     1       1.728   4.278  20.465  0.00  0.00    +0.000 A 
ATOM      5  N   UNL     1       1.013   3.305  21.152  0.00  0.00    +0.000 N 
ATOM      6  C   UNL     1       2.735   3.982  19.540  0.00  0.00    +0.000 A 
ATOM      7  N   UNL     1       3.228   2.790  19.058  0.00  0.00    +0.000 NA
ATOM      8  C   UNL     1       4.173   3.140  18.213  0.00  0.00    +0.000 A 
ATOM      9  N   UNL     1       4.319   4.503  18.140  0.00  0.00    +0.000 N 
ATOM     10  C   UNL     1       3.380   5.063  18.968  0.00  0.00    +0.000 A 
ATOM     11  N   UNL     1       3.127   6.365  19.193  0.00  0.00    +0.000 NA
ATOM     12  H   UNL     1       2.586   8.437  20.074  0.00  0.00    +0.000 HD
ATOM     13  H   UNL     1       0.118   3.653  21.470  0.00  0.00    +0.000 HD
ATOM     14  H   UNL     1       1.032   2.399  20.696  0.00  0.00    +0.000 HD
ENDROOT
BRANCH   9  15
ATOM     15  C1* UNL     1       5.320   5.174  17.340  0.00  0.00    +0.000 C 
ATOM     16  O4* UNL     1       4.769   5.475  16.039  0.00  0.00    +0.000 OA
ATOM     17  C4* UNL     1       5.794   5.235  15.043  0.00  0.00    +0.000 C 
ATOM     18  C3* UNL     1       7.094   4.987  15.804  0.00  0.00    +0.000 C 
ATOM     19  C2* UNL     1       6.620   4.403  17.128  0.00  0.00    +0.000 C 
BRANCH  18  20
ATOM     20  O3* UNL     1       7.790   6.216  16.092  0.00  0.00    +0.000 OA
ATOM     21  H3* UNL     1       8.678   6.185  15.688  0.00  0.00    +0.000 HD
ENDBRANCH  18  20
BRANCH  19  22
ATOM     22  O2* UNL     1       7.570   4.640  18.169  0.00  0.00    +0.000 OA
ATOM     23  H2* UNL     1       8.303   5.147  17.760  0.00  0.00    +0.000 HD
ENDBRANCH  19  22
BRANCH  17  24
ATOM     24  C5* UNL     1       5.379   4.047  14.172  0.00  0.00    +0.000 C 
BRANCH  24  25
ATOM     25  O5* UNL     1       6.515   3.524  13.486  0.00  0.00    +0.000 OA
ATOM     26  H5* UNL     1       6.210   2.712  13.036  0.00  0.00    +0.000 HD
ENDBRANCH  24  25
ENDBRANCH  17  24
ENDBRANCH   9  15
BRANCH   1  27
ATOM     27  C   UNL     1       1.248   8.108  21.669  0.00  0.00    +0.000 C 
BRANCH  27  28
ATOM     28  C   UNL     1      -0.251   8.427  21.600  0.00  0.00    +0.000 C 
BRANCH  28  33
ATOM     29  C   UNL     1      -1.426  14.135  21.939  0.00  0.00    +0.000 C 
ATOM     30  C   UNL     1      -1.099  12.673  21.848  0.00  0.00    +0.000 A 
ATOM     31  C   UNL     1      -0.761  12.084  20.625  0.00  0.00    +0.000 A 
ATOM     32  C   UNL     1      -0.480  10.715  20.548  0.00  0.00    +0.000 A 
ATOM     33  C   UNL     1      -0.537   9.909  21.691  0.00  0.00    +0.000 A 
ATOM     34  C   UNL     1      -0.858  10.503  22.918  0.00  0.00    +0.000 A 
ATOM     35  C   UNL     1      -1.138  11.872  22.996  0.00  0.00    +0.000 A 
ENDBRANCH  28  33
ENDBRANCH  27  28
ENDBRANCH   1  27
TORSDOF 8
ENDMDL
MODEL 8
REMARK VINA RESULT:      -8.3      4.888      8.003
REMARK  Name = 
REMARK  9 active torsions:
REMARK  status: ('A' for Active; 'I' for Inactive)
REMARK    1  A    between atoms: C_1  and  C_2
REMARK    2  A    between atoms: C_5  and  C_6
REMARK    3  A    between atoms: C_6  and  C_7
REMARK    4  A    between atoms: C_7  and  N_8
REMARK    5  A    between atoms: N_16  and  C1*_17
REMARK    6  A    between atoms: C4*_19  and  C5*_20
REMARK    7  A    between atoms: C5*_20  and  O5*_21
REMARK    8  A    between atoms: C3*_22  and  O3*_23
REMARK    9  A    between atoms: C2*_24  and  O2*_25
REMARK                            x       y       z     vdW  Elec       q    Type
REMARK                         _______ _______ _______ _____ _____    ______ ____
ROOT
ATOM      1  N   UNL     1       1.840   7.436  20.054  0.00  0.00    +0.000 N 
ATOM      2  C   UNL     1       2.200   6.088  19.968  0.00  0.00    +0.000 A 
ATOM      3  N   UNL     1       1.443   5.178  20.613  0.00  0.00    +0.000 NA
ATOM      4  C   UNL     1       1.763   3.869  20.550  0.00  0.00    +0.000 A 
ATOM      5  N   UNL     1       0.975   2.964  21.252  0.00  0.00    +0.000 N 
ATOM      6  C   UNL     1       2.863   3.488  19.773  0.00  0.00    +0.000 A 
ATOM      7  N   UNL     1       3.402   2.258  19.471  0.00  0.00    +0.000 NA
ATOM      8  C   UNL     1       4.432   2.528  18.701  0.00  0.00    +0.000 A 
ATOM      9  N   UNL     1       4.589   3.878  18.506  0.00  0.00    +0.000 N 
ATOM     10  C   UNL     1       3.569   4.512  19.166  0.00  0.00    +0.000 A 
ATOM     11  N   UNL     1       3.296   5.827  19.230  0.00  0.00    +0.000 NA
ATOM     12  H   UNL     1       2.669   7.973  19.832  0.00  0.00    +0.000 HD
ATOM     13  H   UNL     1       0.052   3.336  21.436  0.00  0.00    +0.000 HD
ATOM     14  H   UNL     1       1.041   2.017  20.896  0.00  0.00    +0.000 HD
ENDROOT
BRANCH   9  15
ATOM     15  C1* UNL     1       5.672   4.472  17.753  0.00  0.00    +0.000 C 
ATOM     16  O4* UNL     1       6.914   4.271  18.462  0.00  0.00    +0.000 OA
ATOM     17  C4* UNL     1       7.706   5.480  18.346  0.00  0.00    +0.000 C 
ATOM     18  C3* UNL     1       6.995   6.372  17.331  0.00  0.00    +0.000 C 
ATOM     19  C2* UNL     1       5.535   5.965  17.466  0.00  0.00    +0.000 C 
BRANCH  18  20
ATOM     20  O3* UNL     1       7.408   6.082  15.980  0.00  0.00    +0.000 OA
ATOM     21  H3* UNL     1       7.661   6.913  15.535  0.00  0.00    +0.000 HD
ENDBRANCH  18  20
BRANCH  19  22
ATOM     22  O2* UNL     1       4.811   6.225  16.262  0.00  0.00    +0.000 OA
ATOM     23  H2* UNL     1       4.398   5.374  16.003  0.00  0.00    +0.000 HD
ENDBRANCH  19  22
BRANCH  17  24
ATOM     24  C5* UNL     1       7.832   6.132  19.724  0.00  0.00    +0.000 C 
BRANCH  24  25
ATOM     25  O5* UNL     1       8.220   5.160  20.691  0.00  0.00    +0.000 OA
ATOM     26  H5* UNL     1       7.479   5.097  21.326  0.00  0.00    +0.000 HD
ENDBRANCH  24  25
ENDBRANCH  17  24
ENDBRANCH   9  15
BRANCH   1  27
ATOM     27  C   UNL     1       1.167   7.797  21.300  0.00  0.00    +0.000 C 
BRANCH  27  28
ATOM     28  C   UNL     1       1.609   9.192  21.760  0.00  0.00    +0.000 C 
BRANCH  28  33
ATOM     29  C   UNL     1      -2.914  12.839  22.323  0.00  0.00    +0.000 C 
ATOM     30  C   UNL     1      -1.736  11.921  22.183  0.00  0.00    +0.000 A 
ATOM     31  C   UNL     1      -0.902  11.985  21.062  0.00  0.00    +0.000 A 
ATOM     32  C   UNL     1       0.183  11.109  20.930  0.00  0.00    +0.000 A 
ATOM     33  C   UNL     1       0.449  10.150  21.915  0.00  0.00    +0.000 A 
ATOM     34  C   UNL     1      -0.377  10.098  23.045  0.00  0.00    +0.000 A 
ATOM     35  C   UNL     1      -1.460  10.975  23.177  0.00  0.00    +0.000 A 
ENDBRANCH  28  33
ENDBRANCH  27  28
ENDBRANCH   1  27
TORSDOF 8
ENDMDL
MODEL 9
REMARK VINA RESULT:      -8.1      1.194      2.096
REMARK  Name = 
REMARK  9 active torsions:
REMARK  status: ('A' for Active; 'I' for Inactive)
REMARK    1  A    between atoms: C_1  and  C_2
REMARK    2  A    between atoms: C_5  and  C_6
REMARK    3  A    between atoms: C_6  and  C_7
REMARK    4  A    between atoms: C_7  and  N_8
REMARK    5  A    between atoms: N_16  and  C1*_17
REMARK    6  A    between atoms: C4*_19  and  C5*_20
REMARK    7  A    between atoms: C5*_20  and  O5*_21
REMARK    8  A    between atoms: C3*_22  and  O3*_23
REMARK    9  A    between atoms: C2*_24  and  O2*_25
REMARK                            x       y       z     vdW  Elec       q    Type
REMARK                         _______ _______ _______ _____ _____    ______ ____
ROOT
ATOM      1  N   UNL     1       7.563   7.410  18.385  0.00  0.00    +0.000 N 
ATOM      2  C   UNL     1       7.150   6.479  17.429  0.00  0.00    +0.000 A 
ATOM      3  N   UNL     1       7.784   6.453  16.239  0.00  0.00    +0.000 NA
ATOM      4  C   UNL     1       7.410   5.566  15.295  0.00  0.00    +0.000 A 
ATOM      5  N   UNL     1       8.069   5.590  14.071  0.00  0.00    +0.000 N 
ATOM      6  C   UNL     1       6.388   4.660  15.598  0.00  0.00    +0.000 A 
ATOM      7  N   UNL     1       5.827   3.624  14.886  0.00  0.00    +0.000 NA
ATOM      8  C   UNL     1       4.904   3.135  15.685  0.00  0.00    +0.000 A 
ATOM      9  N   UNL     1       4.836   3.820  16.873  0.00  0.00    +0.000 N 
ATOM     10  C   UNL     1       5.805   4.789  16.847  0.00  0.00    +0.000 A 
ATOM     11  N   UNL     1       6.133   5.678  17.801  0.00  0.00    +0.000 NA
ATOM     12  H   UNL     1       6.792   7.527  19.030  0.00  0.00    +0.000 HD
ATOM     13  H   UNL     1       8.982   6.019  14.147  0.00  0.00    +0.000 HD
ATOM     14  H   UNL     1       7.998   4.716  13.562  0.00  0.00    +0.000 HD
ENDROOT
BRANCH   9  15
ATOM     15  C1* UNL     1       3.875   3.544  17.919  0.00  0.00    +0.000 C 
ATOM     16  O4* UNL     1       2.812   4.520  17.860  0.00  0.00    +0.000 OA
ATOM     17  C4* UNL     1       2.453   4.885  19.216  0.00  0.00    +0.000 C 
ATOM     18  C3* UNL     1       3.188   3.916  20.139  0.00  0.00    +0.000 C 
ATOM     19  C2* UNL     1       4.429   3.544  19.341  0.00  0.00    +0.000 C 
BRANCH  18  20
ATOM     20  O3* UNL     1       2.432   2.708  20.361  0.00  0.00    +0.000 OA
ATOM     21  H3* UNL     1       1.487   2.933  20.458  0.00  0.00    +0.000 HD
ENDBRANCH  18  20
BRANCH  19  22
ATOM     22  O2* UNL     1       4.931   2.263  19.729  0.00  0.00    +0.000 OA
ATOM     23  H2* UNL     1       5.511   1.963  18.997  0.00  0.00    +0.000 HD
ENDBRANCH  19  22
BRANCH  17  24
ATOM     24  C5* UNL     1       2.836   6.346  19.462  0.00  0.00    +0.000 C 
BRANCH  24  25
ATOM     25  O5* UNL     1       3.328   6.931  18.259  0.00  0.00    +0.000 OA
ATOM     26  H5* UNL     1       3.928   7.652  18.534  0.00  0.00    +0.000 HD
ENDBRANCH  24  25
ENDBRANCH  17  24
ENDBRANCH   9  15
BRANCH   1  27
ATOM     27  C   UNL     1       8.108   8.644  17.822  0.00  0.00    +0.000 C 
BRANCH  27  28
ATOM     28  C   UNL     1       8.853   9.440  18.902  0.00  0.00    +0.000 C 
BRANCH  28  33
ATOM     29  C   UNL     1      11.068  14.419  16.810  0.00  0.00    +0.000 C 
ATOM     30  C   UNL     1      10.505  13.146  17.372  0.00  0.00    +0.000 A 
ATOM     31  C   UNL     1      11.345  12.138  17.854  0.00  0.00    +0.000 A 
ATOM     32  C   UNL     1      10.811  10.945  18.355  0.00  0.00    +0.000 A 
ATOM     33  C   UNL     1       9.427  10.737  18.378  0.00  0.00    +0.000 A 
ATOM     34  C   UNL     1       8.585  11.755  17.911  0.00  0.00    +0.000 A 
ATOM     35  C   UNL     1       9.119  12.948  17.411  0.00  0.00    +0.000 A 
ENDBRANCH  28  33
ENDBRANCH  27  28
ENDBRANCH   1  27
TORSDOF 8
ENDMDL
