MODEL 1
REMARK VINA RESULT:      -6.9      0.000      0.000
REMARK  Name = 
REMARK  6 active torsions:
REMARK  status: ('A' for Active; 'I' for Inactive)
REMARK    1  A    between atoms: C_1  and  S_2
REMARK    2  A    between atoms: S_2  and  C_3
REMARK    3  A    between atoms: C_8  and  N_9
REMARK    4  A    between atoms: C_10  and  C_12
REMARK    5  A    between atoms: C_12  and  N_13
REMARK    6  A    between atoms: C_20  and  C_21
REMARK                            x       y       z     vdW  Elec       q    Type
REMARK                         _______ _______ _______ _____ _____    ______ ____
ROOT
ATOM      1  N   UNL     1       3.678   4.035  17.037  0.00  0.00    +0.000 N 
ATOM      2  C   UNL     1       3.236   2.878  17.655  0.00  0.00    +0.000 C 
ATOM      3  O   UNL     1       3.868   1.827  17.762  0.00  0.00    +0.000 OA
ATOM      4  H   UNL     1       2.986   4.757  16.837  0.00  0.00    +0.000 HD
ENDROOT
BRANCH   1  10
ATOM      5  C   UNL     1       6.026   4.681  17.197  0.00  0.00    +0.000 A 
ATOM      6  C   UNL     1       7.253   4.961  16.575  0.00  0.00    +0.000 A 
ATOM      7  C   UNL     1       7.413   4.781  15.200  0.00  0.00    +0.000 A 
ATOM      8  C   UNL     1       6.353   4.305  14.436  0.00  0.00    +0.000 A 
ATOM      9  C   UNL     1       5.130   4.019  15.045  0.00  0.00    +0.000 A 
ATOM     10  C   UNL     1       4.938   4.231  16.416  0.00  0.00    +0.000 A 
BRANCH   5  12
ATOM     11  C   UNL     1       7.506   5.739  19.307  0.00  0.00    +0.000 C 
ATOM     12  S   UNL     1       5.847   5.107  18.935  0.00  0.00    +0.000 S 
ENDBRANCH   5  12
ENDBRANCH   1  10
BRANCH   2  13
ATOM     13  C   UNL     1       1.857   2.976  18.255  0.00  0.00    +0.000 C 
BRANCH  13  14
ATOM     14  N   UNL     1       1.754   4.063  19.210  0.00  0.00    +0.000 N 
ATOM     15  N   UNL     1       1.859   5.327  18.747  0.00  0.00    +0.000 NA
ATOM     16  C   UNL     1       1.842   6.074  19.865  0.00  0.00    +0.000 A 
ATOM     17  N   UNL     1       1.996   7.516  19.762  0.00  0.00    +0.000 N 
ATOM     18  O   UNL     1       2.041   8.139  20.835  0.00  0.00    +0.000 OA
ATOM     19  O   UNL     1       2.081   8.022  18.634  0.00  0.00    +0.000 OA
ATOM     20  C   UNL     1       1.674   5.290  21.027  0.00  0.00    +0.000 A 
ATOM     21  C   UNL     1       1.594   3.989  20.570  0.00  0.00    +0.000 A 
ATOM     22  C   UNL     1       1.392   2.718  21.313  0.00  0.00    +0.000 C 
ENDBRANCH  13  14
ENDBRANCH   2  13
TORSDOF 4
ENDMDL
MODEL 2
REMARK VINA RESULT:      -6.6      2.945      5.834
REMARK  Name = 
REMARK  6 active torsions:
REMARK  status: ('A' for Active; 'I' for Inactive)
REMARK    1  A    between atoms: C_1  and  S_2
REMARK    2  A    between atoms: S_2  and  C_3
REMARK    3  A    between atoms: C_8  and  N_9
REMARK    4  A    between atoms: C_10  and  C_12
REMARK    5  A    between atoms: C_12  and  N_13
REMARK    6  A    between atoms: C_20  and  C_21
REMARK                            x       y       z     vdW  Elec       q    Type
REMARK                         _______ _______ _______ _____ _____    ______ ____
ROOT
ATOM      1  N   UNL     1       2.775   6.148  20.125  0.00  0.00    +0.000 N 
ATOM      2  C   UNL     1       2.211   4.890  20.250  0.00  0.00    +0.000 C 
ATOM      3  O   UNL     1       1.009   4.642  20.354  0.00  0.00    +0.000 OA
ATOM      4  H   UNL     1       3.784   6.227  20.255  0.00  0.00    +0.000 HD
ENDROOT
BRANCH   1  10
ATOM      5  C   UNL     1       1.938   8.057  18.856  0.00  0.00    +0.000 A 
ATOM      6  C   UNL     1       1.329   9.322  18.825  0.00  0.00    +0.000 A 
ATOM      7  C   UNL     1       0.848   9.910  19.996  0.00  0.00    +0.000 A 
ATOM      8  C   UNL     1       0.956   9.233  21.206  0.00  0.00    +0.000 A 
ATOM      9  C   UNL     1       1.556   7.973  21.247  0.00  0.00    +0.000 A 
ATOM     10  C   UNL     1       2.081   7.385  20.090  0.00  0.00    +0.000 A 
BRANCH   5  12
ATOM     11  C   UNL     1       4.451   7.586  17.750  0.00  0.00    +0.000 C 
ATOM     12  S   UNL     1       2.690   7.448  17.340  0.00  0.00    +0.000 S 
ENDBRANCH   5  12
ENDBRANCH   1  10
BRANCH   2  13
ATOM     13  C   UNL     1       3.201   3.754  20.227  0.00  0.00    +0.000 C 
BRANCH  13  14
ATOM     14  N   UNL     1       4.080   3.821  19.075  0.00  0.00    +0.000 N 
ATOM     15  N   UNL     1       5.374   4.148  19.281  0.00  0.00    +0.000 NA
ATOM     16  C   UNL     1       5.878   4.238  18.038  0.00  0.00    +0.000 A 
ATOM     17  N   UNL     1       7.263   4.639  17.857  0.00  0.00    +0.000 N 
ATOM     18  O   UNL     1       7.647   4.769  16.684  0.00  0.00    +0.000 OA
ATOM     19  O   UNL     1       7.960   4.830  18.865  0.00  0.00    +0.000 OA
ATOM     20  C   UNL     1       4.921   3.917  17.051  0.00  0.00    +0.000 A 
ATOM     21  C   UNL     1       3.768   3.625  17.754  0.00  0.00    +0.000 A 
ATOM     22  C   UNL     1       2.430   3.195  17.272  0.00  0.00    +0.000 C 
ENDBRANCH  13  14
ENDBRANCH   2  13
TORSDOF 4
ENDMDL
MODEL 3
REMARK VINA RESULT:      -6.6      0.973      1.030
REMARK  Name = 
REMARK  6 active torsions:
REMARK  status: ('A' for Active; 'I' for Inactive)
REMARK    1  A    between atoms: C_1  and  S_2
REMARK    2  A    between atoms: S_2  and  C_3
REMARK    3  A    between atoms: C_8  and  N_9
REMARK    4  A    between atoms: C_10  and  C_12
REMARK    5  A    between atoms: C_12  and  N_13
REMARK    6  A    between atoms: C_20  and  C_21
REMARK                            x       y       z     vdW  Elec       q    Type
REMARK                         _______ _______ _______ _____ _____    ______ ____
ROOT
ATOM      1  N   UNL     1       4.814   3.543  17.456  0.00  0.00    +0.000 N 
ATOM      2  C   UNL     1       3.479   3.179  17.471  0.00  0.00    +0.000 C 
ATOM      3  O   UNL     1       2.730   3.126  16.494  0.00  0.00    +0.000 OA
ATOM      4  H   UNL     1       5.258   3.743  18.352  0.00  0.00    +0.000 HD
ENDROOT
BRANCH   1  10
ATOM      5  C   UNL     1       6.708   4.743  16.493  0.00  0.00    +0.000 A 
ATOM      6  C   UNL     1       7.415   5.193  15.367  0.00  0.00    +0.000 A 
ATOM      7  C   UNL     1       7.018   4.822  14.081  0.00  0.00    +0.000 A 
ATOM      8  C   UNL     1       5.921   3.985  13.910  0.00  0.00    +0.000 A 
ATOM      9  C   UNL     1       5.214   3.527  15.023  0.00  0.00    +0.000 A 
ATOM     10  C   UNL     1       5.573   3.921  16.318  0.00  0.00    +0.000 A 
BRANCH   5  12
ATOM     11  C   UNL     1       7.539   7.129  17.666  0.00  0.00    +0.000 C 
ATOM     12  S   UNL     1       7.173   5.407  18.099  0.00  0.00    +0.000 S 
ENDBRANCH   5  12
ENDBRANCH   1  10
BRANCH   2  13
ATOM     13  C   UNL     1       2.948   2.798  18.830  0.00  0.00    +0.000 C 
BRANCH  13  14
ATOM     14  N   UNL     1       2.430   3.943  19.552  0.00  0.00    +0.000 N 
ATOM     15  N   UNL     1       2.563   5.163  18.989  0.00  0.00    +0.000 NA
ATOM     16  C   UNL     1       2.102   6.000  19.935  0.00  0.00    +0.000 A 
ATOM     17  N   UNL     1       2.146   7.434  19.703  0.00  0.00    +0.000 N 
ATOM     18  O   UNL     1       1.769   8.152  20.643  0.00  0.00    +0.000 OA
ATOM     19  O   UNL     1       2.555   7.843  18.606  0.00  0.00    +0.000 OA
ATOM     20  C   UNL     1       1.630   5.309  21.072  0.00  0.00    +0.000 A 
ATOM     21  C   UNL     1       1.831   3.972  20.786  0.00  0.00    +0.000 A 
ATOM     22  C   UNL     1       1.514   2.758  21.582  0.00  0.00    +0.000 C 
ENDBRANCH  13  14
ENDBRANCH   2  13
TORSDOF 4
ENDMDL
MODEL 4
REMARK VINA RESULT:      -6.5      2.993      6.432
REMARK  Name = 
REMARK  6 active torsions:
REMARK  status: ('A' for Active; 'I' for Inactive)
REMARK    1  A    between atoms: C_1  and  S_2
REMARK    2  A    between atoms: S_2  and  C_3
REMARK    3  A    between atoms: C_8  and  N_9
REMARK    4  A    between atoms: C_10  and  C_12
REMARK    5  A    between atoms: C_12  and  N_13
REMARK    6  A    between atoms: C_20  and  C_21
REMARK                            x       y       z     vdW  Elec       q    Type
REMARK                         _______ _______ _______ _____ _____    ______ ____
ROOT
ATOM      1  N   UNL     1       4.006   5.508  18.164  0.00  0.00    +0.000 N 
ATOM      2  C   UNL     1       3.592   4.378  17.481  0.00  0.00    +0.000 C 
ATOM      3  O   UNL     1       2.444   4.141  17.101  0.00  0.00    +0.000 OA
ATOM      4  H   UNL     1       4.930   5.485  18.597  0.00  0.00    +0.000 HD
ENDROOT
BRANCH   1  10
ATOM      5  C   UNL     1       2.485   6.536  19.771  0.00  0.00    +0.000 A 
ATOM      6  C   UNL     1       1.613   7.578  20.122  0.00  0.00    +0.000 A 
ATOM      7  C   UNL     1       1.456   8.687  19.290  0.00  0.00    +0.000 A 
ATOM      8  C   UNL     1       2.182   8.773  18.107  0.00  0.00    +0.000 A 
ATOM      9  C   UNL     1       3.055   7.744  17.750  0.00  0.00    +0.000 A 
ATOM     10  C   UNL     1       3.195   6.605  18.552  0.00  0.00    +0.000 A 
BRANCH   5  12
ATOM     11  C   UNL     1       0.931   4.289  20.318  0.00  0.00    +0.000 C 
ATOM     12  S   UNL     1       2.496   5.064  20.805  0.00  0.00    +0.000 S 
ENDBRANCH   5  12
ENDBRANCH   1  10
BRANCH   2  13
ATOM     13  C   UNL     1       4.689   3.389  17.180  0.00  0.00    +0.000 C 
BRANCH  13  14
ATOM     14  N   UNL     1       5.552   3.845  16.107  0.00  0.00    +0.000 N 
ATOM     15  N   UNL     1       5.169   3.601  14.835  0.00  0.00    +0.000 NA
ATOM     16  C   UNL     1       6.212   4.029  14.104  0.00  0.00    +0.000 A 
ATOM     17  N   UNL     1       6.184   3.871  12.659  0.00  0.00    +0.000 N 
ATOM     18  O   UNL     1       7.206   4.224  12.050  0.00  0.00    +0.000 OA
ATOM     19  O   UNL     1       5.165   3.394  12.137  0.00  0.00    +0.000 OA
ATOM     20  C   UNL     1       7.229   4.592  14.905  0.00  0.00    +0.000 A 
ATOM     21  C   UNL     1       6.764   4.482  16.201  0.00  0.00    +0.000 A 
ATOM     22  C   UNL     1       7.374   4.917  17.484  0.00  0.00    +0.000 C 
ENDBRANCH  13  14
ENDBRANCH   2  13
TORSDOF 4
ENDMDL
MODEL 5
REMARK VINA RESULT:      -6.5      2.964      5.506
REMARK  Name = 
REMARK  6 active torsions:
REMARK  status: ('A' for Active; 'I' for Inactive)
REMARK    1  A    between atoms: C_1  and  S_2
REMARK    2  A    between atoms: S_2  and  C_3
REMARK    3  A    between atoms: C_8  and  N_9
REMARK    4  A    between atoms: C_10  and  C_12
REMARK    5  A    between atoms: C_12  and  N_13
REMARK    6  A    between atoms: C_20  and  C_21
REMARK                            x       y       z     vdW  Elec       q    Type
REMARK                         _______ _______ _______ _____ _____    ______ ____
ROOT
ATOM      1  N   UNL     1       2.406   6.719  19.944  0.00  0.00    +0.000 N 
ATOM      2  C   UNL     1       2.127   7.402  18.773  0.00  0.00    +0.000 C 
ATOM      3  O   UNL     1       1.814   6.895  17.695  0.00  0.00    +0.000 OA
ATOM      4  H   UNL     1       2.849   7.242  20.700  0.00  0.00    +0.000 HD
ENDROOT
BRANCH   1  10
ATOM      5  C   UNL     1       3.535   4.560  19.811  0.00  0.00    +0.000 A 
ATOM      6  C   UNL     1       3.493   3.160  19.906  0.00  0.00    +0.000 A 
ATOM      7  C   UNL     1       2.334   2.509  20.328  0.00  0.00    +0.000 A 
ATOM      8  C   UNL     1       1.209   3.251  20.674  0.00  0.00    +0.000 A 
ATOM      9  C   UNL     1       1.241   4.644  20.586  0.00  0.00    +0.000 A 
ATOM     10  C   UNL     1       2.382   5.313  20.127  0.00  0.00    +0.000 A 
BRANCH   5  12
ATOM     11  C   UNL     1       4.767   4.915  17.337  0.00  0.00    +0.000 C 
ATOM     12  S   UNL     1       5.002   5.311  19.091  0.00  0.00    +0.000 S 
ENDBRANCH   5  12
ENDBRANCH   1  10
BRANCH   2  13
ATOM     13  C   UNL     1       2.205   8.903  18.888  0.00  0.00    +0.000 C 
BRANCH  13  14
ATOM     14  N   UNL     1       1.133   9.442  19.704  0.00  0.00    +0.000 N 
ATOM     15  N   UNL     1       1.286   9.425  21.046  0.00  0.00    +0.000 NA
ATOM     16  C   UNL     1       0.103   9.871  21.503  0.00  0.00    +0.000 A 
ATOM     17  N   UNL     1      -0.130   9.935  22.936  0.00  0.00    +0.000 N 
ATOM     18  O   UNL     1      -1.265  10.290  23.291  0.00  0.00    +0.000 OA
ATOM     19  O   UNL     1       0.797   9.628  23.700  0.00  0.00    +0.000 OA
ATOM     20  C   UNL     1      -0.776  10.221  20.455  0.00  0.00    +0.000 A 
ATOM     21  C   UNL     1      -0.072   9.956  19.296  0.00  0.00    +0.000 A 
ATOM     22  C   UNL     1      -0.455  10.142  17.873  0.00  0.00    +0.000 C 
ENDBRANCH  13  14
ENDBRANCH   2  13
TORSDOF 4
ENDMDL
MODEL 6
REMARK VINA RESULT:      -6.4      3.250      6.297
REMARK  Name = 
REMARK  6 active torsions:
REMARK  status: ('A' for Active; 'I' for Inactive)
REMARK    1  A    between atoms: C_1  and  S_2
REMARK    2  A    between atoms: S_2  and  C_3
REMARK    3  A    between atoms: C_8  and  N_9
REMARK    4  A    between atoms: C_10  and  C_12
REMARK    5  A    between atoms: C_12  and  N_13
REMARK    6  A    between atoms: C_20  and  C_21
REMARK                            x       y       z     vdW  Elec       q    Type
REMARK                         _______ _______ _______ _____ _____    ______ ____
ROOT
ATOM      1  N   UNL     1       2.293   6.905  20.590  0.00  0.00    +0.000 N 
ATOM      2  C   UNL     1       1.972   5.564  20.471  0.00  0.00    +0.000 C 
ATOM      3  O   UNL     1       0.838   5.085  20.502  0.00  0.00    +0.000 OA
ATOM      4  H   UNL     1       3.272   7.142  20.755  0.00  0.00    +0.000 HD
ENDROOT
BRANCH   1  10
ATOM      5  C   UNL     1       1.163   8.875  19.700  0.00  0.00    +0.000 A 
ATOM      6  C   UNL     1       0.332   9.990  19.894  0.00  0.00    +0.000 A 
ATOM      7  C   UNL     1      -0.293  10.208  21.123  0.00  0.00    +0.000 A 
ATOM      8  C   UNL     1      -0.105   9.306  22.164  0.00  0.00    +0.000 A 
ATOM      9  C   UNL     1       0.717   8.192  21.981  0.00  0.00    +0.000 A 
ATOM     10  C   UNL     1       1.383   7.978  20.768  0.00  0.00    +0.000 A 
BRANCH   5  12
ATOM     11  C   UNL     1       2.285  10.517  17.748  0.00  0.00    +0.000 C 
ATOM     12  S   UNL     1       2.069   8.762  18.150  0.00  0.00    +0.000 S 
ENDBRANCH   5  12
ENDBRANCH   1  10
BRANCH   2  13
ATOM     13  C   UNL     1       3.154   4.652  20.261  0.00  0.00    +0.000 C 
BRANCH  13  14
ATOM     14  N   UNL     1       3.652   4.711  18.900  0.00  0.00    +0.000 N 
ATOM     15  N   UNL     1       4.539   5.681  18.589  0.00  0.00    +0.000 NA
ATOM     16  C   UNL     1       4.708   5.540  17.263  0.00  0.00    +0.000 A 
ATOM     17  N   UNL     1       5.569   6.470  16.551  0.00  0.00    +0.000 N 
ATOM     18  O   UNL     1       5.628   6.327  15.319  0.00  0.00    +0.000 OA
ATOM     19  O   UNL     1       6.172   7.335  17.203  0.00  0.00    +0.000 OA
ATOM     20  C   UNL     1       3.973   4.452  16.745  0.00  0.00    +0.000 A 
ATOM     21  C   UNL     1       3.315   3.915  17.835  0.00  0.00    +0.000 A 
ATOM     22  C   UNL     1       2.409   2.741  17.931  0.00  0.00    +0.000 C 
ENDBRANCH  13  14
ENDBRANCH   2  13
TORSDOF 4
ENDMDL
MODEL 7
REMARK VINA RESULT:      -6.3      2.686      5.853
REMARK  Name = 
REMARK  6 active torsions:
REMARK  status: ('A' for Active; 'I' for Inactive)
REMARK    1  A    between atoms: C_1  and  S_2
REMARK    2  A    between atoms: S_2  and  C_3
REMARK    3  A    between atoms: C_8  and  N_9
REMARK    4  A    between atoms: C_10  and  C_12
REMARK    5  A    between atoms: C_12  and  N_13
REMARK    6  A    between atoms: C_20  and  C_21
REMARK                            x       y       z     vdW  Elec       q    Type
REMARK                         _______ _______ _______ _____ _____    ______ ____
ROOT
ATOM      1  N   UNL     1       4.215   3.144  18.476  0.00  0.00    +0.000 N 
ATOM      2  C   UNL     1       4.031   3.273  17.111  0.00  0.00    +0.000 C 
ATOM      3  O   UNL     1       2.961   3.493  16.541  0.00  0.00    +0.000 OA
ATOM      4  H   UNL     1       5.104   2.760  18.798  0.00  0.00    +0.000 HD
ENDROOT
BRANCH   1  10
ATOM      5  C   UNL     1       2.847   4.519  19.957  0.00  0.00    +0.000 A 
ATOM      6  C   UNL     1       1.920   4.622  21.007  0.00  0.00    +0.000 A 
ATOM      7  C   UNL     1       1.346   3.479  21.564  0.00  0.00    +0.000 A 
ATOM      8  C   UNL     1       1.679   2.223  21.068  0.00  0.00    +0.000 A 
ATOM      9  C   UNL     1       2.596   2.110  20.021  0.00  0.00    +0.000 A 
ATOM     10  C   UNL     1       3.213   3.242  19.476  0.00  0.00    +0.000 A 
BRANCH   5  12
ATOM     11  C   UNL     1       2.459   6.677  18.238  0.00  0.00    +0.000 C 
ATOM     12  S   UNL     1       3.673   6.021  19.414  0.00  0.00    +0.000 S 
ENDBRANCH   5  12
ENDBRANCH   1  10
BRANCH   2  13
ATOM     13  C   UNL     1       5.291   3.147  16.293  0.00  0.00    +0.000 C 
BRANCH  13  14
ATOM     14  N   UNL     1       6.220   4.230  16.556  0.00  0.00    +0.000 N 
ATOM     15  N   UNL     1       6.565   4.474  17.838  0.00  0.00    +0.000 NA
ATOM     16  C   UNL     1       7.323   5.581  17.756  0.00  0.00    +0.000 A 
ATOM     17  N   UNL     1       7.837   6.187  18.973  0.00  0.00    +0.000 N 
ATOM     18  O   UNL     1       8.471   7.244  18.833  0.00  0.00    +0.000 OA
ATOM     19  O   UNL     1       7.609   5.625  20.055  0.00  0.00    +0.000 OA
ATOM     20  C   UNL     1       7.501   6.006  16.422  0.00  0.00    +0.000 A 
ATOM     21  C   UNL     1       6.794   5.096  15.660  0.00  0.00    +0.000 A 
ATOM     22  C   UNL     1       6.623   4.999  14.187  0.00  0.00    +0.000 C 
ENDBRANCH  13  14
ENDBRANCH   2  13
TORSDOF 4
ENDMDL
MODEL 8
REMARK VINA RESULT:      -6.2      3.509      6.281
REMARK  Name = 
REMARK  6 active torsions:
REMARK  status: ('A' for Active; 'I' for Inactive)
REMARK    1  A    between atoms: C_1  and  S_2
REMARK    2  A    between atoms: S_2  and  C_3
REMARK    3  A    between atoms: C_8  and  N_9
REMARK    4  A    between atoms: C_10  and  C_12
REMARK    5  A    between atoms: C_12  and  N_13
REMARK    6  A    between atoms: C_20  and  C_21
REMARK                            x       y       z     vdW  Elec       q    Type
REMARK                         _______ _______ _______ _____ _____    ______ ____
ROOT
ATOM      1  N   UNL     1       2.794   7.334  19.420  0.00  0.00    +0.000 N 
ATOM      2  C   UNL     1       2.594   5.967  19.354  0.00  0.00    +0.000 C 
ATOM      3  O   UNL     1       1.545   5.402  19.039  0.00  0.00    +0.000 OA
ATOM      4  H   UNL     1       3.638   7.665  19.890  0.00  0.00    +0.000 HD
ENDROOT
BRANCH   1  10
ATOM      5  C   UNL     1       1.171   8.976  20.210  0.00  0.00    +0.000 A 
ATOM      6  C   UNL     1       0.161   9.913  19.938  0.00  0.00    +0.000 A 
ATOM      7  C   UNL     1      -0.176  10.237  18.624  0.00  0.00    +0.000 A 
ATOM      8  C   UNL     1       0.504   9.640  17.568  0.00  0.00    +0.000 A 
ATOM      9  C   UNL     1       1.513   8.710  17.826  0.00  0.00    +0.000 A 
ATOM     10  C   UNL     1       1.837   8.343  19.138  0.00  0.00    +0.000 A 
BRANCH   5  12
ATOM     11  C   UNL     1       0.075   9.378  22.740  0.00  0.00    +0.000 C 
ATOM     12  S   UNL     1       1.423   8.482  21.921  0.00  0.00    +0.000 S 
ENDBRANCH   5  12
ENDBRANCH   1  10
BRANCH   2  13
ATOM     13  C   UNL     1       3.809   5.138  19.684  0.00  0.00    +0.000 C 
BRANCH  13  14
ATOM     14  N   UNL     1       4.592   4.826  18.503  0.00  0.00    +0.000 N 
ATOM     15  N   UNL     1       5.594   5.666  18.165  0.00  0.00    +0.000 NA
ATOM     16  C   UNL     1       6.035   5.177  16.993  0.00  0.00    +0.000 A 
ATOM     17  N   UNL     1       7.095   5.871  16.283  0.00  0.00    +0.000 N 
ATOM     18  O   UNL     1       7.408   5.407  15.176  0.00  0.00    +0.000 OA
ATOM     19  O   UNL     1       7.606   6.869  16.813  0.00  0.00    +0.000 OA
ATOM     20  C   UNL     1       5.350   4.001  16.617  0.00  0.00    +0.000 A 
ATOM     21  C   UNL     1       4.435   3.782  17.628  0.00  0.00    +0.000 A 
ATOM     22  C   UNL     1       3.445   2.688  17.811  0.00  0.00    +0.000 C 
ENDBRANCH  13  14
ENDBRANCH   2  13
TORSDOF 4
ENDMDL
MODEL 9
REMARK VINA RESULT:      -6.1      2.996      4.965
REMARK  Name = 
REMARK  6 active torsions:
REMARK  status: ('A' for Active; 'I' for Inactive)
REMARK    1  A    between atoms: C_1  and  S_2
REMARK    2  A    between atoms: S_2  and  C_3
REMARK    3  A    between atoms: C_8  and  N_9
REMARK    4  A    between atoms: C_10  and  C_12
REMARK    5  A    between atoms: C_12  and  N_13
REMARK    6  A    between atoms: C_20  and  C_21
REMARK                            x       y       z     vdW  Elec       q    Type
REMARK                         _______ _______ _______ _____ _____    ______ ____
ROOT
ATOM      1  N   UNL     1       2.336   6.526  18.048  0.00  0.00    +0.000 N 
ATOM      2  C   UNL     1       2.183   7.316  19.174  0.00  0.00    +0.000 C 
ATOM      3  O   UNL     1       2.183   6.922  20.341  0.00  0.00    +0.000 OA
ATOM      4  H   UNL     1       2.112   6.944  17.144  0.00  0.00    +0.000 HD
ENDROOT
BRANCH   1  10
ATOM      5  C   UNL     1       3.826   4.603  17.854  0.00  0.00    +0.000 A 
ATOM      6  C   UNL     1       4.010   3.216  17.740  0.00  0.00    +0.000 A 
ATOM      7  C   UNL     1       2.922   2.345  17.812  0.00  0.00    +0.000 A 
ATOM      8  C   UNL     1       1.643   2.850  18.013  0.00  0.00    +0.000 A 
ATOM      9  C   UNL     1       1.449   4.227  18.132  0.00  0.00    +0.000 A 
ATOM     10  C   UNL     1       2.523   5.120  18.022  0.00  0.00    +0.000 A 
BRANCH   5  12
ATOM     11  C   UNL     1       6.181   5.407  19.108  0.00  0.00    +0.000 C 
ATOM     12  S   UNL     1       5.250   5.666  17.574  0.00  0.00    +0.000 S 
ENDBRANCH   5  12
ENDBRANCH   1  10
BRANCH   2  13
ATOM     13  C   UNL     1       2.032   8.788  18.891  0.00  0.00    +0.000 C 
BRANCH  13  14
ATOM     14  N   UNL     1       0.991   9.394  19.699  0.00  0.00    +0.000 N 
ATOM     15  N   UNL     1       1.161   9.420  21.039  0.00  0.00    +0.000 NA
ATOM     16  C   UNL     1       0.001   9.923  21.494  0.00  0.00    +0.000 A 
ATOM     17  N   UNL     1      -0.210  10.047  22.927  0.00  0.00    +0.000 N 
ATOM     18  O   UNL     1      -1.327  10.454  23.283  0.00  0.00    +0.000 OA
ATOM     19  O   UNL     1       0.716   9.735  23.690  0.00  0.00    +0.000 OA
ATOM     20  C   UNL     1      -0.880  10.265  20.445  0.00  0.00    +0.000 A 
ATOM     21  C   UNL     1      -0.201   9.934  19.288  0.00  0.00    +0.000 A 
ATOM     22  C   UNL     1      -0.598  10.081  17.864  0.00  0.00    +0.000 C 
ENDBRANCH  13  14
ENDBRANCH   2  13
TORSDOF 4
ENDMDL
