MODEL 1
REMARK VINA RESULT:      -6.6      0.000      0.000
REMARK  Name = 
REMARK  18 active torsions:
REMARK  status: ('A' for Active; 'I' for Inactive)
REMARK    1  A    between atoms: C_1  and  C_2
REMARK    2  A    between atoms: C_2  and  C_3
REMARK    3  A    between atoms: C_3  and  C_4
REMARK    4  A    between atoms: C_4  and  C_5
REMARK    5  A    between atoms: C_5  and  C_6
REMARK    6  A    between atoms: C_6  and  C_7
REMARK    7  A    between atoms: C_7  and  C_8
REMARK    8  A    between atoms: C_8  and  C_9
REMARK    9  A    between atoms: C_10  and  C_11
REMARK   10  A    between atoms: C_11  and  C_12
REMARK   11  A    between atoms: C_12  and  C_13
REMARK   12  A    between atoms: C_13  and  C_14
REMARK   13  A    between atoms: C_14  and  C_15
REMARK   14  A    between atoms: C_15  and  C_16
REMARK   15  A    between atoms: C_16  and  C_17
REMARK   16  A    between atoms: C_17  and  C_18
REMARK   17  A    between atoms: N_20  and  N_21
REMARK   18  A    between atoms: C_22  and  C_24
REMARK                            x       y       z     vdW  Elec       q    Type
REMARK                         _______ _______ _______ _____ _____    ______ ____
ROOT
ATOM      1  C   UNL     1       8.123   5.042  17.962  0.00  0.00    +0.000 C 
ENDROOT
BRANCH   1   2
ATOM      2  C   UNL     1       7.609   6.237  18.756  0.00  0.00    +0.000 C 
BRANCH   2   3
ATOM      3  C   UNL     1       8.000   7.537  18.086  0.00  0.00    +0.000 C 
ATOM      4  O   UNL     1       7.781   7.815  16.909  0.00  0.00    +0.000 OA
ATOM      5  N   UNL     1       8.645   8.421  18.917  0.00  0.00    +0.000 N 
ATOM      6  H   UNL     1       8.793   8.290  19.913  0.00  0.00    +0.000 HD
BRANCH   5   7
ATOM      7  N   UNL     1       8.976   9.673  18.403  0.00  0.00    +0.000 N 
ATOM      8  C   UNL     1       9.330  10.675  19.284  0.00  0.00    +0.000 C 
ATOM      9  O   UNL     1       9.336  10.493  20.499  0.00  0.00    +0.000 OA
ATOM     10  H   UNL     1       9.098   9.712  17.389  0.00  0.00    +0.000 HD
BRANCH   8  11
ATOM     11  C   UNL     1       9.733  11.968  18.681  0.00  0.00    +0.000 A 
ATOM     12  C   UNL     1      10.673  12.045  17.649  0.00  0.00    +0.000 A 
ATOM     13  C   UNL     1      10.983  13.302  17.151  0.00  0.00    +0.000 A 
ATOM     14  N   UNL     1      10.433  14.446  17.605  0.00  0.00    +0.000 NA
ATOM     15  C   UNL     1       9.521  14.341  18.594  0.00  0.00    +0.000 A 
ATOM     16  C   UNL     1       9.136  13.137  19.155  0.00  0.00    +0.000 A 
ENDBRANCH   8  11
ENDBRANCH   5   7
ENDBRANCH   2   3
ENDBRANCH   1   2
BRANCH   1  17
ATOM     17  C   UNL     1       7.001   4.308  17.232  0.00  0.00    +0.000 C 
BRANCH  17  18
ATOM     18  C   UNL     1       6.855   4.883  15.829  0.00  0.00    +0.000 C 
BRANCH  18  19
ATOM     19  C   UNL     1       5.413   5.262  15.499  0.00  0.00    +0.000 C 
BRANCH  19  20
ATOM     20  C   UNL     1       4.918   6.421  16.369  0.00  0.00    +0.000 C 
BRANCH  20  21
ATOM     21  C   UNL     1       3.767   6.057  17.311  0.00  0.00    +0.000 C 
BRANCH  21  23
ATOM     22  C   UNL     1       3.837   3.799  18.430  0.00  0.00    +0.000 C 
ATOM     23  C   UNL     1       4.189   5.091  18.388  0.00  0.00    +0.000 C 
BRANCH  22  24
ATOM     24  C   UNL     1       2.991   3.167  17.373  0.00  0.00    +0.000 C 
BRANCH  24  25
ATOM     25  C   UNL     1       1.660   2.669  17.906  0.00  0.00    +0.000 C 
BRANCH  25  26
ATOM     26  C   UNL     1       1.882   2.009  19.262  0.00  0.00    +0.000 C 
BRANCH  26  27
ATOM     27  C   UNL     1       1.017   2.668  20.321  0.00  0.00    +0.000 C 
BRANCH  27  28
ATOM     28  C   UNL     1       1.848   3.029  21.546  0.00  0.00    +0.000 C 
BRANCH  28  29
ATOM     29  C   UNL     1       2.286   4.486  21.473  0.00  0.00    +0.000 C 
BRANCH  29  31
ATOM     30  C   UNL     1       1.765   6.759  20.560  0.00  0.00    +0.000 C 
ATOM     31  C   UNL     1       1.298   5.318  20.664  0.00  0.00    +0.000 C 
ENDBRANCH  29  31
ENDBRANCH  28  29
ENDBRANCH  27  28
ENDBRANCH  26  27
ENDBRANCH  25  26
ENDBRANCH  24  25
ENDBRANCH  22  24
ENDBRANCH  21  23
ENDBRANCH  20  21
ENDBRANCH  19  20
ENDBRANCH  18  19
ENDBRANCH  17  18
ENDBRANCH   1  17
TORSDOF 17
ENDMDL
MODEL 2
REMARK VINA RESULT:      -6.1      6.697      9.668
REMARK  Name = 
REMARK  18 active torsions:
REMARK  status: ('A' for Active; 'I' for Inactive)
REMARK    1  A    between atoms: C_1  and  C_2
REMARK    2  A    between atoms: C_2  and  C_3
REMARK    3  A    between atoms: C_3  and  C_4
REMARK    4  A    between atoms: C_4  and  C_5
REMARK    5  A    between atoms: C_5  and  C_6
REMARK    6  A    between atoms: C_6  and  C_7
REMARK    7  A    between atoms: C_7  and  C_8
REMARK    8  A    between atoms: C_8  and  C_9
REMARK    9  A    between atoms: C_10  and  C_11
REMARK   10  A    between atoms: C_11  and  C_12
REMARK   11  A    between atoms: C_12  and  C_13
REMARK   12  A    between atoms: C_13  and  C_14
REMARK   13  A    between atoms: C_14  and  C_15
REMARK   14  A    between atoms: C_15  and  C_16
REMARK   15  A    between atoms: C_16  and  C_17
REMARK   16  A    between atoms: C_17  and  C_18
REMARK   17  A    between atoms: N_20  and  N_21
REMARK   18  A    between atoms: C_22  and  C_24
REMARK                            x       y       z     vdW  Elec       q    Type
REMARK                         _______ _______ _______ _____ _____    ______ ____
ROOT
ATOM      1  C   UNL     1       1.162   9.393  18.739  0.00  0.00    +0.000 C 
ENDROOT
BRANCH   1   2
ATOM      2  C   UNL     1       1.387  10.884  18.520  0.00  0.00    +0.000 C 
BRANCH   2   3
ATOM      3  C   UNL     1       0.095  11.654  18.697  0.00  0.00    +0.000 C 
ATOM      4  O   UNL     1      -0.015  12.875  18.596  0.00  0.00    +0.000 OA
ATOM      5  N   UNL     1      -0.991  10.865  18.991  0.00  0.00    +0.000 N 
ATOM      6  H   UNL     1      -0.989   9.850  19.016  0.00  0.00    +0.000 HD
BRANCH   5   7
ATOM      7  N   UNL     1      -2.234  11.483  19.096  0.00  0.00    +0.000 N 
ATOM      8  C   UNL     1      -3.193  11.204  18.143  0.00  0.00    +0.000 C 
ATOM      9  O   UNL     1      -2.963  10.449  17.200  0.00  0.00    +0.000 OA
ATOM     10  H   UNL     1      -2.407  11.972  19.977  0.00  0.00    +0.000 HD
BRANCH   8  11
ATOM     11  C   UNL     1      -4.518  11.838  18.337  0.00  0.00    +0.000 A 
ATOM     12  C   UNL     1      -4.880  12.445  19.544  0.00  0.00    +0.000 A 
ATOM     13  C   UNL     1      -6.143  13.012  19.627  0.00  0.00    +0.000 A 
ATOM     14  N   UNL     1      -7.036  13.009  18.617  0.00  0.00    +0.000 NA
ATOM     15  C   UNL     1      -6.656  12.426  17.461  0.00  0.00    +0.000 A 
ATOM     16  C   UNL     1      -5.417  11.840  17.271  0.00  0.00    +0.000 A 
ENDBRANCH   8  11
ENDBRANCH   5   7
ENDBRANCH   2   3
ENDBRANCH   1   2
BRANCH   1  17
ATOM     17  C   UNL     1       1.962   8.539  17.758  0.00  0.00    +0.000 C 
BRANCH  17  18
ATOM     18  C   UNL     1       2.458   7.287  18.471  0.00  0.00    +0.000 C 
BRANCH  18  19
ATOM     19  C   UNL     1       1.995   7.219  19.925  0.00  0.00    +0.000 C 
BRANCH  19  20
ATOM     20  C   UNL     1       2.286   5.852  20.549  0.00  0.00    +0.000 C 
BRANCH  20  21
ATOM     21  C   UNL     1       1.250   4.773  20.220  0.00  0.00    +0.000 C 
BRANCH  21  23
ATOM     22  C   UNL     1       1.707   2.321  20.581  0.00  0.00    +0.000 C 
ATOM     23  C   UNL     1       1.419   3.537  21.064  0.00  0.00    +0.000 C 
BRANCH  22  24
ATOM     24  C   UNL     1       1.921   2.071  19.123  0.00  0.00    +0.000 C 
BRANCH  24  25
ATOM     25  C   UNL     1       3.391   2.000  18.749  0.00  0.00    +0.000 C 
BRANCH  25  26
ATOM     26  C   UNL     1       3.622   2.817  17.483  0.00  0.00    +0.000 C 
BRANCH  26  27
ATOM     27  C   UNL     1       4.185   4.184  17.827  0.00  0.00    +0.000 C 
BRANCH  27  28
ATOM     28  C   UNL     1       5.069   4.105  19.066  0.00  0.00    +0.000 C 
BRANCH  28  29
ATOM     29  C   UNL     1       6.138   5.189  19.019  0.00  0.00    +0.000 C 
BRANCH  29  31
ATOM     30  C   UNL     1       7.203   6.757  17.383  0.00  0.00    +0.000 C 
ATOM     31  C   UNL     1       5.897   6.149  17.860  0.00  0.00    +0.000 C 
ENDBRANCH  29  31
ENDBRANCH  28  29
ENDBRANCH  27  28
ENDBRANCH  26  27
ENDBRANCH  25  26
ENDBRANCH  24  25
ENDBRANCH  22  24
ENDBRANCH  21  23
ENDBRANCH  20  21
ENDBRANCH  19  20
ENDBRANCH  18  19
ENDBRANCH  17  18
ENDBRANCH   1  17
TORSDOF 17
ENDMDL
MODEL 3
REMARK VINA RESULT:      -6.0      1.945      3.471
REMARK  Name = 
REMARK  18 active torsions:
REMARK  status: ('A' for Active; 'I' for Inactive)
REMARK    1  A    between atoms: C_1  and  C_2
REMARK    2  A    between atoms: C_2  and  C_3
REMARK    3  A    between atoms: C_3  and  C_4
REMARK    4  A    between atoms: C_4  and  C_5
REMARK    5  A    between atoms: C_5  and  C_6
REMARK    6  A    between atoms: C_6  and  C_7
REMARK    7  A    between atoms: C_7  and  C_8
REMARK    8  A    between atoms: C_8  and  C_9
REMARK    9  A    between atoms: C_10  and  C_11
REMARK   10  A    between atoms: C_11  and  C_12
REMARK   11  A    between atoms: C_12  and  C_13
REMARK   12  A    between atoms: C_13  and  C_14
REMARK   13  A    between atoms: C_14  and  C_15
REMARK   14  A    between atoms: C_15  and  C_16
REMARK   15  A    between atoms: C_16  and  C_17
REMARK   16  A    between atoms: C_17  and  C_18
REMARK   17  A    between atoms: N_20  and  N_21
REMARK   18  A    between atoms: C_22  and  C_24
REMARK                            x       y       z     vdW  Elec       q    Type
REMARK                         _______ _______ _______ _____ _____    ______ ____
ROOT
ATOM      1  C   UNL     1       5.396   6.747  16.649  0.00  0.00    +0.000 C 
ENDROOT
BRANCH   1   2
ATOM      2  C   UNL     1       6.783   6.131  16.786  0.00  0.00    +0.000 C 
BRANCH   2   3
ATOM      3  C   UNL     1       7.611   6.889  17.801  0.00  0.00    +0.000 C 
ATOM      4  O   UNL     1       8.021   6.423  18.863  0.00  0.00    +0.000 OA
ATOM      5  N   UNL     1       7.884   8.187  17.442  0.00  0.00    +0.000 N 
ATOM      6  H   UNL     1       7.643   8.613  16.553  0.00  0.00    +0.000 HD
BRANCH   5   7
ATOM      7  N   UNL     1       8.704   8.935  18.283  0.00  0.00    +0.000 N 
ATOM      8  C   UNL     1       8.685  10.311  18.171  0.00  0.00    +0.000 C 
ATOM      9  O   UNL     1       7.984  10.879  17.336  0.00  0.00    +0.000 OA
ATOM     10  H   UNL     1       9.139   8.414  19.048  0.00  0.00    +0.000 HD
BRANCH   8  11
ATOM     11  C   UNL     1       9.528  11.061  19.132  0.00  0.00    +0.000 A 
ATOM     12  C   UNL     1      10.747  11.636  18.759  0.00  0.00    +0.000 A 
ATOM     13  C   UNL     1      11.462  12.319  19.731  0.00  0.00    +0.000 A 
ATOM     14  N   UNL     1      11.051  12.456  21.008  0.00  0.00    +0.000 NA
ATOM     15  C   UNL     1       9.867  11.901  21.338  0.00  0.00    +0.000 A 
ATOM     16  C   UNL     1       9.072  11.207  20.443  0.00  0.00    +0.000 A 
ENDBRANCH   8  11
ENDBRANCH   5   7
ENDBRANCH   2   3
ENDBRANCH   1   2
BRANCH   1  17
ATOM     17  C   UNL     1       4.458   6.314  17.774  0.00  0.00    +0.000 C 
BRANCH  17  18
ATOM     18  C   UNL     1       3.721   5.048  17.354  0.00  0.00    +0.000 C 
BRANCH  18  19
ATOM     19  C   UNL     1       4.563   3.789  17.544  0.00  0.00    +0.000 C 
BRANCH  19  20
ATOM     20  C   UNL     1       3.701   2.524  17.540  0.00  0.00    +0.000 C 
BRANCH  20  21
ATOM     21  C   UNL     1       3.044   2.203  18.885  0.00  0.00    +0.000 C 
BRANCH  21  23
ATOM     22  C   UNL     1       0.706   2.810  19.605  0.00  0.00    +0.000 C 
ATOM     23  C   UNL     1       1.541   2.149  18.793  0.00  0.00    +0.000 C 
BRANCH  22  24
ATOM     24  C   UNL     1       1.196   3.708  20.694  0.00  0.00    +0.000 C 
BRANCH  24  25
ATOM     25  C   UNL     1       0.868   5.169  20.443  0.00  0.00    +0.000 C 
BRANCH  25  26
ATOM     26  C   UNL     1       2.138   5.998  20.600  0.00  0.00    +0.000 C 
BRANCH  26  27
ATOM     27  C   UNL     1       1.872   7.450  20.248  0.00  0.00    +0.000 C 
BRANCH  27  28
ATOM     28  C   UNL     1       0.820   8.045  21.177  0.00  0.00    +0.000 C 
BRANCH  28  29
ATOM     29  C   UNL     1       0.492   9.471  20.754  0.00  0.00    +0.000 C 
BRANCH  29  31
ATOM     30  C   UNL     1      -0.079   9.462  23.193  0.00  0.00    +0.000 C 
ATOM     31  C   UNL     1       0.097  10.323  21.954  0.00  0.00    +0.000 C 
ENDBRANCH  29  31
ENDBRANCH  28  29
ENDBRANCH  27  28
ENDBRANCH  26  27
ENDBRANCH  25  26
ENDBRANCH  24  25
ENDBRANCH  22  24
ENDBRANCH  21  23
ENDBRANCH  20  21
ENDBRANCH  19  20
ENDBRANCH  18  19
ENDBRANCH  17  18
ENDBRANCH   1  17
TORSDOF 17
ENDMDL
MODEL 4
REMARK VINA RESULT:      -6.0      6.388      8.848
REMARK  Name = 
REMARK  18 active torsions:
REMARK  status: ('A' for Active; 'I' for Inactive)
REMARK    1  A    between atoms: C_1  and  C_2
REMARK    2  A    between atoms: C_2  and  C_3
REMARK    3  A    between atoms: C_3  and  C_4
REMARK    4  A    between atoms: C_4  and  C_5
REMARK    5  A    between atoms: C_5  and  C_6
REMARK    6  A    between atoms: C_6  and  C_7
REMARK    7  A    between atoms: C_7  and  C_8
REMARK    8  A    between atoms: C_8  and  C_9
REMARK    9  A    between atoms: C_10  and  C_11
REMARK   10  A    between atoms: C_11  and  C_12
REMARK   11  A    between atoms: C_12  and  C_13
REMARK   12  A    between atoms: C_13  and  C_14
REMARK   13  A    between atoms: C_14  and  C_15
REMARK   14  A    between atoms: C_15  and  C_16
REMARK   15  A    between atoms: C_16  and  C_17
REMARK   16  A    between atoms: C_17  and  C_18
REMARK   17  A    between atoms: N_20  and  N_21
REMARK   18  A    between atoms: C_22  and  C_24
REMARK                            x       y       z     vdW  Elec       q    Type
REMARK                         _______ _______ _______ _____ _____    ______ ____
ROOT
ATOM      1  C   UNL     1       1.587  10.088  18.161  0.00  0.00    +0.000 C 
ENDROOT
BRANCH   1   2
ATOM      2  C   UNL     1       0.093  10.137  18.457  0.00  0.00    +0.000 C 
BRANCH   2   3
ATOM      3  C   UNL     1      -0.243  11.328  19.329  0.00  0.00    +0.000 C 
ATOM      4  O   UNL     1       0.225  12.457  19.189  0.00  0.00    +0.000 OA
ATOM      5  N   UNL     1      -1.143  11.052  20.330  0.00  0.00    +0.000 N 
ATOM      6  H   UNL     1      -1.624  10.166  20.458  0.00  0.00    +0.000 HD
BRANCH   5   7
ATOM      7  N   UNL     1      -1.567  12.107  21.134  0.00  0.00    +0.000 N 
ATOM      8  C   UNL     1      -1.532  11.948  22.505  0.00  0.00    +0.000 C 
ATOM      9  O   UNL     1      -1.162  10.896  23.022  0.00  0.00    +0.000 OA
ATOM     10  H   UNL     1      -1.714  12.995  20.649  0.00  0.00    +0.000 HD
BRANCH   8  11
ATOM     11  C   UNL     1      -1.933  13.123  23.313  0.00  0.00    +0.000 A 
ATOM     12  C   UNL     1      -1.060  14.186  23.562  0.00  0.00    +0.000 A 
ATOM     13  C   UNL     1      -1.530  15.241  24.330  0.00  0.00    +0.000 A 
ATOM     14  N   UNL     1      -2.773  15.297  24.848  0.00  0.00    +0.000 NA
ATOM     15  C   UNL     1      -3.599  14.263  24.583  0.00  0.00    +0.000 A 
ATOM     16  C   UNL     1      -3.232  13.167  23.822  0.00  0.00    +0.000 A 
ENDBRANCH   8  11
ENDBRANCH   5   7
ENDBRANCH   2   3
ENDBRANCH   1   2
BRANCH   1  17
ATOM     17  C   UNL     1       2.067   8.672  17.850  0.00  0.00    +0.000 C 
BRANCH  17  18
ATOM     18  C   UNL     1       2.139   7.871  19.144  0.00  0.00    +0.000 C 
BRANCH  18  19
ATOM     19  C   UNL     1       2.267   6.369  18.897  0.00  0.00    +0.000 C 
BRANCH  19  20
ATOM     20  C   UNL     1       3.078   5.680  19.998  0.00  0.00    +0.000 C 
BRANCH  20  21
ATOM     21  C   UNL     1       2.255   4.770  20.914  0.00  0.00    +0.000 C 
BRANCH  21  23
ATOM     22  C   UNL     1       0.975   3.129  19.491  0.00  0.00    +0.000 C 
ATOM     23  C   UNL     1       1.017   4.242  20.237  0.00  0.00    +0.000 C 
BRANCH  22  24
ATOM     24  C   UNL     1       2.177   2.268  19.273  0.00  0.00    +0.000 C 
BRANCH  24  25
ATOM     25  C   UNL     1       2.465   2.024  17.803  0.00  0.00    +0.000 C 
BRANCH  25  26
ATOM     26  C   UNL     1       3.287   3.185  17.257  0.00  0.00    +0.000 C 
BRANCH  26  27
ATOM     27  C   UNL     1       4.557   3.365  18.069  0.00  0.00    +0.000 C 
BRANCH  27  28
ATOM     28  C   UNL     1       5.494   4.356  17.390  0.00  0.00    +0.000 C 
BRANCH  28  29
ATOM     29  C   UNL     1       4.706   5.275  16.465  0.00  0.00    +0.000 C 
BRANCH  29  31
ATOM     30  C   UNL     1       6.489   6.790  17.359  0.00  0.00    +0.000 C 
ATOM     31  C   UNL     1       5.187   6.717  16.581  0.00  0.00    +0.000 C 
ENDBRANCH  29  31
ENDBRANCH  28  29
ENDBRANCH  27  28
ENDBRANCH  26  27
ENDBRANCH  25  26
ENDBRANCH  24  25
ENDBRANCH  22  24
ENDBRANCH  21  23
ENDBRANCH  20  21
ENDBRANCH  19  20
ENDBRANCH  18  19
ENDBRANCH  17  18
ENDBRANCH   1  17
TORSDOF 17
ENDMDL
MODEL 5
REMARK VINA RESULT:      -5.9      6.132      8.640
REMARK  Name = 
REMARK  18 active torsions:
REMARK  status: ('A' for Active; 'I' for Inactive)
REMARK    1  A    between atoms: C_1  and  C_2
REMARK    2  A    between atoms: C_2  and  C_3
REMARK    3  A    between atoms: C_3  and  C_4
REMARK    4  A    between atoms: C_4  and  C_5
REMARK    5  A    between atoms: C_5  and  C_6
REMARK    6  A    between atoms: C_6  and  C_7
REMARK    7  A    between atoms: C_7  and  C_8
REMARK    8  A    between atoms: C_8  and  C_9
REMARK    9  A    between atoms: C_10  and  C_11
REMARK   10  A    between atoms: C_11  and  C_12
REMARK   11  A    between atoms: C_12  and  C_13
REMARK   12  A    between atoms: C_13  and  C_14
REMARK   13  A    between atoms: C_14  and  C_15
REMARK   14  A    between atoms: C_15  and  C_16
REMARK   15  A    between atoms: C_16  and  C_17
REMARK   16  A    between atoms: C_17  and  C_18
REMARK   17  A    between atoms: N_20  and  N_21
REMARK   18  A    between atoms: C_22  and  C_24
REMARK                            x       y       z     vdW  Elec       q    Type
REMARK                         _______ _______ _______ _____ _____    ______ ____
ROOT
ATOM      1  C   UNL     1       1.667   8.858  18.216  0.00  0.00    +0.000 C 
ENDROOT
BRANCH   1   2
ATOM      2  C   UNL     1       1.478  10.308  18.645  0.00  0.00    +0.000 C 
BRANCH   2   3
ATOM      3  C   UNL     1       0.055  10.554  19.099  0.00  0.00    +0.000 C 
ATOM      4  O   UNL     1      -0.941  10.027  18.608  0.00  0.00    +0.000 OA
ATOM      5  N   UNL     1      -0.053  11.443  20.141  0.00  0.00    +0.000 N 
ATOM      6  H   UNL     1       0.727  11.858  20.642  0.00  0.00    +0.000 HD
BRANCH   5   7
ATOM      7  N   UNL     1      -1.320  11.672  20.672  0.00  0.00    +0.000 N 
ATOM      8  C   UNL     1      -1.424  12.025  22.003  0.00  0.00    +0.000 C 
ATOM      9  O   UNL     1      -0.433  12.116  22.724  0.00  0.00    +0.000 OA
ATOM     10  H   UNL     1      -2.078  11.729  19.988  0.00  0.00    +0.000 HD
BRANCH   8  11
ATOM     11  C   UNL     1      -2.789  12.318  22.500  0.00  0.00    +0.000 A 
ATOM     12  C   UNL     1      -3.107  12.279  23.861  0.00  0.00    +0.000 A 
ATOM     13  C   UNL     1      -4.413  12.570  24.227  0.00  0.00    +0.000 A 
ATOM     14  N   UNL     1      -5.386  12.884  23.348  0.00  0.00    +0.000 NA
ATOM     15  C   UNL     1      -5.049  12.925  22.043  0.00  0.00    +0.000 A 
ATOM     16  C   UNL     1      -3.774  12.660  21.574  0.00  0.00    +0.000 A 
ENDBRANCH   8  11
ENDBRANCH   5   7
ENDBRANCH   2   3
ENDBRANCH   1   2
BRANCH   1  17
ATOM     17  C   UNL     1       3.075   8.590  17.690  0.00  0.00    +0.000 C 
BRANCH  17  18
ATOM     18  C   UNL     1       3.255   7.092  17.477  0.00  0.00    +0.000 C 
BRANCH  18  19
ATOM     19  C   UNL     1       4.482   6.763  16.631  0.00  0.00    +0.000 C 
BRANCH  19  20
ATOM     20  C   UNL     1       5.781   6.942  17.422  0.00  0.00    +0.000 C 
BRANCH  20  21
ATOM     21  C   UNL     1       6.446   5.631  17.850  0.00  0.00    +0.000 C 
BRANCH  21  23
ATOM     22  C   UNL     1       4.971   4.068  19.167  0.00  0.00    +0.000 C 
ATOM     23  C   UNL     1       5.854   5.074  19.119  0.00  0.00    +0.000 C 
BRANCH  22  24
ATOM     24  C   UNL     1       4.494   3.364  17.938  0.00  0.00    +0.000 C 
BRANCH  24  25
ATOM     25  C   UNL     1       3.010   3.564  17.686  0.00  0.00    +0.000 C 
BRANCH  25  26
ATOM     26  C   UNL     1       2.333   2.201  17.594  0.00  0.00    +0.000 C 
BRANCH  26  27
ATOM     27  C   UNL     1       1.405   1.988  18.777  0.00  0.00    +0.000 C 
BRANCH  27  28
ATOM     28  C   UNL     1       1.143   3.303  19.499  0.00  0.00    +0.000 C 
BRANCH  28  29
ATOM     29  C   UNL     1       1.603   3.208  20.947  0.00  0.00    +0.000 C 
BRANCH  29  31
ATOM     30  C   UNL     1       1.863   5.650  20.454  0.00  0.00    +0.000 C 
ATOM     31  C   UNL     1       2.190   4.530  21.426  0.00  0.00    +0.000 C 
ENDBRANCH  29  31
ENDBRANCH  28  29
ENDBRANCH  27  28
ENDBRANCH  26  27
ENDBRANCH  25  26
ENDBRANCH  24  25
ENDBRANCH  22  24
ENDBRANCH  21  23
ENDBRANCH  20  21
ENDBRANCH  19  20
ENDBRANCH  18  19
ENDBRANCH  17  18
ENDBRANCH   1  17
TORSDOF 17
ENDMDL
MODEL 6
REMARK VINA RESULT:      -5.9      6.461      9.545
REMARK  Name = 
REMARK  18 active torsions:
REMARK  status: ('A' for Active; 'I' for Inactive)
REMARK    1  A    between atoms: C_1  and  C_2
REMARK    2  A    between atoms: C_2  and  C_3
REMARK    3  A    between atoms: C_3  and  C_4
REMARK    4  A    between atoms: C_4  and  C_5
REMARK    5  A    between atoms: C_5  and  C_6
REMARK    6  A    between atoms: C_6  and  C_7
REMARK    7  A    between atoms: C_7  and  C_8
REMARK    8  A    between atoms: C_8  and  C_9
REMARK    9  A    between atoms: C_10  and  C_11
REMARK   10  A    between atoms: C_11  and  C_12
REMARK   11  A    between atoms: C_12  and  C_13
REMARK   12  A    between atoms: C_13  and  C_14
REMARK   13  A    between atoms: C_14  and  C_15
REMARK   14  A    between atoms: C_15  and  C_16
REMARK   15  A    between atoms: C_16  and  C_17
REMARK   16  A    between atoms: C_17  and  C_18
REMARK   17  A    between atoms: N_20  and  N_21
REMARK   18  A    between atoms: C_22  and  C_24
REMARK                            x       y       z     vdW  Elec       q    Type
REMARK                         _______ _______ _______ _____ _____    ______ ____
ROOT
ATOM      1  C   UNL     1       1.899   8.918  18.799  0.00  0.00    +0.000 C 
ENDROOT
BRANCH   1   2
ATOM      2  C   UNL     1       1.619  10.252  18.119  0.00  0.00    +0.000 C 
BRANCH   2   3
ATOM      3  C   UNL     1       0.323  10.851  18.623  0.00  0.00    +0.000 C 
ATOM      4  O   UNL     1       0.241  11.837  19.353  0.00  0.00    +0.000 OA
ATOM      5  N   UNL     1      -0.803  10.191  18.192  0.00  0.00    +0.000 N 
ATOM      6  H   UNL     1      -0.814   9.419  17.532  0.00  0.00    +0.000 HD
BRANCH   5   7
ATOM      7  N   UNL     1      -2.042  10.718  18.547  0.00  0.00    +0.000 N 
ATOM      8  C   UNL     1      -2.845  11.243  17.554  0.00  0.00    +0.000 C 
ATOM      9  O   UNL     1      -2.481  11.275  16.381  0.00  0.00    +0.000 OA
ATOM     10  H   UNL     1      -2.343  10.522  19.504  0.00  0.00    +0.000 HD
BRANCH   8  11
ATOM     11  C   UNL     1      -4.178  11.732  17.977  0.00  0.00    +0.000 A 
ATOM     12  C   UNL     1      -4.459  12.066  19.306  0.00  0.00    +0.000 A 
ATOM     13  C   UNL     1      -5.738  12.516  19.601  0.00  0.00    +0.000 A 
ATOM     14  N   UNL     1      -6.718  12.647  18.685  0.00  0.00    +0.000 NA
ATOM     15  C   UNL     1      -6.416  12.328  17.409  0.00  0.00    +0.000 A 
ATOM     16  C   UNL     1      -5.171  11.878  17.008  0.00  0.00    +0.000 A 
ENDBRANCH   8  11
ENDBRANCH   5   7
ENDBRANCH   2   3
ENDBRANCH   1   2
BRANCH   1  17
ATOM     17  C   UNL     1       2.221   7.814  17.795  0.00  0.00    +0.000 C 
BRANCH  17  18
ATOM     18  C   UNL     1       2.934   6.675  18.513  0.00  0.00    +0.000 C 
BRANCH  18  19
ATOM     19  C   UNL     1       1.972   5.780  19.291  0.00  0.00    +0.000 C 
BRANCH  19  20
ATOM     20  C   UNL     1       2.690   5.006  20.401  0.00  0.00    +0.000 C 
BRANCH  20  21
ATOM     21  C   UNL     1       2.300   3.529  20.494  0.00  0.00    +0.000 C 
BRANCH  21  23
ATOM     22  C   UNL     1       3.712   2.107  18.966  0.00  0.00    +0.000 C 
ATOM     23  C   UNL     1       3.451   2.609  20.180  0.00  0.00    +0.000 C 
BRANCH  22  24
ATOM     24  C   UNL     1       2.881   2.438  17.769  0.00  0.00    +0.000 C 
BRANCH  24  25
ATOM     25  C   UNL     1       3.492   3.533  16.913  0.00  0.00    +0.000 C 
BRANCH  25  26
ATOM     26  C   UNL     1       4.866   3.889  17.469  0.00  0.00    +0.000 C 
BRANCH  26  27
ATOM     27  C   UNL     1       5.849   4.135  16.339  0.00  0.00    +0.000 C 
BRANCH  27  28
ATOM     28  C   UNL     1       7.189   4.613  16.886  0.00  0.00    +0.000 C 
BRANCH  28  29
ATOM     29  C   UNL     1       7.037   5.054  18.336  0.00  0.00    +0.000 C 
BRANCH  29  31
ATOM     30  C   UNL     1       7.501   7.386  17.547  0.00  0.00    +0.000 C 
ATOM     31  C   UNL     1       7.811   6.340  18.603  0.00  0.00    +0.000 C 
ENDBRANCH  29  31
ENDBRANCH  28  29
ENDBRANCH  27  28
ENDBRANCH  26  27
ENDBRANCH  25  26
ENDBRANCH  24  25
ENDBRANCH  22  24
ENDBRANCH  21  23
ENDBRANCH  20  21
ENDBRANCH  19  20
ENDBRANCH  18  19
ENDBRANCH  17  18
ENDBRANCH   1  17
TORSDOF 17
ENDMDL
MODEL 7
REMARK VINA RESULT:      -5.9      4.907      7.491
REMARK  Name = 
REMARK  18 active torsions:
REMARK  status: ('A' for Active; 'I' for Inactive)
REMARK    1  A    between atoms: C_1  and  C_2
REMARK    2  A    between atoms: C_2  and  C_3
REMARK    3  A    between atoms: C_3  and  C_4
REMARK    4  A    between atoms: C_4  and  C_5
REMARK    5  A    between atoms: C_5  and  C_6
REMARK    6  A    between atoms: C_6  and  C_7
REMARK    7  A    between atoms: C_7  and  C_8
REMARK    8  A    between atoms: C_8  and  C_9
REMARK    9  A    between atoms: C_10  and  C_11
REMARK   10  A    between atoms: C_11  and  C_12
REMARK   11  A    between atoms: C_12  and  C_13
REMARK   12  A    between atoms: C_13  and  C_14
REMARK   13  A    between atoms: C_14  and  C_15
REMARK   14  A    between atoms: C_15  and  C_16
REMARK   15  A    between atoms: C_16  and  C_17
REMARK   16  A    between atoms: C_17  and  C_18
REMARK   17  A    between atoms: N_20  and  N_21
REMARK   18  A    between atoms: C_22  and  C_24
REMARK                            x       y       z     vdW  Elec       q    Type
REMARK                         _______ _______ _______ _____ _____    ______ ____
ROOT
ATOM      1  C   UNL     1       3.345   6.707  18.811  0.00  0.00    +0.000 C 
ENDROOT
BRANCH   1   2
ATOM      2  C   UNL     1       2.070   7.165  18.115  0.00  0.00    +0.000 C 
BRANCH   2   3
ATOM      3  C   UNL     1       1.929   8.671  18.185  0.00  0.00    +0.000 C 
ATOM      4  O   UNL     1       2.349   9.456  17.337  0.00  0.00    +0.000 OA
ATOM      5  N   UNL     1       1.275   9.120  19.306  0.00  0.00    +0.000 N 
ATOM      6  H   UNL     1       0.839   8.529  20.007  0.00  0.00    +0.000 HD
BRANCH   5   7
ATOM      7  N   UNL     1       1.036  10.488  19.416  0.00  0.00    +0.000 N 
ATOM      8  C   UNL     1      -0.236  10.958  19.157  0.00  0.00    +0.000 C 
ATOM      9  O   UNL     1      -1.144  10.205  18.811  0.00  0.00    +0.000 OA
ATOM     10  H   UNL     1       1.785  11.030  19.851  0.00  0.00    +0.000 HD
BRANCH   8  11
ATOM     11  C   UNL     1      -0.451  12.412  19.349  0.00  0.00    +0.000 A 
ATOM     12  C   UNL     1       0.204  13.369  18.569  0.00  0.00    +0.000 A 
ATOM     13  C   UNL     1      -0.065  14.705  18.826  0.00  0.00    +0.000 A 
ATOM     14  N   UNL     1      -0.916  15.129  19.782  0.00  0.00    +0.000 NA
ATOM     15  C   UNL     1      -1.543  14.184  20.513  0.00  0.00    +0.000 A 
ATOM     16  C   UNL     1      -1.352  12.826  20.331  0.00  0.00    +0.000 A 
ENDBRANCH   8  11
ENDBRANCH   5   7
ENDBRANCH   2   3
ENDBRANCH   1   2
BRANCH   1  17
ATOM     17  C   UNL     1       3.056   5.924  20.090  0.00  0.00    +0.000 C 
BRANCH  17  18
ATOM     18  C   UNL     1       1.549   5.757  20.245  0.00  0.00    +0.000 C 
BRANCH  18  19
ATOM     19  C   UNL     1       1.152   4.327  20.603  0.00  0.00    +0.000 C 
BRANCH  19  20
ATOM     20  C   UNL     1       2.314   3.558  21.239  0.00  0.00    +0.000 C 
BRANCH  20  21
ATOM     21  C   UNL     1       2.759   2.321  20.454  0.00  0.00    +0.000 C 
BRANCH  21  23
ATOM     22  C   UNL     1       2.440   2.144  17.960  0.00  0.00    +0.000 C 
ATOM     23  C   UNL     1       1.945   2.110  19.204  0.00  0.00    +0.000 C 
BRANCH  22  24
ATOM     24  C   UNL     1       3.891   2.375  17.684  0.00  0.00    +0.000 C 
BRANCH  24  25
ATOM     25  C   UNL     1       4.221   3.841  17.467  0.00  0.00    +0.000 C 
BRANCH  25  26
ATOM     26  C   UNL     1       4.650   4.044  16.018  0.00  0.00    +0.000 C 
BRANCH  26  27
ATOM     27  C   UNL     1       5.993   4.749  15.955  0.00  0.00    +0.000 C 
BRANCH  27  28
ATOM     28  C   UNL     1       5.826   6.245  16.193  0.00  0.00    +0.000 C 
BRANCH  28  29
ATOM     29  C   UNL     1       6.834   6.727  17.229  0.00  0.00    +0.000 C 
BRANCH  29  31
ATOM     30  C   UNL     1       7.173   5.561  19.419  0.00  0.00    +0.000 C 
ATOM     31  C   UNL     1       7.500   5.553  17.936  0.00  0.00    +0.000 C 
ENDBRANCH  29  31
ENDBRANCH  28  29
ENDBRANCH  27  28
ENDBRANCH  26  27
ENDBRANCH  25  26
ENDBRANCH  24  25
ENDBRANCH  22  24
ENDBRANCH  21  23
ENDBRANCH  20  21
ENDBRANCH  19  20
ENDBRANCH  18  19
ENDBRANCH  17  18
ENDBRANCH   1  17
TORSDOF 17
ENDMDL
MODEL 8
REMARK VINA RESULT:      -5.9      5.683      8.760
REMARK  Name = 
REMARK  18 active torsions:
REMARK  status: ('A' for Active; 'I' for Inactive)
REMARK    1  A    between atoms: C_1  and  C_2
REMARK    2  A    between atoms: C_2  and  C_3
REMARK    3  A    between atoms: C_3  and  C_4
REMARK    4  A    between atoms: C_4  and  C_5
REMARK    5  A    between atoms: C_5  and  C_6
REMARK    6  A    between atoms: C_6  and  C_7
REMARK    7  A    between atoms: C_7  and  C_8
REMARK    8  A    between atoms: C_8  and  C_9
REMARK    9  A    between atoms: C_10  and  C_11
REMARK   10  A    between atoms: C_11  and  C_12
REMARK   11  A    between atoms: C_12  and  C_13
REMARK   12  A    between atoms: C_13  and  C_14
REMARK   13  A    between atoms: C_14  and  C_15
REMARK   14  A    between atoms: C_15  and  C_16
REMARK   15  A    between atoms: C_16  and  C_17
REMARK   16  A    between atoms: C_17  and  C_18
REMARK   17  A    between atoms: N_20  and  N_21
REMARK   18  A    between atoms: C_22  and  C_24
REMARK                            x       y       z     vdW  Elec       q    Type
REMARK                         _______ _______ _______ _____ _____    ______ ____
ROOT
ATOM      1  C   UNL     1       2.418   8.331  18.819  0.00  0.00    +0.000 C 
ENDROOT
BRANCH   1   2
ATOM      2  C   UNL     1       1.613   9.194  17.855  0.00  0.00    +0.000 C 
BRANCH   2   3
ATOM      3  C   UNL     1       1.037  10.400  18.566  0.00  0.00    +0.000 C 
ATOM      4  O   UNL     1       1.440  11.554  18.431  0.00  0.00    +0.000 OA
ATOM      5  N   UNL     1      -0.009  10.107  19.407  0.00  0.00    +0.000 N 
ATOM      6  H   UNL     1      -0.441   9.193  19.511  0.00  0.00    +0.000 HD
BRANCH   5   7
ATOM      7  N   UNL     1      -0.648  11.167  20.045  0.00  0.00    +0.000 N 
ATOM      8  C   UNL     1      -0.885  11.075  21.402  0.00  0.00    +0.000 C 
ATOM      9  O   UNL     1      -0.569  10.077  22.045  0.00  0.00    +0.000 OA
ATOM     10  H   UNL     1      -0.744  12.019  19.488  0.00  0.00    +0.000 HD
BRANCH   8  11
ATOM     11  C   UNL     1      -1.510  12.257  22.041  0.00  0.00    +0.000 A 
ATOM     12  C   UNL     1      -0.852  13.005  23.023  0.00  0.00    +0.000 A 
ATOM     13  C   UNL     1      -1.522  14.094  23.560  0.00  0.00    +0.000 A 
ATOM     14  N   UNL     1      -2.763  14.468  23.193  0.00  0.00    +0.000 NA
ATOM     15  C   UNL     1      -3.370  13.736  22.236  0.00  0.00    +0.000 A 
ATOM     16  C   UNL     1      -2.788  12.637  21.630  0.00  0.00    +0.000 A 
ENDBRANCH   8  11
ENDBRANCH   5   7
ENDBRANCH   2   3
ENDBRANCH   1   2
BRANCH   1  17
ATOM     17  C   UNL     1       2.253   6.840  18.535  0.00  0.00    +0.000 C 
BRANCH  17  18
ATOM     18  C   UNL     1       2.720   6.043  19.747  0.00  0.00    +0.000 C 
BRANCH  18  19
ATOM     19  C   UNL     1       1.560   5.429  20.526  0.00  0.00    +0.000 C 
BRANCH  19  20
ATOM     20  C   UNL     1       1.574   3.899  20.452  0.00  0.00    +0.000 C 
BRANCH  20  21
ATOM     21  C   UNL     1       0.996   3.324  19.156  0.00  0.00    +0.000 C 
BRANCH  21  23
ATOM     22  C   UNL     1       2.760   2.202  17.749  0.00  0.00    +0.000 C 
ATOM     23  C   UNL     1       1.776   2.136  18.656  0.00  0.00    +0.000 C 
BRANCH  22  24
ATOM     24  C   UNL     1       3.208   3.495  17.149  0.00  0.00    +0.000 C 
BRANCH  24  25
ATOM     25  C   UNL     1       4.626   3.866  17.545  0.00  0.00    +0.000 C 
BRANCH  25  26
ATOM     26  C   UNL     1       5.011   5.169  16.853  0.00  0.00    +0.000 C 
BRANCH  26  27
ATOM     27  C   UNL     1       6.118   4.927  15.843  0.00  0.00    +0.000 C 
BRANCH  27  28
ATOM     28  C   UNL     1       5.537   4.711  14.451  0.00  0.00    +0.000 C 
BRANCH  28  29
ATOM     29  C   UNL     1       6.323   3.633  13.715  0.00  0.00    +0.000 C 
BRANCH  29  31
ATOM     30  C   UNL     1       4.844   3.019  11.790  0.00  0.00    +0.000 C 
ATOM     31  C   UNL     1       6.117   3.733  12.208  0.00  0.00    +0.000 C 
ENDBRANCH  29  31
ENDBRANCH  28  29
ENDBRANCH  27  28
ENDBRANCH  26  27
ENDBRANCH  25  26
ENDBRANCH  24  25
ENDBRANCH  22  24
ENDBRANCH  21  23
ENDBRANCH  20  21
ENDBRANCH  19  20
ENDBRANCH  18  19
ENDBRANCH  17  18
ENDBRANCH   1  17
TORSDOF 17
ENDMDL
MODEL 9
REMARK VINA RESULT:      -5.8      5.171      7.377
REMARK  Name = 
REMARK  18 active torsions:
REMARK  status: ('A' for Active; 'I' for Inactive)
REMARK    1  A    between atoms: C_1  and  C_2
REMARK    2  A    between atoms: C_2  and  C_3
REMARK    3  A    between atoms: C_3  and  C_4
REMARK    4  A    between atoms: C_4  and  C_5
REMARK    5  A    between atoms: C_5  and  C_6
REMARK    6  A    between atoms: C_6  and  C_7
REMARK    7  A    between atoms: C_7  and  C_8
REMARK    8  A    between atoms: C_8  and  C_9
REMARK    9  A    between atoms: C_10  and  C_11
REMARK   10  A    between atoms: C_11  and  C_12
REMARK   11  A    between atoms: C_12  and  C_13
REMARK   12  A    between atoms: C_13  and  C_14
REMARK   13  A    between atoms: C_14  and  C_15
REMARK   14  A    between atoms: C_15  and  C_16
REMARK   15  A    between atoms: C_16  and  C_17
REMARK   16  A    between atoms: C_17  and  C_18
REMARK   17  A    between atoms: N_20  and  N_21
REMARK   18  A    between atoms: C_22  and  C_24
REMARK                            x       y       z     vdW  Elec       q    Type
REMARK                         _______ _______ _______ _____ _____    ______ ____
ROOT
ATOM      1  C   UNL     1       2.373   2.442  20.219  0.00  0.00    +0.000 C 
ENDROOT
BRANCH   1   2
ATOM      2  C   UNL     1       3.867   2.586  19.955  0.00  0.00    +0.000 C 
BRANCH   2   3
ATOM      3  C   UNL     1       4.150   2.616  18.467  0.00  0.00    +0.000 C 
ATOM      4  O   UNL     1       3.743   1.785  17.657  0.00  0.00    +0.000 OA
ATOM      5  N   UNL     1       4.924   3.678  18.067  0.00  0.00    +0.000 N 
ATOM      6  H   UNL     1       5.231   4.439  18.665  0.00  0.00    +0.000 HD
BRANCH   5   7
ATOM      7  N   UNL     1       5.170   3.827  16.704  0.00  0.00    +0.000 N 
ATOM      8  C   UNL     1       6.438   4.192  16.299  0.00  0.00    +0.000 C 
ATOM      9  O   UNL     1       7.336   4.411  17.110  0.00  0.00    +0.000 OA
ATOM     10  H   UNL     1       4.432   3.484  16.086  0.00  0.00    +0.000 HD
BRANCH   8  11
ATOM     11  C   UNL     1       6.663   4.274  14.836  0.00  0.00    +0.000 A 
ATOM     12  C   UNL     1       5.939   3.493  13.930  0.00  0.00    +0.000 A 
ATOM     13  C   UNL     1       6.223   3.643  12.580  0.00  0.00    +0.000 A 
ATOM     14  N   UNL     1       7.152   4.492  12.098  0.00  0.00    +0.000 NA
ATOM     15  C   UNL     1       7.828   5.240  12.994  0.00  0.00    +0.000 A 
ATOM     16  C   UNL     1       7.616   5.174  14.360  0.00  0.00    +0.000 A 
ENDBRANCH   8  11
ENDBRANCH   5   7
ENDBRANCH   2   3
ENDBRANCH   1   2
BRANCH   1  17
ATOM     17  C   UNL     1       1.941   3.164  21.494  0.00  0.00    +0.000 C 
BRANCH  17  18
ATOM     18  C   UNL     1       1.929   4.667  21.239  0.00  0.00    +0.000 C 
BRANCH  18  19
ATOM     19  C   UNL     1       1.876   5.009  19.752  0.00  0.00    +0.000 C 
BRANCH  19  20
ATOM     20  C   UNL     1       2.494   6.380  19.463  0.00  0.00    +0.000 C 
BRANCH  20  21
ATOM     21  C   UNL     1       2.258   6.892  18.040  0.00  0.00    +0.000 C 
BRANCH  21  23
ATOM     22  C   UNL     1       2.142   9.379  17.647  0.00  0.00    +0.000 C 
ATOM     23  C   UNL     1       2.855   8.256  17.813  0.00  0.00    +0.000 C 
BRANCH  22  24
ATOM     24  C   UNL     1       0.649   9.392  17.698  0.00  0.00    +0.000 C 
BRANCH  24  25
ATOM     25  C   UNL     1       0.109  10.110  18.922  0.00  0.00    +0.000 C 
BRANCH  25  26
ATOM     26  C   UNL     1       0.886   9.652  20.150  0.00  0.00    +0.000 C 
BRANCH  26  27
ATOM     27  C   UNL     1       0.053   8.692  20.980  0.00  0.00    +0.000 C 
BRANCH  27  28
ATOM     28  C   UNL     1       0.662   8.508  22.364  0.00  0.00    +0.000 C 
BRANCH  28  29
ATOM     29  C   UNL     1       0.374   9.727  23.231  0.00  0.00    +0.000 C 
BRANCH  29  31
ATOM     30  C   UNL     1      -1.149  11.697  22.959  0.00  0.00    +0.000 C 
ATOM     31  C   UNL     1      -1.071  10.185  23.075  0.00  0.00    +0.000 C 
ENDBRANCH  29  31
ENDBRANCH  28  29
ENDBRANCH  27  28
ENDBRANCH  26  27
ENDBRANCH  25  26
ENDBRANCH  24  25
ENDBRANCH  22  24
ENDBRANCH  21  23
ENDBRANCH  20  21
ENDBRANCH  19  20
ENDBRANCH  18  19
ENDBRANCH  17  18
ENDBRANCH   1  17
TORSDOF 17
ENDMDL
