MODEL 1
REMARK VINA RESULT:      -6.5      0.000      0.000
REMARK  Name = 
REMARK  15 active torsions:
REMARK  status: ('A' for Active; 'I' for Inactive)
REMARK    1  A    between atoms: C_1  and  C_2
REMARK    2  A    between atoms: C_2  and  C_3
REMARK    3  A    between atoms: C_3  and  C_4
REMARK    4  A    between atoms: C_4  and  C_5
REMARK    5  A    between atoms: C_5  and  N_6
REMARK    6  A    between atoms: C_5  and  C_17
REMARK    7  A    between atoms: C_7  and  O_9
REMARK    8  A    between atoms: O_9  and  C_10
REMARK    9  A    between atoms: C_10  and  C_11
REMARK   10  A    between atoms: C_10  and  C_14
REMARK   11  A    between atoms: C_11  and  C_12
REMARK   12  A    between atoms: C_11  and  C_13
REMARK   13  A    between atoms: C_14  and  C_15
REMARK   14  A    between atoms: C_14  and  C_16
REMARK   15  A    between atoms: C_17  and  C_19
REMARK                            x       y       z     vdW  Elec       q    Type
REMARK                         _______ _______ _______ _____ _____    ______ ____
ROOT
ATOM      1  C   UNL     1       5.454   5.670  16.787  0.00  0.00    +0.000 C 
ENDROOT
BRANCH   1   2
ATOM      2  N   UNL     1       5.941   5.984  18.145  0.00  0.00    +0.000 N 
ATOM      3  C   UNL     1       5.591   5.179  19.202  0.00  0.00    +0.000 C 
ATOM      4  O   UNL     1       6.440   4.717  19.948  0.00  0.00    +0.000 OA
ATOM      5  H   UNL     1       6.933   6.163  18.216  0.00  0.00    +0.000 HD
BRANCH   3   6
ATOM      6  O   UNL     1       4.254   5.012  19.300  0.00  0.00    +0.000 OA
BRANCH   6   7
ATOM      7  C   UNL     1       3.690   3.705  19.633  0.00  0.00    +0.000 C 
BRANCH   7   8
ATOM      8  C   UNL     1       2.325   3.829  20.383  0.00  0.00    +0.000 C 
ATOM      9  C   UNL     1       2.242   3.015  21.675  0.00  0.00    +0.000 C 
ATOM     10  C   UNL     1       1.867   5.273  20.624  0.00  0.00    +0.000 C 
ENDBRANCH   7   8
BRANCH   7  11
ATOM     11  C   UNL     1       3.680   2.941  18.268  0.00  0.00    +0.000 C 
ATOM     12  C   UNL     1       3.565   1.422  18.486  0.00  0.00    +0.000 C 
ATOM     13  C   UNL     1       2.582   3.360  17.292  0.00  0.00    +0.000 C 
ENDBRANCH   7  11
ENDBRANCH   6   7
ENDBRANCH   3   6
ENDBRANCH   1   2
BRANCH   1  14
ATOM     14  C   UNL     1       6.632   5.652  15.773  0.00  0.00    +0.000 C 
ATOM     15  O   UNL     1       7.676   6.232  16.091  0.00  0.00    +0.000 OA
BRANCH  14  16
ATOM     16  C   UNL     1       6.485   4.911  14.513  0.00  0.00    +0.000 A 
ATOM     17  C   UNL     1       5.502   4.042  14.072  0.00  0.00    +0.000 A 
ATOM     18  C   UNL     1       5.775   3.496  12.782  0.00  0.00    +0.000 A 
ATOM     19  C   UNL     1       6.950   3.980  12.258  0.00  0.00    +0.000 A 
ATOM     20  S   UNL     1       7.715   5.079  13.317  0.00  0.00    +0.000 S 
ENDBRANCH  14  16
ENDBRANCH   1  14
BRANCH   1  21
ATOM     21  C   UNL     1       4.311   6.601  16.356  0.00  0.00    +0.000 C 
BRANCH  21  22
ATOM     22  C   UNL     1       4.043   7.759  17.333  0.00  0.00    +0.000 C 
BRANCH  22  24
ATOM     23  C   UNL     1       1.955   9.084  17.911  0.00  0.00    +0.000 C 
ATOM     24  C   UNL     1       2.596   7.708  17.834  0.00  0.00    +0.000 C 
ENDBRANCH  22  24
ENDBRANCH  21  22
ENDBRANCH   1  21
TORSDOF 10
ENDMDL
MODEL 2
REMARK VINA RESULT:      -6.5      1.900      2.516
REMARK  Name = 
REMARK  15 active torsions:
REMARK  status: ('A' for Active; 'I' for Inactive)
REMARK    1  A    between atoms: C_1  and  C_2
REMARK    2  A    between atoms: C_2  and  C_3
REMARK    3  A    between atoms: C_3  and  C_4
REMARK    4  A    between atoms: C_4  and  C_5
REMARK    5  A    between atoms: C_5  and  N_6
REMARK    6  A    between atoms: C_5  and  C_17
REMARK    7  A    between atoms: C_7  and  O_9
REMARK    8  A    between atoms: O_9  and  C_10
REMARK    9  A    between atoms: C_10  and  C_11
REMARK   10  A    between atoms: C_10  and  C_14
REMARK   11  A    between atoms: C_11  and  C_12
REMARK   12  A    between atoms: C_11  and  C_13
REMARK   13  A    between atoms: C_14  and  C_15
REMARK   14  A    between atoms: C_14  and  C_16
REMARK   15  A    between atoms: C_17  and  C_19
REMARK                            x       y       z     vdW  Elec       q    Type
REMARK                         _______ _______ _______ _____ _____    ______ ____
ROOT
ATOM      1  C   UNL     1       6.076   5.756  17.336  0.00  0.00    +0.000 C 
ENDROOT
BRANCH   1   2
ATOM      2  N   UNL     1       6.069   5.323  18.747  0.00  0.00    +0.000 N 
ATOM      3  C   UNL     1       5.273   4.275  19.140  0.00  0.00    +0.000 C 
ATOM      4  O   UNL     1       5.737   3.332  19.760  0.00  0.00    +0.000 OA
ATOM      5  H   UNL     1       6.982   5.182  19.158  0.00  0.00    +0.000 HD
BRANCH   3   6
ATOM      6  O   UNL     1       3.981   4.449  18.783  0.00  0.00    +0.000 OA
BRANCH   6   7
ATOM      7  C   UNL     1       2.920   3.684  19.435  0.00  0.00    +0.000 C 
BRANCH   7   8
ATOM      8  C   UNL     1       2.493   4.316  20.798  0.00  0.00    +0.000 C 
ATOM      9  C   UNL     1       1.524   5.492  20.669  0.00  0.00    +0.000 C 
ATOM     10  C   UNL     1       1.980   3.303  21.829  0.00  0.00    +0.000 C 
ENDBRANCH   7   8
BRANCH   7  11
ATOM     11  C   UNL     1       1.814   3.565  18.334  0.00  0.00    +0.000 C 
ATOM     12  C   UNL     1       2.440   3.337  16.946  0.00  0.00    +0.000 C 
ATOM     13  C   UNL     1       0.775   2.470  18.566  0.00  0.00    +0.000 C 
ENDBRANCH   7  11
ENDBRANCH   6   7
ENDBRANCH   3   6
ENDBRANCH   1   2
BRANCH   1  14
ATOM     14  C   UNL     1       6.972   4.819  16.479  0.00  0.00    +0.000 C 
ATOM     15  O   UNL     1       7.991   4.358  17.004  0.00  0.00    +0.000 OA
BRANCH  14  16
ATOM     16  C   UNL     1       6.553   4.474  15.114  0.00  0.00    +0.000 A 
ATOM     17  C   UNL     1       5.412   3.852  14.636  0.00  0.00    +0.000 A 
ATOM     18  C   UNL     1       5.427   3.665  13.221  0.00  0.00    +0.000 A 
ATOM     19  C   UNL     1       6.570   4.171  12.649  0.00  0.00    +0.000 A 
ATOM     20  S   UNL     1       7.614   4.860  13.811  0.00  0.00    +0.000 S 
ENDBRANCH  14  16
ENDBRANCH   1  14
BRANCH   1  21
ATOM     21  C   UNL     1       6.452   7.238  17.190  0.00  0.00    +0.000 C 
BRANCH  21  22
ATOM     22  C   UNL     1       7.785   7.615  17.859  0.00  0.00    +0.000 C 
BRANCH  22  24
ATOM     23  C   UNL     1       8.944   9.645  18.854  0.00  0.00    +0.000 C 
ATOM     24  C   UNL     1       8.019   9.126  17.764  0.00  0.00    +0.000 C 
ENDBRANCH  22  24
ENDBRANCH  21  22
ENDBRANCH   1  21
TORSDOF 10
ENDMDL
MODEL 3
REMARK VINA RESULT:      -6.5      1.681      2.928
REMARK  Name = 
REMARK  15 active torsions:
REMARK  status: ('A' for Active; 'I' for Inactive)
REMARK    1  A    between atoms: C_1  and  C_2
REMARK    2  A    between atoms: C_2  and  C_3
REMARK    3  A    between atoms: C_3  and  C_4
REMARK    4  A    between atoms: C_4  and  C_5
REMARK    5  A    between atoms: C_5  and  N_6
REMARK    6  A    between atoms: C_5  and  C_17
REMARK    7  A    between atoms: C_7  and  O_9
REMARK    8  A    between atoms: O_9  and  C_10
REMARK    9  A    between atoms: C_10  and  C_11
REMARK   10  A    between atoms: C_10  and  C_14
REMARK   11  A    between atoms: C_11  and  C_12
REMARK   12  A    between atoms: C_11  and  C_13
REMARK   13  A    between atoms: C_14  and  C_15
REMARK   14  A    between atoms: C_14  and  C_16
REMARK   15  A    between atoms: C_17  and  C_19
REMARK                            x       y       z     vdW  Elec       q    Type
REMARK                         _______ _______ _______ _____ _____    ______ ____
ROOT
ATOM      1  C   UNL     1       5.622   4.812  17.269  0.00  0.00    +0.000 C 
ENDROOT
BRANCH   1   2
ATOM      2  N   UNL     1       5.356   3.767  18.278  0.00  0.00    +0.000 N 
ATOM      3  C   UNL     1       4.105   3.207  18.372  0.00  0.00    +0.000 C 
ATOM      4  O   UNL     1       3.955   1.996  18.348  0.00  0.00    +0.000 OA
ATOM      5  H   UNL     1       6.028   3.014  18.305  0.00  0.00    +0.000 HD
BRANCH   3   6
ATOM      6  O   UNL     1       3.135   4.137  18.512  0.00  0.00    +0.000 OA
BRANCH   6   7
ATOM      7  C   UNL     1       2.914   4.794  19.799  0.00  0.00    +0.000 C 
BRANCH   7   8
ATOM      8  C   UNL     1       2.713   6.336  19.644  0.00  0.00    +0.000 C 
ATOM      9  C   UNL     1       2.370   6.784  18.223  0.00  0.00    +0.000 C 
ATOM     10  C   UNL     1       1.737   6.949  20.655  0.00  0.00    +0.000 C 
ENDBRANCH   7   8
BRANCH   7  11
ATOM     11  C   UNL     1       1.733   3.987  20.434  0.00  0.00    +0.000 C 
ATOM     12  C   UNL     1       0.851   3.350  19.344  0.00  0.00    +0.000 C 
ATOM     13  C   UNL     1       2.143   2.886  21.410  0.00  0.00    +0.000 C 
ENDBRANCH   7  11
ENDBRANCH   6   7
ENDBRANCH   3   6
ENDBRANCH   1   2
BRANCH   1  14
ATOM     14  C   UNL     1       6.798   4.391  16.343  0.00  0.00    +0.000 C 
ATOM     15  O   UNL     1       7.897   4.180  16.866  0.00  0.00    +0.000 OA
BRANCH  14  16
ATOM     16  C   UNL     1       6.551   4.208  14.906  0.00  0.00    +0.000 A 
ATOM     17  C   UNL     1       5.570   3.504  14.228  0.00  0.00    +0.000 A 
ATOM     18  C   UNL     1       5.727   3.549  12.810  0.00  0.00    +0.000 A 
ATOM     19  C   UNL     1       6.812   4.308  12.438  0.00  0.00    +0.000 A 
ATOM     20  S   UNL     1       7.631   4.954  13.789  0.00  0.00    +0.000 S 
ENDBRANCH  14  16
ENDBRANCH   1  14
BRANCH   1  21
ATOM     21  C   UNL     1       5.833   6.192  17.910  0.00  0.00    +0.000 C 
BRANCH  21  22
ATOM     22  C   UNL     1       6.417   7.245  16.953  0.00  0.00    +0.000 C 
BRANCH  22  24
ATOM     23  C   UNL     1       8.234   7.088  18.721  0.00  0.00    +0.000 C 
ATOM     24  C   UNL     1       7.652   7.902  17.577  0.00  0.00    +0.000 C 
ENDBRANCH  22  24
ENDBRANCH  21  22
ENDBRANCH   1  21
TORSDOF 10
ENDMDL
MODEL 4
REMARK VINA RESULT:      -6.1      2.155      3.094
REMARK  Name = 
REMARK  15 active torsions:
REMARK  status: ('A' for Active; 'I' for Inactive)
REMARK    1  A    between atoms: C_1  and  C_2
REMARK    2  A    between atoms: C_2  and  C_3
REMARK    3  A    between atoms: C_3  and  C_4
REMARK    4  A    between atoms: C_4  and  C_5
REMARK    5  A    between atoms: C_5  and  N_6
REMARK    6  A    between atoms: C_5  and  C_17
REMARK    7  A    between atoms: C_7  and  O_9
REMARK    8  A    between atoms: O_9  and  C_10
REMARK    9  A    between atoms: C_10  and  C_11
REMARK   10  A    between atoms: C_10  and  C_14
REMARK   11  A    between atoms: C_11  and  C_12
REMARK   12  A    between atoms: C_11  and  C_13
REMARK   13  A    between atoms: C_14  and  C_15
REMARK   14  A    between atoms: C_14  and  C_16
REMARK   15  A    between atoms: C_17  and  C_19
REMARK                            x       y       z     vdW  Elec       q    Type
REMARK                         _______ _______ _______ _____ _____    ______ ____
ROOT
ATOM      1  C   UNL     1       6.747   5.636  18.171  0.00  0.00    +0.000 C 
ENDROOT
BRANCH   1   2
ATOM      2  N   UNL     1       6.340   4.891  19.379  0.00  0.00    +0.000 N 
ATOM      3  C   UNL     1       5.240   4.068  19.340  0.00  0.00    +0.000 C 
ATOM      4  O   UNL     1       5.311   2.907  19.707  0.00  0.00    +0.000 OA
ATOM      5  H   UNL     1       7.081   4.384  19.843  0.00  0.00    +0.000 HD
BRANCH   3   6
ATOM      6  O   UNL     1       4.137   4.706  18.888  0.00  0.00    +0.000 OA
BRANCH   6   7
ATOM      7  C   UNL     1       3.122   5.190  19.823  0.00  0.00    +0.000 C 
BRANCH   7   8
ATOM      8  C   UNL     1       2.350   6.426  19.261  0.00  0.00    +0.000 C 
ATOM      9  C   UNL     1       1.909   7.428  20.329  0.00  0.00    +0.000 C 
ATOM     10  C   UNL     1       3.063   7.143  18.108  0.00  0.00    +0.000 C 
ENDBRANCH   7   8
BRANCH   7  11
ATOM     11  C   UNL     1       2.275   3.915  20.149  0.00  0.00    +0.000 C 
ATOM     12  C   UNL     1       2.215   3.667  21.667  0.00  0.00    +0.000 C 
ATOM     13  C   UNL     1       0.843   3.928  19.618  0.00  0.00    +0.000 C 
ENDBRANCH   7  11
ENDBRANCH   6   7
ENDBRANCH   3   6
ENDBRANCH   1   2
BRANCH   1  14
ATOM     14  C   UNL     1       7.341   4.672  17.107  0.00  0.00    +0.000 C 
ATOM     15  O   UNL     1       8.386   4.075  17.389  0.00  0.00    +0.000 OA
BRANCH  14  16
ATOM     16  C   UNL     1       6.622   4.464  15.843  0.00  0.00    +0.000 A 
ATOM     17  C   UNL     1       5.343   4.002  15.583  0.00  0.00    +0.000 A 
ATOM     18  C   UNL     1       5.054   3.907  14.189  0.00  0.00    +0.000 A 
ATOM     19  C   UNL     1       6.113   4.322  13.417  0.00  0.00    +0.000 A 
ATOM     20  S   UNL     1       7.441   4.817  14.368  0.00  0.00    +0.000 S 
ENDBRANCH  14  16
ENDBRANCH   1  14
BRANCH   1  21
ATOM     21  C   UNL     1       7.685   6.806  18.505  0.00  0.00    +0.000 C 
BRANCH  21  22
ATOM     22  C   UNL     1       7.373   8.099  17.732  0.00  0.00    +0.000 C 
BRANCH  22  24
ATOM     23  C   UNL     1       8.635  10.104  18.649  0.00  0.00    +0.000 C 
ATOM     24  C   UNL     1       8.627   8.974  17.633  0.00  0.00    +0.000 C 
ENDBRANCH  22  24
ENDBRANCH  21  22
ENDBRANCH   1  21
TORSDOF 10
ENDMDL
MODEL 5
REMARK VINA RESULT:      -6.0      2.713      6.082
REMARK  Name = 
REMARK  15 active torsions:
REMARK  status: ('A' for Active; 'I' for Inactive)
REMARK    1  A    between atoms: C_1  and  C_2
REMARK    2  A    between atoms: C_2  and  C_3
REMARK    3  A    between atoms: C_3  and  C_4
REMARK    4  A    between atoms: C_4  and  C_5
REMARK    5  A    between atoms: C_5  and  N_6
REMARK    6  A    between atoms: C_5  and  C_17
REMARK    7  A    between atoms: C_7  and  O_9
REMARK    8  A    between atoms: O_9  and  C_10
REMARK    9  A    between atoms: C_10  and  C_11
REMARK   10  A    between atoms: C_10  and  C_14
REMARK   11  A    between atoms: C_11  and  C_12
REMARK   12  A    between atoms: C_11  and  C_13
REMARK   13  A    between atoms: C_14  and  C_15
REMARK   14  A    between atoms: C_14  and  C_16
REMARK   15  A    between atoms: C_17  and  C_19
REMARK                            x       y       z     vdW  Elec       q    Type
REMARK                         _______ _______ _______ _____ _____    ______ ____
ROOT
ATOM      1  C   UNL     1       2.786   6.397  18.797  0.00  0.00    +0.000 C 
ENDROOT
BRANCH   1   2
ATOM      2  N   UNL     1       3.203   5.127  18.170  0.00  0.00    +0.000 N 
ATOM      3  C   UNL     1       4.475   4.647  18.373  0.00  0.00    +0.000 C 
ATOM      4  O   UNL     1       4.660   3.507  18.765  0.00  0.00    +0.000 OA
ATOM      5  H   UNL     1       2.564   4.355  18.295  0.00  0.00    +0.000 HD
BRANCH   3   6
ATOM      6  O   UNL     1       5.423   5.560  18.067  0.00  0.00    +0.000 OA
BRANCH   6   7
ATOM      7  C   UNL     1       6.594   5.181  17.278  0.00  0.00    +0.000 C 
BRANCH   7   8
ATOM      8  C   UNL     1       6.363   5.394  15.747  0.00  0.00    +0.000 C 
ATOM      9  C   UNL     1       6.236   4.097  14.946  0.00  0.00    +0.000 C 
ATOM     10  C   UNL     1       5.213   6.351  15.411  0.00  0.00    +0.000 C 
ENDBRANCH   7   8
BRANCH   7  11
ATOM     11  C   UNL     1       7.765   5.984  17.935  0.00  0.00    +0.000 C 
ATOM     12  C   UNL     1       7.624   7.491  17.658  0.00  0.00    +0.000 C 
ATOM     13  C   UNL     1       7.922   5.796  19.442  0.00  0.00    +0.000 C 
ENDBRANCH   7  11
ENDBRANCH   6   7
ENDBRANCH   3   6
ENDBRANCH   1   2
BRANCH   1  14
ATOM     14  C   UNL     1       2.044   6.129  20.136  0.00  0.00    +0.000 C 
ATOM     15  O   UNL     1       1.543   7.095  20.722  0.00  0.00    +0.000 OA
BRANCH  14  16
ATOM     16  C   UNL     1       1.918   4.749  20.625  0.00  0.00    +0.000 A 
ATOM     17  C   UNL     1       2.552   4.083  21.660  0.00  0.00    +0.000 A 
ATOM     18  C   UNL     1       2.166   2.714  21.765  0.00  0.00    +0.000 A 
ATOM     19  C   UNL     1       1.226   2.372  20.821  0.00  0.00    +0.000 A 
ATOM     20  S   UNL     1       0.821   3.693  19.818  0.00  0.00    +0.000 S 
ENDBRANCH  14  16
ENDBRANCH   1  14
BRANCH   1  21
ATOM     21  C   UNL     1       1.975   7.276  17.832  0.00  0.00    +0.000 C 
BRANCH  21  22
ATOM     22  C   UNL     1       2.348   8.767  17.880  0.00  0.00    +0.000 C 
BRANCH  22  24
ATOM     23  C   UNL     1       1.374  10.958  18.720  0.00  0.00    +0.000 C 
ATOM     24  C   UNL     1       1.089   9.625  18.046  0.00  0.00    +0.000 C 
ENDBRANCH  22  24
ENDBRANCH  21  22
ENDBRANCH   1  21
TORSDOF 10
ENDMDL
MODEL 6
REMARK VINA RESULT:      -6.0      1.035      1.226
REMARK  Name = 
REMARK  15 active torsions:
REMARK  status: ('A' for Active; 'I' for Inactive)
REMARK    1  A    between atoms: C_1  and  C_2
REMARK    2  A    between atoms: C_2  and  C_3
REMARK    3  A    between atoms: C_3  and  C_4
REMARK    4  A    between atoms: C_4  and  C_5
REMARK    5  A    between atoms: C_5  and  N_6
REMARK    6  A    between atoms: C_5  and  C_17
REMARK    7  A    between atoms: C_7  and  O_9
REMARK    8  A    between atoms: O_9  and  C_10
REMARK    9  A    between atoms: C_10  and  C_11
REMARK   10  A    between atoms: C_10  and  C_14
REMARK   11  A    between atoms: C_11  and  C_12
REMARK   12  A    between atoms: C_11  and  C_13
REMARK   13  A    between atoms: C_14  and  C_15
REMARK   14  A    between atoms: C_14  and  C_16
REMARK   15  A    between atoms: C_17  and  C_19
REMARK                            x       y       z     vdW  Elec       q    Type
REMARK                         _______ _______ _______ _____ _____    ______ ____
ROOT
ATOM      1  C   UNL     1       5.303   5.664  16.819  0.00  0.00    +0.000 C 
ENDROOT
BRANCH   1   2
ATOM      2  N   UNL     1       5.599   5.500  18.256  0.00  0.00    +0.000 N 
ATOM      3  C   UNL     1       5.039   4.460  18.958  0.00  0.00    +0.000 C 
ATOM      4  O   UNL     1       5.732   3.705  19.620  0.00  0.00    +0.000 OA
ATOM      5  H   UNL     1       6.579   5.539  18.501  0.00  0.00    +0.000 HD
BRANCH   3   6
ATOM      6  O   UNL     1       3.695   4.421  18.834  0.00  0.00    +0.000 OA
BRANCH   6   7
ATOM      7  C   UNL     1       2.919   3.358  19.470  0.00  0.00    +0.000 C 
BRANCH   7   8
ATOM      8  C   UNL     1       1.931   3.916  20.545  0.00  0.00    +0.000 C 
ATOM      9  C   UNL     1       2.103   3.301  21.934  0.00  0.00    +0.000 C 
ATOM     10  C   UNL     1       1.893   5.446  20.631  0.00  0.00    +0.000 C 
ENDBRANCH   7   8
BRANCH   7  11
ATOM     11  C   UNL     1       2.290   2.581  18.267  0.00  0.00    +0.000 C 
ATOM     12  C   UNL     1       0.816   2.236  18.543  0.00  0.00    +0.000 C 
ATOM     13  C   UNL     1       2.361   3.295  16.918  0.00  0.00    +0.000 C 
ENDBRANCH   7  11
ENDBRANCH   6   7
ENDBRANCH   3   6
ENDBRANCH   1   2
BRANCH   1  14
ATOM     14  C   UNL     1       6.616   5.709  15.990  0.00  0.00    +0.000 C 
ATOM     15  O   UNL     1       7.590   6.290  16.483  0.00  0.00    +0.000 OA
BRANCH  14  16
ATOM     16  C   UNL     1       6.672   5.022  14.692  0.00  0.00    +0.000 A 
ATOM     17  C   UNL     1       7.531   5.166  13.616  0.00  0.00    +0.000 A 
ATOM     18  C   UNL     1       7.198   4.322  12.516  0.00  0.00    +0.000 A 
ATOM     19  C   UNL     1       6.105   3.533  12.788  0.00  0.00    +0.000 A 
ATOM     20  S   UNL     1       5.488   3.816  14.354  0.00  0.00    +0.000 S 
ENDBRANCH  14  16
ENDBRANCH   1  14
BRANCH   1  21
ATOM     21  C   UNL     1       4.388   6.870  16.553  0.00  0.00    +0.000 C 
BRANCH  21  22
ATOM     22  C   UNL     1       3.818   7.516  17.827  0.00  0.00    +0.000 C 
BRANCH  22  24
ATOM     23  C   UNL     1       1.784   8.693  18.791  0.00  0.00    +0.000 C 
ATOM     24  C   UNL     1       2.442   8.128  17.543  0.00  0.00    +0.000 C 
ENDBRANCH  22  24
ENDBRANCH  21  22
ENDBRANCH   1  21
TORSDOF 10
ENDMDL
MODEL 7
REMARK VINA RESULT:      -6.0      1.831      3.077
REMARK  Name = 
REMARK  15 active torsions:
REMARK  status: ('A' for Active; 'I' for Inactive)
REMARK    1  A    between atoms: C_1  and  C_2
REMARK    2  A    between atoms: C_2  and  C_3
REMARK    3  A    between atoms: C_3  and  C_4
REMARK    4  A    between atoms: C_4  and  C_5
REMARK    5  A    between atoms: C_5  and  N_6
REMARK    6  A    between atoms: C_5  and  C_17
REMARK    7  A    between atoms: C_7  and  O_9
REMARK    8  A    between atoms: O_9  and  C_10
REMARK    9  A    between atoms: C_10  and  C_11
REMARK   10  A    between atoms: C_10  and  C_14
REMARK   11  A    between atoms: C_11  and  C_12
REMARK   12  A    between atoms: C_11  and  C_13
REMARK   13  A    between atoms: C_14  and  C_15
REMARK   14  A    between atoms: C_14  and  C_16
REMARK   15  A    between atoms: C_17  and  C_19
REMARK                            x       y       z     vdW  Elec       q    Type
REMARK                         _______ _______ _______ _____ _____    ______ ____
ROOT
ATOM      1  C   UNL     1       5.732   4.919  16.832  0.00  0.00    +0.000 C 
ENDROOT
BRANCH   1   2
ATOM      2  N   UNL     1       5.213   3.537  16.834  0.00  0.00    +0.000 N 
ATOM      3  C   UNL     1       3.989   3.264  17.394  0.00  0.00    +0.000 C 
ATOM      4  O   UNL     1       3.134   2.657  16.769  0.00  0.00    +0.000 OA
ATOM      5  H   UNL     1       5.252   3.061  15.943  0.00  0.00    +0.000 HD
BRANCH   3   6
ATOM      6  O   UNL     1       3.893   3.714  18.664  0.00  0.00    +0.000 OA
BRANCH   6   7
ATOM      7  C   UNL     1       2.587   4.013  19.250  0.00  0.00    +0.000 C 
BRANCH   7   8
ATOM      8  C   UNL     1       1.988   2.783  20.004  0.00  0.00    +0.000 C 
ATOM      9  C   UNL     1       2.004   2.912  21.528  0.00  0.00    +0.000 C 
ATOM     10  C   UNL     1       0.598   2.359  19.513  0.00  0.00    +0.000 C 
ENDBRANCH   7   8
BRANCH   7  11
ATOM     11  C   UNL     1       2.843   5.305  20.096  0.00  0.00    +0.000 C 
ATOM     12  C   UNL     1       3.670   6.330  19.299  0.00  0.00    +0.000 C 
ATOM     13  C   UNL     1       1.589   6.010  20.609  0.00  0.00    +0.000 C 
ENDBRANCH   7  11
ENDBRANCH   6   7
ENDBRANCH   3   6
ENDBRANCH   1   2
BRANCH   1  14
ATOM     14  C   UNL     1       5.561   5.567  15.430  0.00  0.00    +0.000 C 
ATOM     15  O   UNL     1       5.204   6.748  15.379  0.00  0.00    +0.000 OA
BRANCH  14  16
ATOM     16  C   UNL     1       5.881   4.780  14.231  0.00  0.00    +0.000 A 
ATOM     17  C   UNL     1       5.131   3.868  13.508  0.00  0.00    +0.000 A 
ATOM     18  C   UNL     1       5.851   3.287  12.421  0.00  0.00    +0.000 A 
ATOM     19  C   UNL     1       7.127   3.788  12.325  0.00  0.00    +0.000 A 
ATOM     20  S   UNL     1       7.451   4.944  13.539  0.00  0.00    +0.000 S 
ENDBRANCH  14  16
ENDBRANCH   1  14
BRANCH   1  21
ATOM     21  C   UNL     1       7.176   4.993  17.352  0.00  0.00    +0.000 C 
BRANCH  21  22
ATOM     22  C   UNL     1       7.317   5.696  18.712  0.00  0.00    +0.000 C 
BRANCH  22  24
ATOM     23  C   UNL     1       7.625   7.966  17.614  0.00  0.00    +0.000 C 
ATOM     24  C   UNL     1       8.200   6.941  18.578  0.00  0.00    +0.000 C 
ENDBRANCH  22  24
ENDBRANCH  21  22
ENDBRANCH   1  21
TORSDOF 10
ENDMDL
MODEL 8
REMARK VINA RESULT:      -6.0      2.652      6.353
REMARK  Name = 
REMARK  15 active torsions:
REMARK  status: ('A' for Active; 'I' for Inactive)
REMARK    1  A    between atoms: C_1  and  C_2
REMARK    2  A    between atoms: C_2  and  C_3
REMARK    3  A    between atoms: C_3  and  C_4
REMARK    4  A    between atoms: C_4  and  C_5
REMARK    5  A    between atoms: C_5  and  N_6
REMARK    6  A    between atoms: C_5  and  C_17
REMARK    7  A    between atoms: C_7  and  O_9
REMARK    8  A    between atoms: O_9  and  C_10
REMARK    9  A    between atoms: C_10  and  C_11
REMARK   10  A    between atoms: C_10  and  C_14
REMARK   11  A    between atoms: C_11  and  C_12
REMARK   12  A    between atoms: C_11  and  C_13
REMARK   13  A    between atoms: C_14  and  C_15
REMARK   14  A    between atoms: C_14  and  C_16
REMARK   15  A    between atoms: C_17  and  C_19
REMARK                            x       y       z     vdW  Elec       q    Type
REMARK                         _______ _______ _______ _____ _____    ______ ____
ROOT
ATOM      1  C   UNL     1       3.041   5.011  18.271  0.00  0.00    +0.000 C 
ENDROOT
BRANCH   1   2
ATOM      2  N   UNL     1       4.120   4.056  18.590  0.00  0.00    +0.000 N 
ATOM      3  C   UNL     1       5.396   4.283  18.133  0.00  0.00    +0.000 C 
ATOM      4  O   UNL     1       6.348   4.273  18.897  0.00  0.00    +0.000 OA
ATOM      5  H   UNL     1       4.189   3.793  19.564  0.00  0.00    +0.000 HD
BRANCH   3   6
ATOM      6  O   UNL     1       5.436   4.479  16.797  0.00  0.00    +0.000 OA
BRANCH   6   7
ATOM      7  C   UNL     1       6.667   4.922  16.146  0.00  0.00    +0.000 C 
BRANCH   7   8
ATOM      8  C   UNL     1       6.833   4.304  14.721  0.00  0.00    +0.000 C 
ATOM      9  C   UNL     1       5.524   3.829  14.087  0.00  0.00    +0.000 C 
ATOM     10  C   UNL     1       7.620   5.182  13.741  0.00  0.00    +0.000 C 
ENDBRANCH   7   8
BRANCH   7  11
ATOM     11  C   UNL     1       6.599   6.483  16.237  0.00  0.00    +0.000 C 
ATOM     12  C   UNL     1       5.141   6.974  16.201  0.00  0.00    +0.000 C 
ATOM     13  C   UNL     1       7.271   7.097  17.464  0.00  0.00    +0.000 C 
ENDBRANCH   7  11
ENDBRANCH   6   7
ENDBRANCH   3   6
ENDBRANCH   1   2
BRANCH   1  14
ATOM     14  C   UNL     1       2.795   5.978  19.463  0.00  0.00    +0.000 C 
ATOM     15  O   UNL     1       3.125   5.598  20.592  0.00  0.00    +0.000 OA
BRANCH  14  16
ATOM     16  C   UNL     1       2.238   7.312  19.203  0.00  0.00    +0.000 A 
ATOM     17  C   UNL     1       2.218   8.089  18.057  0.00  0.00    +0.000 A 
ATOM     18  C   UNL     1       1.607   9.363  18.254  0.00  0.00    +0.000 A 
ATOM     19  C   UNL     1       1.152   9.520  19.542  0.00  0.00    +0.000 A 
ATOM     20  S   UNL     1       1.466   8.143  20.501  0.00  0.00    +0.000 S 
ENDBRANCH  14  16
ENDBRANCH   1  14
BRANCH   1  21
ATOM     21  C   UNL     1       1.761   4.300  17.807  0.00  0.00    +0.000 C 
BRANCH  21  22
ATOM     22  C   UNL     1       1.865   2.765  17.799  0.00  0.00    +0.000 C 
BRANCH  22  24
ATOM     23  C   UNL     1       0.646   3.166  19.991  0.00  0.00    +0.000 C 
ATOM     24  C   UNL     1       0.976   2.167  18.894  0.00  0.00    +0.000 C 
ENDBRANCH  22  24
ENDBRANCH  21  22
ENDBRANCH   1  21
TORSDOF 10
ENDMDL
MODEL 9
REMARK VINA RESULT:      -5.9      1.958      2.884
REMARK  Name = 
REMARK  15 active torsions:
REMARK  status: ('A' for Active; 'I' for Inactive)
REMARK    1  A    between atoms: C_1  and  C_2
REMARK    2  A    between atoms: C_2  and  C_3
REMARK    3  A    between atoms: C_3  and  C_4
REMARK    4  A    between atoms: C_4  and  C_5
REMARK    5  A    between atoms: C_5  and  N_6
REMARK    6  A    between atoms: C_5  and  C_17
REMARK    7  A    between atoms: C_7  and  O_9
REMARK    8  A    between atoms: O_9  and  C_10
REMARK    9  A    between atoms: C_10  and  C_11
REMARK   10  A    between atoms: C_10  and  C_14
REMARK   11  A    between atoms: C_11  and  C_12
REMARK   12  A    between atoms: C_11  and  C_13
REMARK   13  A    between atoms: C_14  and  C_15
REMARK   14  A    between atoms: C_14  and  C_16
REMARK   15  A    between atoms: C_17  and  C_19
REMARK                            x       y       z     vdW  Elec       q    Type
REMARK                         _______ _______ _______ _____ _____    ______ ____
ROOT
ATOM      1  C   UNL     1       6.349   5.908  16.991  0.00  0.00    +0.000 C 
ENDROOT
BRANCH   1   2
ATOM      2  N   UNL     1       6.204   5.583  18.424  0.00  0.00    +0.000 N 
ATOM      3  C   UNL     1       5.251   4.680  18.829  0.00  0.00    +0.000 C 
ATOM      4  O   UNL     1       5.547   3.731  19.538  0.00  0.00    +0.000 OA
ATOM      5  H   UNL     1       7.063   5.354  18.903  0.00  0.00    +0.000 HD
BRANCH   3   6
ATOM      6  O   UNL     1       4.018   4.995  18.377  0.00  0.00    +0.000 OA
BRANCH   6   7
ATOM      7  C   UNL     1       2.979   5.446  19.300  0.00  0.00    +0.000 C 
BRANCH   7   8
ATOM      8  C   UNL     1       2.863   7.003  19.338  0.00  0.00    +0.000 C 
ATOM      9  C   UNL     1       2.679   7.652  17.965  0.00  0.00    +0.000 C 
ATOM     10  C   UNL     1       1.821   7.534  20.330  0.00  0.00    +0.000 C 
ENDBRANCH   7   8
BRANCH   7  11
ATOM     11  C   UNL     1       1.707   4.652  18.851  0.00  0.00    +0.000 C 
ATOM     12  C   UNL     1       2.021   3.742  17.650  0.00  0.00    +0.000 C 
ATOM     13  C   UNL     1       1.056   3.794  19.933  0.00  0.00    +0.000 C 
ENDBRANCH   7  11
ENDBRANCH   6   7
ENDBRANCH   3   6
ENDBRANCH   1   2
BRANCH   1  14
ATOM     14  C   UNL     1       7.129   4.785  16.252  0.00  0.00    +0.000 C 
ATOM     15  O   UNL     1       8.005   4.181  16.880  0.00  0.00    +0.000 OA
BRANCH  14  16
ATOM     16  C   UNL     1       6.766   4.448  14.868  0.00  0.00    +0.000 A 
ATOM     17  C   UNL     1       5.724   3.696  14.353  0.00  0.00    +0.000 A 
ATOM     18  C   UNL     1       5.768   3.578  12.931  0.00  0.00    +0.000 A 
ATOM     19  C   UNL     1       6.830   4.264  12.393  0.00  0.00    +0.000 A 
ATOM     20  S   UNL     1       7.765   5.038  13.593  0.00  0.00    +0.000 S 
ENDBRANCH  14  16
ENDBRANCH   1  14
BRANCH   1  21
ATOM     21  C   UNL     1       6.962   7.300  16.775  0.00  0.00    +0.000 C 
BRANCH  21  22
ATOM     22  C   UNL     1       7.156   8.106  18.071  0.00  0.00    +0.000 C 
BRANCH  22  24
ATOM     23  C   UNL     1       8.490  10.260  18.266  0.00  0.00    +0.000 C 
ATOM     24  C   UNL     1       8.547   8.750  18.092  0.00  0.00    +0.000 C 
ENDBRANCH  22  24
ENDBRANCH  21  22
ENDBRANCH   1  21
TORSDOF 10
ENDMDL
