MODEL 1
REMARK VINA RESULT:      -7.6      0.000      0.000
REMARK  Name = 
REMARK  4 active torsions:
REMARK  status: ('A' for Active; 'I' for Inactive)
REMARK    1  A    between atoms: C_1  and  N_2
REMARK    2  A    between atoms: C_6  and  C_7
REMARK    3  A    between atoms: N_9  and  C_10
REMARK    4  A    between atoms: N_19  and  C_20
REMARK                            x       y       z     vdW  Elec       q    Type
REMARK                         _______ _______ _______ _____ _____    ______ ____
ROOT
ATOM      1  C   UNL     1       2.559   1.752  17.453  0.00  0.00    +0.000 C 
ATOM      2  N   UNL     1       2.614   2.558  18.665  0.00  0.00    +0.000 N 
ATOM      3  C   UNL     1       1.602   2.338  19.606  0.00  0.00    +0.000 C 
ATOM      4  O   UNL     1       0.595   1.669  19.357  0.00  0.00    +0.000 OA
ATOM      5  C   UNL     1       1.782   2.884  21.008  0.00  0.00    +0.000 C 
ATOM      6  C   UNL     1       2.521   4.197  21.095  0.00  0.00    +0.000 C 
ATOM      7  S   UNL     1       4.110   3.969  20.335  0.00  0.00    +0.000 S 
ATOM      8  C   UNL     1       3.580   3.566  18.715  0.00  0.00    +0.000 C 
ATOM      9  N   UNL     1       4.034   4.097  17.619  0.00  0.00    +0.000 NA
ENDROOT
BRANCH   9  10
ATOM     10  C   UNL     1       4.945   5.174  17.547  0.00  0.00    +0.000 A 
ATOM     11  C   UNL     1       4.664   6.239  16.654  0.00  0.00    +0.000 A 
ATOM     12  C   UNL     1       5.524   7.348  16.523  0.00  0.00    +0.000 A 
ATOM     13  C   UNL     1       6.645   7.378  17.324  0.00  0.00    +0.000 A 
ATOM     14  C   UNL     1       6.932   6.349  18.180  0.00  0.00    +0.000 A 
ATOM     15  C   UNL     1       6.142   5.226  18.265  0.00  0.00    +0.000 A 
ATOM     16  O   UNL     1       8.061   6.557  18.905  0.00  0.00    +0.000 OA
ATOM     17  C   UNL     1       8.496   7.816  18.357  0.00  0.00    +0.000 C 
ATOM     18  O   UNL     1       7.588   8.356  17.369  0.00  0.00    +0.000 OA
ENDBRANCH   9  10
BRANCH   6  19
ATOM     19  C   UNL     1       1.753   5.347  20.459  0.00  0.00    +0.000 C 
ATOM     20  O   UNL     1       0.524   5.290  20.384  0.00  0.00    +0.000 OA
ATOM     21  N   UNL     1       2.537   6.415  20.055  0.00  0.00    +0.000 N 
ATOM     22  H   UNL     1       3.526   6.250  19.891  0.00  0.00    +0.000 HD
BRANCH  21  23
ATOM     23  C   UNL     1       2.038   7.673  19.640  0.00  0.00    +0.000 A 
ATOM     24  C   UNL     1       2.123   8.119  18.319  0.00  0.00    +0.000 A 
ATOM     25  C   UNL     1       1.611   9.363  17.944  0.00  0.00    +0.000 A 
ATOM     26  C   UNL     1       0.998  10.178  18.891  0.00  0.00    +0.000 A 
ATOM     27  C   UNL     1       0.891   9.736  20.214  0.00  0.00    +0.000 A 
ATOM     28  C   UNL     1       1.404   8.501  20.575  0.00  0.00    +0.000 A 
ATOM     29  F   UNL     1       1.285   8.090  21.852  0.00  0.00    +0.000 F 
ENDBRANCH  21  23
ENDBRANCH   6  19
TORSDOF 3
ENDMDL
MODEL 2
REMARK VINA RESULT:      -7.5      0.811      1.396
REMARK  Name = 
REMARK  4 active torsions:
REMARK  status: ('A' for Active; 'I' for Inactive)
REMARK    1  A    between atoms: C_1  and  N_2
REMARK    2  A    between atoms: C_6  and  C_7
REMARK    3  A    between atoms: N_9  and  C_10
REMARK    4  A    between atoms: N_19  and  C_20
REMARK                            x       y       z     vdW  Elec       q    Type
REMARK                         _______ _______ _______ _____ _____    ______ ____
ROOT
ATOM      1  C   UNL     1       3.321   1.609  17.451  0.00  0.00    +0.000 C 
ATOM      2  N   UNL     1       3.055   2.489  18.581  0.00  0.00    +0.000 N 
ATOM      3  C   UNL     1       1.789   2.385  19.167  0.00  0.00    +0.000 C 
ATOM      4  O   UNL     1       0.864   1.755  18.648  0.00  0.00    +0.000 OA
ATOM      5  C   UNL     1       1.565   3.012  20.528  0.00  0.00    +0.000 C 
ATOM      6  C   UNL     1       2.331   4.288  20.781  0.00  0.00    +0.000 C 
ATOM      7  S   UNL     1       4.058   3.928  20.567  0.00  0.00    +0.000 S 
ATOM      8  C   UNL     1       4.027   3.447  18.884  0.00  0.00    +0.000 C 
ATOM      9  N   UNL     1       4.833   3.880  17.960  0.00  0.00    +0.000 NA
ENDROOT
BRANCH   9  10
ATOM     10  C   UNL     1       5.795   4.900  18.126  0.00  0.00    +0.000 A 
ATOM     11  C   UNL     1       6.864   4.682  19.032  0.00  0.00    +0.000 A 
ATOM     12  C   UNL     1       7.861   5.652  19.254  0.00  0.00    +0.000 A 
ATOM     13  C   UNL     1       7.781   6.821  18.530  0.00  0.00    +0.000 A 
ATOM     14  C   UNL     1       6.747   7.047  17.662  0.00  0.00    +0.000 A 
ATOM     15  C   UNL     1       5.726   6.142  17.490  0.00  0.00    +0.000 A 
ATOM     16  O   UNL     1       6.841   8.240  17.019  0.00  0.00    +0.000 OA
ATOM     17  C   UNL     1       8.026   8.777  17.634  0.00  0.00    +0.000 C 
ATOM     18  O   UNL     1       8.644   7.871  18.577  0.00  0.00    +0.000 OA
ENDBRANCH   9  10
BRANCH   6  19
ATOM     19  C   UNL     1       1.880   5.432  19.884  0.00  0.00    +0.000 C 
ATOM     20  O   UNL     1       1.096   5.207  18.959  0.00  0.00    +0.000 OA
ATOM     21  N   UNL     1       2.372   6.677  20.239  0.00  0.00    +0.000 N 
ATOM     22  H   UNL     1       3.213   6.716  20.808  0.00  0.00    +0.000 HD
BRANCH  21  23
ATOM     23  C   UNL     1       1.930   7.907  19.696  0.00  0.00    +0.000 A 
ATOM     24  C   UNL     1       2.231   8.307  18.393  0.00  0.00    +0.000 A 
ATOM     25  C   UNL     1       1.769   9.525  17.888  0.00  0.00    +0.000 A 
ATOM     26  C   UNL     1       0.989  10.358  18.684  0.00  0.00    +0.000 A 
ATOM     27  C   UNL     1       0.666   9.961  19.986  0.00  0.00    +0.000 A 
ATOM     28  C   UNL     1       1.131   8.752  20.477  0.00  0.00    +0.000 A 
ATOM     29  F   UNL     1       0.803   8.384  21.731  0.00  0.00    +0.000 F 
ENDBRANCH  21  23
ENDBRANCH   6  19
TORSDOF 3
ENDMDL
MODEL 3
REMARK VINA RESULT:      -7.3      1.103      1.812
REMARK  Name = 
REMARK  4 active torsions:
REMARK  status: ('A' for Active; 'I' for Inactive)
REMARK    1  A    between atoms: C_1  and  N_2
REMARK    2  A    between atoms: C_6  and  C_7
REMARK    3  A    between atoms: N_9  and  C_10
REMARK    4  A    between atoms: N_19  and  C_20
REMARK                            x       y       z     vdW  Elec       q    Type
REMARK                         _______ _______ _______ _____ _____    ______ ____
ROOT
ATOM      1  C   UNL     1       3.006   1.730  17.284  0.00  0.00    +0.000 C 
ATOM      2  N   UNL     1       2.826   2.538  18.483  0.00  0.00    +0.000 N 
ATOM      3  C   UNL     1       1.592   2.424  19.133  0.00  0.00    +0.000 C 
ATOM      4  O   UNL     1       0.623   1.852  18.626  0.00  0.00    +0.000 OA
ATOM      5  C   UNL     1       1.460   2.961  20.543  0.00  0.00    +0.000 C 
ATOM      6  C   UNL     1       2.273   4.199  20.836  0.00  0.00    +0.000 C 
ATOM      7  S   UNL     1       3.975   3.814  20.501  0.00  0.00    +0.000 S 
ATOM      8  C   UNL     1       3.839   3.449  18.794  0.00  0.00    +0.000 C 
ATOM      9  N   UNL     1       4.605   3.925  17.857  0.00  0.00    +0.000 NA
ENDROOT
BRANCH   9  10
ATOM     10  C   UNL     1       5.601   4.909  18.036  0.00  0.00    +0.000 A 
ATOM     11  C   UNL     1       6.660   4.644  18.942  0.00  0.00    +0.000 A 
ATOM     12  C   UNL     1       7.691   5.576  19.175  0.00  0.00    +0.000 A 
ATOM     13  C   UNL     1       7.653   6.755  18.464  0.00  0.00    +0.000 A 
ATOM     14  C   UNL     1       6.630   7.026  17.596  0.00  0.00    +0.000 A 
ATOM     15  C   UNL     1       5.577   6.160  17.413  0.00  0.00    +0.000 A 
ATOM     16  O   UNL     1       6.766   8.222  16.967  0.00  0.00    +0.000 OA
ATOM     17  C   UNL     1       7.969   8.710  17.590  0.00  0.00    +0.000 C 
ATOM     18  O   UNL     1       8.553   7.773  18.524  0.00  0.00    +0.000 OA
ENDBRANCH   9  10
BRANCH   6  19
ATOM     19  C   UNL     1       1.805   5.411  20.044  0.00  0.00    +0.000 C 
ATOM     20  O   UNL     1       1.015   5.260  19.110  0.00  0.00    +0.000 OA
ATOM     21  N   UNL     1       2.290   6.626  20.501  0.00  0.00    +0.000 N 
ATOM     22  H   UNL     1       3.136   6.624  21.064  0.00  0.00    +0.000 HD
BRANCH  21  23
ATOM     23  C   UNL     1       1.833   7.894  20.069  0.00  0.00    +0.000 A 
ATOM     24  C   UNL     1       1.113   8.757  20.897  0.00  0.00    +0.000 A 
ATOM     25  C   UNL     1       0.685  10.006  20.439  0.00  0.00    +0.000 A 
ATOM     26  C   UNL     1       0.981  10.410  19.141  0.00  0.00    +0.000 A 
ATOM     27  C   UNL     1       1.716   9.561  18.306  0.00  0.00    +0.000 A 
ATOM     28  C   UNL     1       2.134   8.325  18.770  0.00  0.00    +0.000 A 
ATOM     29  F   UNL     1       2.847   7.525  17.954  0.00  0.00    +0.000 F 
ENDBRANCH  21  23
ENDBRANCH   6  19
TORSDOF 3
ENDMDL
MODEL 4
REMARK VINA RESULT:      -7.3      0.853      1.246
REMARK  Name = 
REMARK  4 active torsions:
REMARK  status: ('A' for Active; 'I' for Inactive)
REMARK    1  A    between atoms: C_1  and  N_2
REMARK    2  A    between atoms: C_6  and  C_7
REMARK    3  A    between atoms: N_9  and  C_10
REMARK    4  A    between atoms: N_19  and  C_20
REMARK                            x       y       z     vdW  Elec       q    Type
REMARK                         _______ _______ _______ _____ _____    ______ ____
ROOT
ATOM      1  C   UNL     1       2.540   1.637  17.487  0.00  0.00    +0.000 C 
ATOM      2  N   UNL     1       2.621   2.447  18.696  0.00  0.00    +0.000 N 
ATOM      3  C   UNL     1       1.625   2.236  19.655  0.00  0.00    +0.000 C 
ATOM      4  O   UNL     1       0.610   1.572  19.427  0.00  0.00    +0.000 OA
ATOM      5  C   UNL     1       1.833   2.785  21.052  0.00  0.00    +0.000 C 
ATOM      6  C   UNL     1       2.581   4.094  21.121  0.00  0.00    +0.000 C 
ATOM      7  S   UNL     1       4.155   3.855  20.334  0.00  0.00    +0.000 S 
ATOM      8  C   UNL     1       3.594   3.449  18.725  0.00  0.00    +0.000 C 
ATOM      9  N   UNL     1       4.032   3.974  17.619  0.00  0.00    +0.000 NA
ENDROOT
BRANCH   9  10
ATOM     10  C   UNL     1       4.947   5.045  17.527  0.00  0.00    +0.000 A 
ATOM     11  C   UNL     1       4.742   6.026  16.524  0.00  0.00    +0.000 A 
ATOM     12  C   UNL     1       5.612   7.124  16.367  0.00  0.00    +0.000 A 
ATOM     13  C   UNL     1       6.664   7.231  17.250  0.00  0.00    +0.000 A 
ATOM     14  C   UNL     1       6.878   6.282  18.215  0.00  0.00    +0.000 A 
ATOM     15  C   UNL     1       6.082   5.167  18.333  0.00  0.00    +0.000 A 
ATOM     16  O   UNL     1       7.945   6.560  19.007  0.00  0.00    +0.000 OA
ATOM     17  C   UNL     1       8.425   7.767  18.388  0.00  0.00    +0.000 C 
ATOM     18  O   UNL     1       7.602   8.214  17.287  0.00  0.00    +0.000 OA
ENDBRANCH   9  10
BRANCH   6  19
ATOM     19  C   UNL     1       1.809   5.247  20.495  0.00  0.00    +0.000 C 
ATOM     20  O   UNL     1       0.637   5.078  20.150  0.00  0.00    +0.000 OA
ATOM     21  N   UNL     1       2.508   6.440  20.416  0.00  0.00    +0.000 N 
ATOM     22  H   UNL     1       3.523   6.404  20.449  0.00  0.00    +0.000 HD
BRANCH  21  23
ATOM     23  C   UNL     1       1.939   7.690  20.076  0.00  0.00    +0.000 A 
ATOM     24  C   UNL     1       1.356   8.535  21.023  0.00  0.00    +0.000 A 
ATOM     25  C   UNL     1       0.812   9.767  20.651  0.00  0.00    +0.000 A 
ATOM     26  C   UNL     1       0.853  10.174  19.321  0.00  0.00    +0.000 A 
ATOM     27  C   UNL     1       1.450   9.344  18.365  0.00  0.00    +0.000 A 
ATOM     28  C   UNL     1       1.984   8.123  18.744  0.00  0.00    +0.000 A 
ATOM     29  F   UNL     1       2.561   7.342  17.812  0.00  0.00    +0.000 F 
ENDBRANCH  21  23
ENDBRANCH   6  19
TORSDOF 3
ENDMDL
MODEL 5
REMARK VINA RESULT:      -7.2      2.506      5.246
REMARK  Name = 
REMARK  4 active torsions:
REMARK  status: ('A' for Active; 'I' for Inactive)
REMARK    1  A    between atoms: C_1  and  N_2
REMARK    2  A    between atoms: C_6  and  C_7
REMARK    3  A    between atoms: N_9  and  C_10
REMARK    4  A    between atoms: N_19  and  C_20
REMARK                            x       y       z     vdW  Elec       q    Type
REMARK                         _______ _______ _______ _____ _____    ______ ____
ROOT
ATOM      1  C   UNL     1       3.073   2.964  21.241  0.00  0.00    +0.000 C 
ATOM      2  N   UNL     1       2.959   3.107  19.796  0.00  0.00    +0.000 N 
ATOM      3  C   UNL     1       3.446   2.046  19.024  0.00  0.00    +0.000 C 
ATOM      4  O   UNL     1       4.128   1.134  19.499  0.00  0.00    +0.000 OA
ATOM      5  C   UNL     1       3.060   1.976  17.560  0.00  0.00    +0.000 C 
ATOM      6  C   UNL     1       2.915   3.310  16.871  0.00  0.00    +0.000 C 
ATOM      7  S   UNL     1       1.696   4.245  17.764  0.00  0.00    +0.000 S 
ATOM      8  C   UNL     1       2.508   4.338  19.312  0.00  0.00    +0.000 C 
ATOM      9  N   UNL     1       2.676   5.421  20.013  0.00  0.00    +0.000 NA
ENDROOT
BRANCH   9  10
ATOM     10  C   UNL     1       2.339   6.727  19.595  0.00  0.00    +0.000 A 
ATOM     11  C   UNL     1       2.627   7.104  18.258  0.00  0.00    +0.000 A 
ATOM     12  C   UNL     1       2.323   8.389  17.766  0.00  0.00    +0.000 A 
ATOM     13  C   UNL     1       1.701   9.268  18.627  0.00  0.00    +0.000 A 
ATOM     14  C   UNL     1       1.430   8.917  19.922  0.00  0.00    +0.000 A 
ATOM     15  C   UNL     1       1.788   7.694  20.439  0.00  0.00    +0.000 A 
ATOM     16  O   UNL     1       0.797   9.896  20.619  0.00  0.00    +0.000 OA
ATOM     17  C   UNL     1       0.758  10.939  19.627  0.00  0.00    +0.000 C 
ATOM     18  O   UNL     1       1.307  10.539  18.351  0.00  0.00    +0.000 OA
ENDBRANCH   9  10
BRANCH   6  19
ATOM     19  C   UNL     1       4.233   4.063  16.762  0.00  0.00    +0.000 C 
ATOM     20  O   UNL     1       4.755   4.221  15.657  0.00  0.00    +0.000 OA
ATOM     21  N   UNL     1       4.715   4.565  17.960  0.00  0.00    +0.000 N 
ATOM     22  H   UNL     1       4.385   4.145  18.824  0.00  0.00    +0.000 HD
BRANCH  21  23
ATOM     23  C   UNL     1       5.795   5.472  18.081  0.00  0.00    +0.000 A 
ATOM     24  C   UNL     1       6.854   5.267  18.968  0.00  0.00    +0.000 A 
ATOM     25  C   UNL     1       7.909   6.180  19.053  0.00  0.00    +0.000 A 
ATOM     26  C   UNL     1       7.919   7.310  18.242  0.00  0.00    +0.000 A 
ATOM     27  C   UNL     1       6.872   7.519  17.338  0.00  0.00    +0.000 A 
ATOM     28  C   UNL     1       5.831   6.608  17.263  0.00  0.00    +0.000 A 
ATOM     29  F   UNL     1       4.836   6.821  16.380  0.00  0.00    +0.000 F 
ENDBRANCH  21  23
ENDBRANCH   6  19
TORSDOF 3
ENDMDL
MODEL 6
REMARK VINA RESULT:      -7.1      2.530      5.247
REMARK  Name = 
REMARK  4 active torsions:
REMARK  status: ('A' for Active; 'I' for Inactive)
REMARK    1  A    between atoms: C_1  and  N_2
REMARK    2  A    between atoms: C_6  and  C_7
REMARK    3  A    between atoms: N_9  and  C_10
REMARK    4  A    between atoms: N_19  and  C_20
REMARK                            x       y       z     vdW  Elec       q    Type
REMARK                         _______ _______ _______ _____ _____    ______ ____
ROOT
ATOM      1  C   UNL     1       3.150   3.116  21.246  0.00  0.00    +0.000 C 
ATOM      2  N   UNL     1       2.998   3.238  19.803  0.00  0.00    +0.000 N 
ATOM      3  C   UNL     1       3.469   2.169  19.033  0.00  0.00    +0.000 C 
ATOM      4  O   UNL     1       4.169   1.268  19.503  0.00  0.00    +0.000 OA
ATOM      5  C   UNL     1       3.046   2.076  17.581  0.00  0.00    +0.000 C 
ATOM      6  C   UNL     1       2.875   3.400  16.877  0.00  0.00    +0.000 C 
ATOM      7  S   UNL     1       1.675   4.341  17.790  0.00  0.00    +0.000 S 
ATOM      8  C   UNL     1       2.527   4.460  19.315  0.00  0.00    +0.000 C 
ATOM      9  N   UNL     1       2.707   5.553  19.995  0.00  0.00    +0.000 NA
ENDROOT
BRANCH   9  10
ATOM     10  C   UNL     1       2.352   6.851  19.568  0.00  0.00    +0.000 A 
ATOM     11  C   UNL     1       2.747   7.268  18.271  0.00  0.00    +0.000 A 
ATOM     12  C   UNL     1       2.432   8.548  17.773  0.00  0.00    +0.000 A 
ATOM     13  C   UNL     1       1.694   9.381  18.585  0.00  0.00    +0.000 A 
ATOM     14  C   UNL     1       1.318   8.993  19.843  0.00  0.00    +0.000 A 
ATOM     15  C   UNL     1       1.681   7.776  20.372  0.00  0.00    +0.000 A 
ATOM     16  O   UNL     1       0.579   9.929  20.492  0.00  0.00    +0.000 OA
ATOM     17  C   UNL     1       0.585  10.989  19.518  0.00  0.00    +0.000 C 
ATOM     18  O   UNL     1       1.270  10.640  18.294  0.00  0.00    +0.000 OA
ENDBRANCH   9  10
BRANCH   6  19
ATOM     19  C   UNL     1       4.185   4.158  16.724  0.00  0.00    +0.000 C 
ATOM     20  O   UNL     1       4.652   4.346  15.598  0.00  0.00    +0.000 OA
ATOM     21  N   UNL     1       4.726   4.630  17.909  0.00  0.00    +0.000 N 
ATOM     22  H   UNL     1       4.439   4.187  18.777  0.00  0.00    +0.000 HD
BRANCH  21  23
ATOM     23  C   UNL     1       5.810   5.535  18.000  0.00  0.00    +0.000 A 
ATOM     24  C   UNL     1       5.980   6.599  17.111  0.00  0.00    +0.000 A 
ATOM     25  C   UNL     1       7.058   7.478  17.238  0.00  0.00    +0.000 A 
ATOM     26  C   UNL     1       7.980   7.307  18.266  0.00  0.00    +0.000 A 
ATOM     27  C   UNL     1       7.812   6.255  19.174  0.00  0.00    +0.000 A 
ATOM     28  C   UNL     1       6.740   5.388  19.038  0.00  0.00    +0.000 A 
ATOM     29  F   UNL     1       6.590   4.386  19.925  0.00  0.00    +0.000 F 
ENDBRANCH  21  23
ENDBRANCH   6  19
TORSDOF 3
ENDMDL
MODEL 7
REMARK VINA RESULT:      -6.9      2.531      5.133
REMARK  Name = 
REMARK  4 active torsions:
REMARK  status: ('A' for Active; 'I' for Inactive)
REMARK    1  A    between atoms: C_1  and  N_2
REMARK    2  A    between atoms: C_6  and  C_7
REMARK    3  A    between atoms: N_9  and  C_10
REMARK    4  A    between atoms: N_19  and  C_20
REMARK                            x       y       z     vdW  Elec       q    Type
REMARK                         _______ _______ _______ _____ _____    ______ ____
ROOT
ATOM      1  C   UNL     1       3.277   2.588  21.213  0.00  0.00    +0.000 C 
ATOM      2  N   UNL     1       3.066   2.835  19.793  0.00  0.00    +0.000 N 
ATOM      3  C   UNL     1       3.524   1.849  18.913  0.00  0.00    +0.000 C 
ATOM      4  O   UNL     1       4.257   0.923  19.273  0.00  0.00    +0.000 OA
ATOM      5  C   UNL     1       3.046   1.878  17.476  0.00  0.00    +0.000 C 
ATOM      6  C   UNL     1       2.826   3.256  16.901  0.00  0.00    +0.000 C 
ATOM      7  S   UNL     1       1.648   4.088  17.939  0.00  0.00    +0.000 S 
ATOM      8  C   UNL     1       2.557   4.087  19.435  0.00  0.00    +0.000 C 
ATOM      9  N   UNL     1       2.745   5.118  20.204  0.00  0.00    +0.000 NA
ENDROOT
BRANCH   9  10
ATOM     10  C   UNL     1       2.353   6.442  19.909  0.00  0.00    +0.000 A 
ATOM     11  C   UNL     1       1.671   7.183  20.907  0.00  0.00    +0.000 A 
ATOM     12  C   UNL     1       1.246   8.509  20.689  0.00  0.00    +0.000 A 
ATOM     13  C   UNL     1       1.545   9.079  19.471  0.00  0.00    +0.000 A 
ATOM     14  C   UNL     1       2.192   8.368  18.496  0.00  0.00    +0.000 A 
ATOM     15  C   UNL     1       2.548   7.050  18.667  0.00  0.00    +0.000 A 
ATOM     16  O   UNL     1       2.424   9.092  17.372  0.00  0.00    +0.000 OA
ATOM     17  C   UNL     1       1.785  10.334  17.724  0.00  0.00    +0.000 C 
ATOM     18  O   UNL     1       1.246  10.342  19.066  0.00  0.00    +0.000 OA
ENDBRANCH   9  10
BRANCH   6  19
ATOM     19  C   UNL     1       4.117   4.051  16.767  0.00  0.00    +0.000 C 
ATOM     20  O   UNL     1       4.578   4.279  15.647  0.00  0.00    +0.000 OA
ATOM     21  N   UNL     1       4.646   4.505  17.965  0.00  0.00    +0.000 N 
ATOM     22  H   UNL     1       4.371   4.032  18.821  0.00  0.00    +0.000 HD
BRANCH  21  23
ATOM     23  C   UNL     1       5.707   5.434  18.079  0.00  0.00    +0.000 A 
ATOM     24  C   UNL     1       6.806   5.223  18.915  0.00  0.00    +0.000 A 
ATOM     25  C   UNL     1       7.840   6.160  18.995  0.00  0.00    +0.000 A 
ATOM     26  C   UNL     1       7.789   7.321  18.231  0.00  0.00    +0.000 A 
ATOM     27  C   UNL     1       6.702   7.537  17.377  0.00  0.00    +0.000 A 
ATOM     28  C   UNL     1       5.681   6.602  17.306  0.00  0.00    +0.000 A 
ATOM     29  F   UNL     1       4.646   6.823  16.473  0.00  0.00    +0.000 F 
ENDBRANCH  21  23
ENDBRANCH   6  19
TORSDOF 3
ENDMDL
MODEL 8
REMARK VINA RESULT:      -6.9      7.856     11.282
REMARK  Name = 
REMARK  4 active torsions:
REMARK  status: ('A' for Active; 'I' for Inactive)
REMARK    1  A    between atoms: C_1  and  N_2
REMARK    2  A    between atoms: C_6  and  C_7
REMARK    3  A    between atoms: N_9  and  C_10
REMARK    4  A    between atoms: N_19  and  C_20
REMARK                            x       y       z     vdW  Elec       q    Type
REMARK                         _______ _______ _______ _____ _____    ______ ____
ROOT
ATOM      1  C   UNL     1       0.084  15.966  21.942  0.00  0.00    +0.000 C 
ATOM      2  N   UNL     1       0.084  14.547  21.613  0.00  0.00    +0.000 N 
ATOM      3  C   UNL     1       1.195  14.070  20.909  0.00  0.00    +0.000 C 
ATOM      4  O   UNL     1       2.032  14.820  20.398  0.00  0.00    +0.000 OA
ATOM      5  C   UNL     1       1.419  12.574  20.832  0.00  0.00    +0.000 C 
ATOM      6  C   UNL     1       0.163  11.740  20.769  0.00  0.00    +0.000 C 
ATOM      7  S   UNL     1      -0.808  12.124  22.206  0.00  0.00    +0.000 S 
ATOM      8  C   UNL     1      -1.078  13.827  21.903  0.00  0.00    +0.000 C 
ATOM      9  N   UNL     1      -2.228  14.431  21.962  0.00  0.00    +0.000 NA
ENDROOT
BRANCH   9  10
ATOM     10  C   UNL     1      -3.475  13.800  22.164  0.00  0.00    +0.000 A 
ATOM     11  C   UNL     1      -3.984  13.713  23.484  0.00  0.00    +0.000 A 
ATOM     12  C   UNL     1      -5.219  13.097  23.767  0.00  0.00    +0.000 A 
ATOM     13  C   UNL     1      -5.940  12.603  22.702  0.00  0.00    +0.000 A 
ATOM     14  C   UNL     1      -5.452  12.671  21.424  0.00  0.00    +0.000 A 
ATOM     15  C   UNL     1      -4.216  13.202  21.141  0.00  0.00    +0.000 A 
ATOM     16  O   UNL     1      -6.304  12.156  20.501  0.00  0.00    +0.000 OA
ATOM     17  C   UNL     1      -7.366  11.691  21.353  0.00  0.00    +0.000 C 
ATOM     18  O   UNL     1      -7.155  11.994  22.751  0.00  0.00    +0.000 OA
ENDBRANCH   9  10
BRANCH   6  19
ATOM     19  C   UNL     1      -0.624  11.957  19.484  0.00  0.00    +0.000 C 
ATOM     20  O   UNL     1      -0.248  12.811  18.677  0.00  0.00    +0.000 OA
ATOM     21  N   UNL     1      -1.703  11.106  19.312  0.00  0.00    +0.000 N 
ATOM     22  H   UNL     1      -2.096  10.657  20.135  0.00  0.00    +0.000 HD
BRANCH  21  23
ATOM     23  C   UNL     1      -2.446  10.973  18.115  0.00  0.00    +0.000 A 
ATOM     24  C   UNL     1      -3.648  11.648  17.896  0.00  0.00    +0.000 A 
ATOM     25  C   UNL     1      -4.350  11.499  16.697  0.00  0.00    +0.000 A 
ATOM     26  C   UNL     1      -3.850  10.673  15.695  0.00  0.00    +0.000 A 
ATOM     27  C   UNL     1      -2.638  10.003  15.896  0.00  0.00    +0.000 A 
ATOM     28  C   UNL     1      -1.951  10.157  17.089  0.00  0.00    +0.000 A 
ATOM     29  F   UNL     1      -0.782   9.511  17.261  0.00  0.00    +0.000 F 
ENDBRANCH  21  23
ENDBRANCH   6  19
TORSDOF 3
ENDMDL
MODEL 9
REMARK VINA RESULT:      -6.8      8.272     11.346
REMARK  Name = 
REMARK  4 active torsions:
REMARK  status: ('A' for Active; 'I' for Inactive)
REMARK    1  A    between atoms: C_1  and  N_2
REMARK    2  A    between atoms: C_6  and  C_7
REMARK    3  A    between atoms: N_9  and  C_10
REMARK    4  A    between atoms: N_19  and  C_20
REMARK                            x       y       z     vdW  Elec       q    Type
REMARK                         _______ _______ _______ _____ _____    ______ ____
ROOT
ATOM      1  C   UNL     1      -7.745  10.400  21.244  0.00  0.00    +0.000 C 
ATOM      2  N   UNL     1      -6.929  11.183  20.326  0.00  0.00    +0.000 N 
ATOM      3  C   UNL     1      -6.862  10.726  19.006  0.00  0.00    +0.000 C 
ATOM      4  O   UNL     1      -7.278   9.616  18.663  0.00  0.00    +0.000 OA
ATOM      5  C   UNL     1      -6.321  11.659  17.941  0.00  0.00    +0.000 C 
ATOM      6  C   UNL     1      -5.222  12.586  18.398  0.00  0.00    +0.000 C 
ATOM      7  S   UNL     1      -5.855  13.538  19.758  0.00  0.00    +0.000 S 
ATOM      8  C   UNL     1      -6.182  12.229  20.875  0.00  0.00    +0.000 C 
ATOM      9  N   UNL     1      -5.818  12.194  22.123  0.00  0.00    +0.000 NA
ENDROOT
BRANCH   9  10
ATOM     10  C   UNL     1      -4.996  13.146  22.763  0.00  0.00    +0.000 A 
ATOM     11  C   UNL     1      -5.597  14.326  23.272  0.00  0.00    +0.000 A 
ATOM     12  C   UNL     1      -4.844  15.324  23.922  0.00  0.00    +0.000 A 
ATOM     13  C   UNL     1      -3.494  15.100  24.078  0.00  0.00    +0.000 A 
ATOM     14  C   UNL     1      -2.902  13.970  23.580  0.00  0.00    +0.000 A 
ATOM     15  C   UNL     1      -3.609  13.022  22.877  0.00  0.00    +0.000 A 
ATOM     16  O   UNL     1      -1.571  13.905  23.843  0.00  0.00    +0.000 OA
ATOM     17  C   UNL     1      -1.374  15.164  24.512  0.00  0.00    +0.000 C 
ATOM     18  O   UNL     1      -2.596  15.918  24.687  0.00  0.00    +0.000 OA
ENDBRANCH   9  10
BRANCH   6  19
ATOM     19  C   UNL     1      -3.947  11.846  18.775  0.00  0.00    +0.000 C 
ATOM     20  O   UNL     1      -3.807  10.666  18.444  0.00  0.00    +0.000 OA
ATOM     21  N   UNL     1      -3.003  12.614  19.438  0.00  0.00    +0.000 N 
ATOM     22  H   UNL     1      -3.317  13.456  19.912  0.00  0.00    +0.000 HD
BRANCH  21  23
ATOM     23  C   UNL     1      -1.671  12.213  19.697  0.00  0.00    +0.000 A 
ATOM     24  C   UNL     1      -1.288  11.595  20.889  0.00  0.00    +0.000 A 
ATOM     25  C   UNL     1       0.036  11.205  21.106  0.00  0.00    +0.000 A 
ATOM     26  C   UNL     1       0.996  11.423  20.123  0.00  0.00    +0.000 A 
ATOM     27  C   UNL     1       0.622  12.026  18.917  0.00  0.00    +0.000 A 
ATOM     28  C   UNL     1      -0.693  12.411  18.713  0.00  0.00    +0.000 A 
ATOM     29  F   UNL     1      -1.035  12.983  17.543  0.00  0.00    +0.000 F 
ENDBRANCH  21  23
ENDBRANCH   6  19
TORSDOF 3
ENDMDL
