MODEL 1
REMARK VINA RESULT:      -7.9      0.000      0.000
REMARK  Name = 
REMARK  8 active torsions:
REMARK  status: ('A' for Active; 'I' for Inactive)
REMARK    1  A    between atoms: C_1  and  C_2
REMARK    2  A    between atoms: C_2  and  C_3
REMARK    3  A    between atoms: C_2  and  C_4
REMARK    4  A    between atoms: C_6  and  S_7
REMARK    5  A    between atoms: S_7  and  C_9
REMARK    6  A    between atoms: C_13  and  C_14
REMARK    7  A    between atoms: C_14  and  C_15
REMARK    8  A    between atoms: C_15  and  O_17
REMARK                            x       y       z     vdW  Elec       q    Type
REMARK                         _______ _______ _______ _____ _____    ______ ____
ROOT
ATOM      1  S   UNL     1       5.960   3.973  17.305  0.00  0.00    +0.000 S 
ATOM      2  O   UNL     1       7.113   4.391  18.288  0.00  0.00    +0.000 OA
ENDROOT
BRANCH   1   5
ATOM      3  C   UNL     1       6.286   3.961  13.235  0.00  0.00    +0.000 A 
ATOM      4  C   UNL     1       5.886   3.689  14.487  0.00  0.00    +0.000 A 
ATOM      5  C   UNL     1       6.563   4.370  15.620  0.00  0.00    +0.000 A 
ATOM      6  N   UNL     1       7.503   5.255  15.480  0.00  0.00    +0.000 NA
ATOM      7  N   UNL     1       7.897   5.520  14.201  0.00  0.00    +0.000 N 
ATOM      8  C   UNL     1       7.401   4.943  13.055  0.00  0.00    +0.000 A 
ATOM      9  O   UNL     1       7.847   5.228  11.951  0.00  0.00    +0.000 OA
ATOM     10  H   UNL     1       8.645   6.195  14.081  0.00  0.00    +0.000 HD
BRANCH   3  12
ATOM     11  C   UNL     1       6.203   1.934  11.764  0.00  0.00    +0.000 C 
ATOM     12  C   UNL     1       5.697   3.364  11.966  0.00  0.00    +0.000 C 
ATOM     13  C   UNL     1       4.165   3.396  11.908  0.00  0.00    +0.000 C 
ENDBRANCH   3  12
ENDBRANCH   1   5
BRANCH   1  14
ATOM     14  C   UNL     1       4.618   5.185  17.433  0.00  0.00    +0.000 A 
ATOM     15  C   UNL     1       3.294   4.723  17.557  0.00  0.00    +0.000 A 
ATOM     16 CL   UNL     1       2.901   3.033  17.553  0.00  0.00    +0.000 Cl
ATOM     17  C   UNL     1       2.214   5.613  17.699  0.00  0.00    +0.000 A 
ATOM     18  C   UNL     1       2.420   6.994  17.759  0.00  0.00    +0.000 A 
ATOM     19  C   UNL     1       3.737   7.457  17.615  0.00  0.00    +0.000 A 
ATOM     20  C   UNL     1       4.822   6.572  17.459  0.00  0.00    +0.000 A 
ATOM     21 CL   UNL     1       6.378   7.309  17.282  0.00  0.00    +0.000 Cl
BRANCH  18  22
ATOM     22  C   UNL     1       1.288   8.002  17.867  0.00  0.00    +0.000 C 
BRANCH  22  23
ATOM     23  C   UNL     1       1.607   9.381  18.412  0.00  0.00    +0.000 C 
ATOM     24  O   UNL     1       1.528   9.740  19.576  0.00  0.00    +0.000 OA
BRANCH  23  25
ATOM     25  O   UNL     1       2.009  10.238  17.437  0.00  0.00    +0.000 OA
ATOM     26  H   UNL     1       2.975  10.337  17.346  0.00  0.00    +0.000 HD
ENDBRANCH  23  25
ENDBRANCH  22  23
ENDBRANCH  18  22
ENDBRANCH   1  14
TORSDOF 6
ENDMDL
MODEL 2
REMARK VINA RESULT:      -7.5      0.775      1.205
REMARK  Name = 
REMARK  8 active torsions:
REMARK  status: ('A' for Active; 'I' for Inactive)
REMARK    1  A    between atoms: C_1  and  C_2
REMARK    2  A    between atoms: C_2  and  C_3
REMARK    3  A    between atoms: C_2  and  C_4
REMARK    4  A    between atoms: C_6  and  S_7
REMARK    5  A    between atoms: S_7  and  C_9
REMARK    6  A    between atoms: C_13  and  C_14
REMARK    7  A    between atoms: C_14  and  C_15
REMARK    8  A    between atoms: C_15  and  O_17
REMARK                            x       y       z     vdW  Elec       q    Type
REMARK                         _______ _______ _______ _____ _____    ______ ____
ROOT
ATOM      1  S   UNL     1       6.383   4.175  17.377  0.00  0.00    +0.000 S 
ATOM      2  O   UNL     1       7.663   4.704  18.120  0.00  0.00    +0.000 OA
ENDROOT
BRANCH   1   5
ATOM      3  C   UNL     1       6.165   3.615  13.337  0.00  0.00    +0.000 A 
ATOM      4  C   UNL     1       5.958   3.496  14.659  0.00  0.00    +0.000 A 
ATOM      5  C   UNL     1       6.722   4.370  15.586  0.00  0.00    +0.000 A 
ATOM      6  N   UNL     1       7.558   5.285  15.200  0.00  0.00    +0.000 NA
ATOM      7  N   UNL     1       7.755   5.393  13.854  0.00  0.00    +0.000 N 
ATOM      8  C   UNL     1       7.161   4.632  12.875  0.00  0.00    +0.000 A 
ATOM      9  O   UNL     1       7.431   4.788  11.691  0.00  0.00    +0.000 OA
ATOM     10  H   UNL     1       8.422   6.092  13.542  0.00  0.00    +0.000 HD
BRANCH   3  12
ATOM     11  C   UNL     1       4.488   3.698  11.478  0.00  0.00    +0.000 C 
ATOM     12  C   UNL     1       5.464   2.811  12.254  0.00  0.00    +0.000 C 
ATOM     13  C   UNL     1       6.414   2.096  11.286  0.00  0.00    +0.000 C 
ENDBRANCH   3  12
ENDBRANCH   1   5
BRANCH   1  14
ATOM     14  C   UNL     1       5.055   5.395  17.562  0.00  0.00    +0.000 A 
ATOM     15  C   UNL     1       3.735   4.941  17.738  0.00  0.00    +0.000 A 
ATOM     16 CL   UNL     1       3.329   3.255  17.743  0.00  0.00    +0.000 Cl
ATOM     17  C   UNL     1       2.667   5.839  17.926  0.00  0.00    +0.000 A 
ATOM     18  C   UNL     1       2.885   7.218  17.982  0.00  0.00    +0.000 A 
ATOM     19  C   UNL     1       4.198   7.673  17.788  0.00  0.00    +0.000 A 
ATOM     20  C   UNL     1       5.270   6.781  17.585  0.00  0.00    +0.000 A 
ATOM     21 CL   UNL     1       6.823   7.508  17.349  0.00  0.00    +0.000 Cl
BRANCH  18  22
ATOM     22  C   UNL     1       1.765   8.233  18.139  0.00  0.00    +0.000 C 
BRANCH  22  23
ATOM     23  C   UNL     1       1.466   8.760  19.530  0.00  0.00    +0.000 C 
ATOM     24  O   UNL     1       0.881   9.795  19.805  0.00  0.00    +0.000 OA
BRANCH  23  25
ATOM     25  O   UNL     1       1.935   7.936  20.503  0.00  0.00    +0.000 OA
ATOM     26  H   UNL     1       2.885   8.033  20.703  0.00  0.00    +0.000 HD
ENDBRANCH  23  25
ENDBRANCH  22  23
ENDBRANCH  18  22
ENDBRANCH   1  14
TORSDOF 6
ENDMDL
MODEL 3
REMARK VINA RESULT:      -7.5      0.619      1.993
REMARK  Name = 
REMARK  8 active torsions:
REMARK  status: ('A' for Active; 'I' for Inactive)
REMARK    1  A    between atoms: C_1  and  C_2
REMARK    2  A    between atoms: C_2  and  C_3
REMARK    3  A    between atoms: C_2  and  C_4
REMARK    4  A    between atoms: C_6  and  S_7
REMARK    5  A    between atoms: S_7  and  C_9
REMARK    6  A    between atoms: C_13  and  C_14
REMARK    7  A    between atoms: C_14  and  C_15
REMARK    8  A    between atoms: C_15  and  O_17
REMARK                            x       y       z     vdW  Elec       q    Type
REMARK                         _______ _______ _______ _____ _____    ______ ____
ROOT
ATOM      1  S   UNL     1       6.254   3.980  17.174  0.00  0.00    +0.000 S 
ATOM      2  O   UNL     1       7.493   4.372  18.057  0.00  0.00    +0.000 OA
ENDROOT
BRANCH   1   5
ATOM      3  C   UNL     1       6.281   3.923  13.091  0.00  0.00    +0.000 A 
ATOM      4  C   UNL     1       5.980   3.658  14.372  0.00  0.00    +0.000 A 
ATOM      5  C   UNL     1       6.722   4.369  15.444  0.00  0.00    +0.000 A 
ATOM      6  N   UNL     1       7.627   5.274  15.227  0.00  0.00    +0.000 NA
ATOM      7  N   UNL     1       7.920   5.532  13.919  0.00  0.00    +0.000 N 
ATOM      8  C   UNL     1       7.356   4.929  12.819  0.00  0.00    +0.000 A 
ATOM      9  O   UNL     1       7.712   5.211  11.682  0.00  0.00    +0.000 OA
ATOM     10  H   UNL     1       8.641   6.223  13.737  0.00  0.00    +0.000 HD
BRANCH   3  12
ATOM     11  C   UNL     1       6.062   1.842  11.713  0.00  0.00    +0.000 C 
ATOM     12  C   UNL     1       5.616   3.297  11.876  0.00  0.00    +0.000 C 
ATOM     13  C   UNL     1       4.085   3.383  11.882  0.00  0.00    +0.000 C 
ENDBRANCH   3  12
ENDBRANCH   1   5
BRANCH   1  14
ATOM     14  C   UNL     1       4.952   5.217  17.415  0.00  0.00    +0.000 A 
ATOM     15  C   UNL     1       5.312   6.575  17.503  0.00  0.00    +0.000 A 
ATOM     16 CL   UNL     1       6.964   7.100  17.428  0.00  0.00    +0.000 Cl
ATOM     17  C   UNL     1       4.344   7.585  17.651  0.00  0.00    +0.000 A 
ATOM     18  C   UNL     1       2.981   7.280  17.679  0.00  0.00    +0.000 A 
ATOM     19  C   UNL     1       2.621   5.925  17.612  0.00  0.00    +0.000 A 
ATOM     20  C   UNL     1       3.585   4.907  17.477  0.00  0.00    +0.000 A 
ATOM     21 CL   UNL     1       2.972   3.289  17.421  0.00  0.00    +0.000 Cl
BRANCH  18  22
ATOM     22  C   UNL     1       1.897   8.325  17.882  0.00  0.00    +0.000 C 
BRANCH  22  23
ATOM     23  C   UNL     1       1.585   8.768  19.299  0.00  0.00    +0.000 C 
ATOM     24  O   UNL     1       1.693   8.095  20.312  0.00  0.00    +0.000 OA
BRANCH  23  25
ATOM     25  O   UNL     1       1.143  10.051  19.351  0.00  0.00    +0.000 OA
ATOM     26  H   UNL     1       0.388  10.205  19.949  0.00  0.00    +0.000 HD
ENDBRANCH  23  25
ENDBRANCH  22  23
ENDBRANCH  18  22
ENDBRANCH   1  14
TORSDOF 6
ENDMDL
MODEL 4
REMARK VINA RESULT:      -7.3      0.394      2.040
REMARK  Name = 
REMARK  8 active torsions:
REMARK  status: ('A' for Active; 'I' for Inactive)
REMARK    1  A    between atoms: C_1  and  C_2
REMARK    2  A    between atoms: C_2  and  C_3
REMARK    3  A    between atoms: C_2  and  C_4
REMARK    4  A    between atoms: C_6  and  S_7
REMARK    5  A    between atoms: S_7  and  C_9
REMARK    6  A    between atoms: C_13  and  C_14
REMARK    7  A    between atoms: C_14  and  C_15
REMARK    8  A    between atoms: C_15  and  O_17
REMARK                            x       y       z     vdW  Elec       q    Type
REMARK                         _______ _______ _______ _____ _____    ______ ____
ROOT
ATOM      1  S   UNL     1       6.301   4.278  17.607  0.00  0.00    +0.000 S 
ATOM      2  O   UNL     1       7.481   4.960  18.391  0.00  0.00    +0.000 OA
ENDROOT
BRANCH   1   5
ATOM      3  C   UNL     1       6.209   3.721  13.563  0.00  0.00    +0.000 A 
ATOM      4  C   UNL     1       5.961   3.602  14.877  0.00  0.00    +0.000 A 
ATOM      5  C   UNL     1       6.696   4.474  15.828  0.00  0.00    +0.000 A 
ATOM      6  N   UNL     1       7.545   5.388  15.469  0.00  0.00    +0.000 NA
ATOM      7  N   UNL     1       7.784   5.497  14.129  0.00  0.00    +0.000 N 
ATOM      8  C   UNL     1       7.220   4.737  13.132  0.00  0.00    +0.000 A 
ATOM      9  O   UNL     1       7.527   4.894  11.957  0.00  0.00    +0.000 OA
ATOM     10  H   UNL     1       8.462   6.195  13.839  0.00  0.00    +0.000 HD
BRANCH   3  12
ATOM     11  C   UNL     1       4.570   3.800  11.669  0.00  0.00    +0.000 C 
ATOM     12  C   UNL     1       5.541   2.919  12.458  0.00  0.00    +0.000 C 
ATOM     13  C   UNL     1       6.520   2.226  11.502  0.00  0.00    +0.000 C 
ENDBRANCH   3  12
ENDBRANCH   1   5
BRANCH   1  14
ATOM     14  C   UNL     1       4.841   5.348  17.707  0.00  0.00    +0.000 A 
ATOM     15  C   UNL     1       5.006   6.738  17.565  0.00  0.00    +0.000 A 
ATOM     16 CL   UNL     1       6.564   7.466  17.337  0.00  0.00    +0.000 Cl
ATOM     17  C   UNL     1       3.907   7.617  17.594  0.00  0.00    +0.000 A 
ATOM     18  C   UNL     1       2.602   7.136  17.729  0.00  0.00    +0.000 A 
ATOM     19  C   UNL     1       2.438   5.751  17.890  0.00  0.00    +0.000 A 
ATOM     20  C   UNL     1       3.534   4.867  17.876  0.00  0.00    +0.000 A 
ATOM     21 CL   UNL     1       3.157   3.193  18.101  0.00  0.00    +0.000 Cl
BRANCH  18  22
ATOM     22  C   UNL     1       1.384   8.041  17.811  0.00  0.00    +0.000 C 
BRANCH  22  23
ATOM     23  C   UNL     1       1.563   9.430  18.396  0.00  0.00    +0.000 C 
ATOM     24  O   UNL     1       1.394   9.757  19.560  0.00  0.00    +0.000 OA
BRANCH  23  25
ATOM     25  O   UNL     1       1.948  10.336  17.459  0.00  0.00    +0.000 OA
ATOM     26  H   UNL     1       2.829  10.180  17.071  0.00  0.00    +0.000 HD
ENDBRANCH  23  25
ENDBRANCH  22  23
ENDBRANCH  18  22
ENDBRANCH   1  14
TORSDOF 6
ENDMDL
MODEL 5
REMARK VINA RESULT:      -7.1      2.761      3.665
REMARK  Name = 
REMARK  8 active torsions:
REMARK  status: ('A' for Active; 'I' for Inactive)
REMARK    1  A    between atoms: C_1  and  C_2
REMARK    2  A    between atoms: C_2  and  C_3
REMARK    3  A    between atoms: C_2  and  C_4
REMARK    4  A    between atoms: C_6  and  S_7
REMARK    5  A    between atoms: S_7  and  C_9
REMARK    6  A    between atoms: C_13  and  C_14
REMARK    7  A    between atoms: C_14  and  C_15
REMARK    8  A    between atoms: C_15  and  O_17
REMARK                            x       y       z     vdW  Elec       q    Type
REMARK                         _______ _______ _______ _____ _____    ______ ____
ROOT
ATOM      1  S   UNL     1       2.521   3.636  17.891  0.00  0.00    +0.000 S 
ATOM      2  O   UNL     1       2.380   2.337  18.765  0.00  0.00    +0.000 OA
ENDROOT
BRANCH   1   5
ATOM      3  C   UNL     1       6.101   4.094  15.980  0.00  0.00    +0.000 A 
ATOM      4  C   UNL     1       4.793   3.908  16.220  0.00  0.00    +0.000 A 
ATOM      5  C   UNL     1       4.319   3.874  17.627  0.00  0.00    +0.000 A 
ATOM      6  N   UNL     1       5.087   4.057  18.658  0.00  0.00    +0.000 NA
ATOM      7  N   UNL     1       6.413   4.247  18.396  0.00  0.00    +0.000 N 
ATOM      8  C   UNL     1       7.010   4.260  17.157  0.00  0.00    +0.000 A 
ATOM      9  O   UNL     1       8.219   4.407  17.031  0.00  0.00    +0.000 OA
ATOM     10  H   UNL     1       7.026   4.371  19.196  0.00  0.00    +0.000 HD
BRANCH   3  12
ATOM     11  C   UNL     1       5.763   3.713  13.527  0.00  0.00    +0.000 C 
ATOM     12  C   UNL     1       6.749   4.165  14.607  0.00  0.00    +0.000 C 
ATOM     13  C   UNL     1       7.325   5.541  14.253  0.00  0.00    +0.000 C 
ENDBRANCH   3  12
ENDBRANCH   1   5
BRANCH   1  14
ATOM     14  C   UNL     1       2.179   5.079  18.934  0.00  0.00    +0.000 A 
ATOM     15  C   UNL     1       1.504   4.891  20.154  0.00  0.00    +0.000 A 
ATOM     16 CL   UNL     1       0.952   3.331  20.675  0.00  0.00    +0.000 Cl
ATOM     17  C   UNL     1       1.244   5.966  21.024  0.00  0.00    +0.000 A 
ATOM     18  C   UNL     1       1.681   7.259  20.725  0.00  0.00    +0.000 A 
ATOM     19  C   UNL     1       2.338   7.451  19.499  0.00  0.00    +0.000 A 
ATOM     20  C   UNL     1       2.589   6.382  18.616  0.00  0.00    +0.000 A 
ATOM     21 CL   UNL     1       3.398   6.794  17.143  0.00  0.00    +0.000 Cl
BRANCH  18  22
ATOM     22  C   UNL     1       1.390   8.462  21.606  0.00  0.00    +0.000 C 
BRANCH  22  23
ATOM     23  C   UNL     1      -0.008   9.051  21.574  0.00  0.00    +0.000 C 
ATOM     24  O   UNL     1      -0.549   9.589  20.621  0.00  0.00    +0.000 OA
BRANCH  23  25
ATOM     25  O   UNL     1      -0.645   8.926  22.767  0.00  0.00    +0.000 OA
ATOM     26  H   UNL     1      -0.929   8.020  22.991  0.00  0.00    +0.000 HD
ENDBRANCH  23  25
ENDBRANCH  22  23
ENDBRANCH  18  22
ENDBRANCH   1  14
TORSDOF 6
ENDMDL
MODEL 6
REMARK VINA RESULT:      -7.1      2.837      4.119
REMARK  Name = 
REMARK  8 active torsions:
REMARK  status: ('A' for Active; 'I' for Inactive)
REMARK    1  A    between atoms: C_1  and  C_2
REMARK    2  A    between atoms: C_2  and  C_3
REMARK    3  A    between atoms: C_2  and  C_4
REMARK    4  A    between atoms: C_6  and  S_7
REMARK    5  A    between atoms: S_7  and  C_9
REMARK    6  A    between atoms: C_13  and  C_14
REMARK    7  A    between atoms: C_14  and  C_15
REMARK    8  A    between atoms: C_15  and  O_17
REMARK                            x       y       z     vdW  Elec       q    Type
REMARK                         _______ _______ _______ _____ _____    ______ ____
ROOT
ATOM      1  S   UNL     1       2.419   4.063  17.771  0.00  0.00    +0.000 S 
ATOM      2  O   UNL     1       2.112   2.672  18.435  0.00  0.00    +0.000 OA
ENDROOT
BRANCH   1   5
ATOM      3  C   UNL     1       6.133   4.226  16.081  0.00  0.00    +0.000 A 
ATOM      4  C   UNL     1       4.802   4.144  16.240  0.00  0.00    +0.000 A 
ATOM      5  C   UNL     1       4.243   4.159  17.617  0.00  0.00    +0.000 A 
ATOM      6  N   UNL     1       4.959   4.291  18.691  0.00  0.00    +0.000 NA
ATOM      7  N   UNL     1       6.309   4.375  18.510  0.00  0.00    +0.000 N 
ATOM      8  C   UNL     1       6.979   4.330  17.310  0.00  0.00    +0.000 A 
ATOM      9  O   UNL     1       8.201   4.382  17.258  0.00  0.00    +0.000 OA
ATOM     10  H   UNL     1       6.880   4.457  19.346  0.00  0.00    +0.000 HD
BRANCH   3  12
ATOM     11  C   UNL     1       5.988   3.631  13.651  0.00  0.00    +0.000 C 
ATOM     12  C   UNL     1       6.867   4.235  14.749  0.00  0.00    +0.000 C 
ATOM     13  C   UNL     1       7.376   5.615  14.320  0.00  0.00    +0.000 C 
ENDBRANCH   3  12
ENDBRANCH   1   5
BRANCH   1  14
ATOM     14  C   UNL     1       2.155   5.367  19.002  0.00  0.00    +0.000 A 
ATOM     15  C   UNL     1       2.445   6.699  18.654  0.00  0.00    +0.000 A 
ATOM     16 CL   UNL     1       3.082   7.131  17.099  0.00  0.00    +0.000 Cl
ATOM     17  C   UNL     1       2.225   7.759  19.553  0.00  0.00    +0.000 A 
ATOM     18  C   UNL     1       1.675   7.532  20.817  0.00  0.00    +0.000 A 
ATOM     19  C   UNL     1       1.404   6.201  21.173  0.00  0.00    +0.000 A 
ATOM     20  C   UNL     1       1.634   5.133  20.283  0.00  0.00    +0.000 A 
ATOM     21 CL   UNL     1       1.258   3.554  20.885  0.00  0.00    +0.000 Cl
BRANCH  18  22
ATOM     22  C   UNL     1       1.458   8.631  21.842  0.00  0.00    +0.000 C 
BRANCH  22  23
ATOM     23  C   UNL     1       0.096   9.297  21.901  0.00  0.00    +0.000 C 
ATOM     24  O   UNL     1      -0.459   9.900  20.996  0.00  0.00    +0.000 OA
BRANCH  23  25
ATOM     25  O   UNL     1      -0.490   9.162  23.119  0.00  0.00    +0.000 OA
ATOM     26  H   UNL     1      -1.024   8.354  23.233  0.00  0.00    +0.000 HD
ENDBRANCH  23  25
ENDBRANCH  22  23
ENDBRANCH  18  22
ENDBRANCH   1  14
TORSDOF 6
ENDMDL
MODEL 7
REMARK VINA RESULT:      -6.9      2.935      7.775
REMARK  Name = 
REMARK  8 active torsions:
REMARK  status: ('A' for Active; 'I' for Inactive)
REMARK    1  A    between atoms: C_1  and  C_2
REMARK    2  A    between atoms: C_2  and  C_3
REMARK    3  A    between atoms: C_2  and  C_4
REMARK    4  A    between atoms: C_6  and  S_7
REMARK    5  A    between atoms: S_7  and  C_9
REMARK    6  A    between atoms: C_13  and  C_14
REMARK    7  A    between atoms: C_14  and  C_15
REMARK    8  A    between atoms: C_15  and  O_17
REMARK                            x       y       z     vdW  Elec       q    Type
REMARK                         _______ _______ _______ _____ _____    ______ ____
ROOT
ATOM      1  S   UNL     1       3.381   5.449  20.002  0.00  0.00    +0.000 S 
ATOM      2  O   UNL     1       2.210   4.461  20.353  0.00  0.00    +0.000 OA
ENDROOT
BRANCH   1   5
ATOM      3  C   UNL     1       1.083   8.825  20.017  0.00  0.00    +0.000 A 
ATOM      4  C   UNL     1       1.679   7.681  20.390  0.00  0.00    +0.000 A 
ATOM      5  C   UNL     1       2.582   6.996  19.429  0.00  0.00    +0.000 A 
ATOM      6  N   UNL     1       2.873   7.455  18.251  0.00  0.00    +0.000 NA
ATOM      7  N   UNL     1       2.260   8.620  17.888  0.00  0.00    +0.000 N 
ATOM      8  C   UNL     1       1.369   9.346  18.643  0.00  0.00    +0.000 A 
ATOM      9  O   UNL     1       0.848  10.366  18.212  0.00  0.00    +0.000 OA
ATOM     10  H   UNL     1       2.464   8.977  16.960  0.00  0.00    +0.000 HD
BRANCH   3  12
ATOM     11  C   UNL     1      -0.342   8.842  22.078  0.00  0.00    +0.000 C 
ATOM     12  C   UNL     1       0.143   9.655  20.875  0.00  0.00    +0.000 C 
ATOM     13  C   UNL     1       0.733  10.991  21.344  0.00  0.00    +0.000 C 
ENDBRANCH   3  12
ENDBRANCH   1   5
BRANCH   1  14
ATOM     14  C   UNL     1       4.146   4.916  18.447  0.00  0.00    +0.000 A 
ATOM     15  C   UNL     1       5.544   5.007  18.312  0.00  0.00    +0.000 A 
ATOM     16 CL   UNL     1       6.555   5.647  19.568  0.00  0.00    +0.000 Cl
ATOM     17  C   UNL     1       6.200   4.574  17.145  0.00  0.00    +0.000 A 
ATOM     18  C   UNL     1       5.488   4.001  16.087  0.00  0.00    +0.000 A 
ATOM     19  C   UNL     1       4.092   3.929  16.213  0.00  0.00    +0.000 A 
ATOM     20  C   UNL     1       3.427   4.373  17.372  0.00  0.00    +0.000 A 
ATOM     21 CL   UNL     1       1.703   4.223  17.359  0.00  0.00    +0.000 Cl
BRANCH  18  22
ATOM     22  C   UNL     1       6.139   3.558  14.788  0.00  0.00    +0.000 C 
BRANCH  22  23
ATOM     23  C   UNL     1       6.953   4.577  14.011  0.00  0.00    +0.000 C 
ATOM     24  O   UNL     1       7.585   5.511  14.477  0.00  0.00    +0.000 OA
BRANCH  23  25
ATOM     25  O   UNL     1       6.913   4.352  12.672  0.00  0.00    +0.000 OA
ATOM     26  H   UNL     1       6.777   3.421  12.412  0.00  0.00    +0.000 HD
ENDBRANCH  23  25
ENDBRANCH  22  23
ENDBRANCH  18  22
ENDBRANCH   1  14
TORSDOF 6
ENDMDL
MODEL 8
REMARK VINA RESULT:      -6.9      2.877      7.532
REMARK  Name = 
REMARK  8 active torsions:
REMARK  status: ('A' for Active; 'I' for Inactive)
REMARK    1  A    between atoms: C_1  and  C_2
REMARK    2  A    between atoms: C_2  and  C_3
REMARK    3  A    between atoms: C_2  and  C_4
REMARK    4  A    between atoms: C_6  and  S_7
REMARK    5  A    between atoms: S_7  and  C_9
REMARK    6  A    between atoms: C_13  and  C_14
REMARK    7  A    between atoms: C_14  and  C_15
REMARK    8  A    between atoms: C_15  and  O_17
REMARK                            x       y       z     vdW  Elec       q    Type
REMARK                         _______ _______ _______ _____ _____    ______ ____
ROOT
ATOM      1  S   UNL     1       3.354   5.348  20.007  0.00  0.00    +0.000 S 
ATOM      2  O   UNL     1       2.150   4.366  20.244  0.00  0.00    +0.000 OA
ENDROOT
BRANCH   1   5
ATOM      3  C   UNL     1       1.168   8.797  19.914  0.00  0.00    +0.000 A 
ATOM      4  C   UNL     1       1.718   7.641  20.319  0.00  0.00    +0.000 A 
ATOM      5  C   UNL     1       2.618   6.910  19.390  0.00  0.00    +0.000 A 
ATOM      6  N   UNL     1       2.949   7.338  18.210  0.00  0.00    +0.000 NA
ATOM      7  N   UNL     1       2.382   8.515  17.815  0.00  0.00    +0.000 N 
ATOM      8  C   UNL     1       1.500   9.283  18.538  0.00  0.00    +0.000 A 
ATOM      9  O   UNL     1       1.022  10.312  18.078  0.00  0.00    +0.000 OA
ATOM     10  H   UNL     1       2.618   8.849  16.886  0.00  0.00    +0.000 HD
BRANCH   3  12
ATOM     11  C   UNL     1      -0.328   8.885  21.921  0.00  0.00    +0.000 C 
ATOM     12  C   UNL     1       0.238   9.673  20.737  0.00  0.00    +0.000 C 
ATOM     13  C   UNL     1       0.874  10.979  21.228  0.00  0.00    +0.000 C 
ENDBRANCH   3  12
ENDBRANCH   1   5
BRANCH   1  14
ATOM     14  C   UNL     1       4.243   4.829  18.515  0.00  0.00    +0.000 A 
ATOM     15  C   UNL     1       3.509   4.305  17.434  0.00  0.00    +0.000 A 
ATOM     16 CL   UNL     1       1.788   4.102  17.497  0.00  0.00    +0.000 Cl
ATOM     17  C   UNL     1       4.139   3.921  16.235  0.00  0.00    +0.000 A 
ATOM     18  C   UNL     1       5.515   4.081  16.059  0.00  0.00    +0.000 A 
ATOM     19  C   UNL     1       6.251   4.585  17.143  0.00  0.00    +0.000 A 
ATOM     20  C   UNL     1       5.630   4.959  18.351  0.00  0.00    +0.000 A 
ATOM     21 CL   UNL     1       6.684   5.550  19.590  0.00  0.00    +0.000 Cl
BRANCH  18  22
ATOM     22  C   UNL     1       6.251   3.643  14.804  0.00  0.00    +0.000 C 
BRANCH  22  23
ATOM     23  C   UNL     1       7.031   4.689  14.030  0.00  0.00    +0.000 C 
ATOM     24  O   UNL     1       7.670   5.617  14.500  0.00  0.00    +0.000 OA
BRANCH  23  25
ATOM     25  O   UNL     1       6.952   4.499  12.687  0.00  0.00    +0.000 OA
ATOM     26  H   UNL     1       6.749   5.300  12.167  0.00  0.00    +0.000 HD
ENDBRANCH  23  25
ENDBRANCH  22  23
ENDBRANCH  18  22
ENDBRANCH   1  14
TORSDOF 6
ENDMDL
MODEL 9
REMARK VINA RESULT:      -6.7      4.360      6.799
REMARK  Name = 
REMARK  8 active torsions:
REMARK  status: ('A' for Active; 'I' for Inactive)
REMARK    1  A    between atoms: C_1  and  C_2
REMARK    2  A    between atoms: C_2  and  C_3
REMARK    3  A    between atoms: C_2  and  C_4
REMARK    4  A    between atoms: C_6  and  S_7
REMARK    5  A    between atoms: S_7  and  C_9
REMARK    6  A    between atoms: C_13  and  C_14
REMARK    7  A    between atoms: C_14  and  C_15
REMARK    8  A    between atoms: C_15  and  O_17
REMARK                            x       y       z     vdW  Elec       q    Type
REMARK                         _______ _______ _______ _____ _____    ______ ____
ROOT
ATOM      1  S   UNL     1       5.971   4.495  18.163  0.00  0.00    +0.000 S 
ATOM      2  O   UNL     1       5.595   4.040  16.706  0.00  0.00    +0.000 OA
ENDROOT
BRANCH   1   5
ATOM      3  C   UNL     1       2.308   4.118  19.927  0.00  0.00    +0.000 A 
ATOM      4  C   UNL     1       3.470   3.834  19.319  0.00  0.00    +0.000 A 
ATOM      5  C   UNL     1       4.391   4.947  18.975  0.00  0.00    +0.000 A 
ATOM      6  N   UNL     1       4.166   6.193  19.263  0.00  0.00    +0.000 NA
ATOM      7  N   UNL     1       2.981   6.464  19.883  0.00  0.00    +0.000 N 
ATOM      8  C   UNL     1       2.009   5.554  20.226  0.00  0.00    +0.000 A 
ATOM      9  O   UNL     1       0.961   5.906  20.753  0.00  0.00    +0.000 OA
ATOM     10  H   UNL     1       2.786   7.437  20.095  0.00  0.00    +0.000 HD
BRANCH   3  12
ATOM     11  C   UNL     1       1.053   2.054  19.262  0.00  0.00    +0.000 C 
ATOM     12  C   UNL     1       1.260   3.104  20.356  0.00  0.00    +0.000 C 
ATOM     13  C   UNL     1       1.558   2.419  21.695  0.00  0.00    +0.000 C 
ENDBRANCH   3  12
ENDBRANCH   1   5
BRANCH   1  14
ATOM     14  C   UNL     1       6.743   6.133  18.081  0.00  0.00    +0.000 A 
ATOM     15  C   UNL     1       7.819   6.421  18.940  0.00  0.00    +0.000 A 
ATOM     16 CL   UNL     1       8.408   5.275  20.102  0.00  0.00    +0.000 Cl
ATOM     17  C   UNL     1       8.484   7.661  18.897  0.00  0.00    +0.000 A 
ATOM     18  C   UNL     1       8.122   8.642  17.971  0.00  0.00    +0.000 A 
ATOM     19  C   UNL     1       7.036   8.364  17.127  0.00  0.00    +0.000 A 
ATOM     20  C   UNL     1       6.357   7.131  17.174  0.00  0.00    +0.000 A 
ATOM     21 CL   UNL     1       5.032   6.956  16.073  0.00  0.00    +0.000 Cl
BRANCH  18  22
ATOM     22  C   UNL     1       8.776  10.012  17.910  0.00  0.00    +0.000 C 
BRANCH  22  23
ATOM     23  C   UNL     1       9.469  10.531  19.157  0.00  0.00    +0.000 C 
ATOM     24  O   UNL     1       8.986  10.619  20.274  0.00  0.00    +0.000 OA
BRANCH  23  25
ATOM     25  O   UNL     1      10.748  10.915  18.910  0.00  0.00    +0.000 OA
ATOM     26  H   UNL     1      11.415  10.207  18.990  0.00  0.00    +0.000 HD
ENDBRANCH  23  25
ENDBRANCH  22  23
ENDBRANCH  18  22
ENDBRANCH   1  14
TORSDOF 6
ENDMDL
