MODEL 1
REMARK VINA RESULT:      -6.6      0.000      0.000
REMARK  Name = 
REMARK  8 active torsions:
REMARK  status: ('A' for Active; 'I' for Inactive)
REMARK    1  A    between atoms: C_1  and  N_2
REMARK    2  A    between atoms: N_2  and  C_3
REMARK    3  A    between atoms: N_2  and  C_4
REMARK    4  A    between atoms: C_4  and  C_5
REMARK    5  A    between atoms: C_5  and  C_6
REMARK    6  A    between atoms: C_6  and  O_7
REMARK    7  A    between atoms: O_7  and  C_8
REMARK    8  A    between atoms: C_10  and  C_11
REMARK                            x       y       z     vdW  Elec       q    Type
REMARK                         _______ _______ _______ _____ _____    ______ ____
ROOT
ATOM      1  C   UNL     1       6.046   5.158  16.628  0.00  0.00    +0.000 A 
ATOM      2  C   UNL     1       4.718   5.215  17.072  0.00  0.00    +0.000 A 
ATOM      3  C   UNL     1       4.712   4.510  18.264  0.00  0.00    +0.000 A 
ATOM      4  N   UNL     1       6.015   4.107  18.436  0.00  0.00    +0.000 N 
ATOM      5  N   UNL     1       6.845   4.489  17.458  0.00  0.00    +0.000 NA
ATOM      6  H   UNL     1       6.392   3.553  19.193  0.00  0.00    +0.000 HD
ENDROOT
BRANCH   3   7
ATOM      7  C   UNL     1       3.645   4.173  19.199  0.00  0.00    +0.000 A 
ATOM      8  C   UNL     1       3.025   5.173  19.961  0.00  0.00    +0.000 A 
ATOM      9  C   UNL     1       1.987   4.854  20.840  0.00  0.00    +0.000 A 
ATOM     10  C   UNL     1       1.561   3.534  20.970  0.00  0.00    +0.000 A 
ATOM     11  C   UNL     1       2.171   2.531  20.222  0.00  0.00    +0.000 A 
ATOM     12  C   UNL     1       3.208   2.848  19.343  0.00  0.00    +0.000 A 
ENDBRANCH   3   7
BRANCH   1  13
ATOM     13  O   UNL     1       6.540   5.722  15.506  0.00  0.00    +0.000 OA
BRANCH  13  14
ATOM     14  C   UNL     1       7.095   4.764  14.602  0.00  0.00    +0.000 C 
BRANCH  14  15
ATOM     15  C   UNL     1       5.965   3.907  14.045  0.00  0.00    +0.000 C 
BRANCH  15  16
ATOM     16  C   UNL     1       6.205   3.617  12.561  0.00  0.00    +0.000 C 
BRANCH  16  18
ATOM     17  C   UNL     1       4.285   3.191  11.182  0.00  0.00    +0.000 C 
ATOM     18  N   UNL     1       5.328   2.572  12.007  0.00  0.00    +0.000 NA
ATOM     19  C   UNL     1       6.067   1.592  11.211  0.00  0.00    +0.000 C 
ENDBRANCH  16  18
ENDBRANCH  15  16
ENDBRANCH  14  15
ENDBRANCH  13  14
ENDBRANCH   1  13
TORSDOF 6
ENDMDL
MODEL 2
REMARK VINA RESULT:      -6.5      0.923      1.169
REMARK  Name = 
REMARK  8 active torsions:
REMARK  status: ('A' for Active; 'I' for Inactive)
REMARK    1  A    between atoms: C_1  and  N_2
REMARK    2  A    between atoms: N_2  and  C_3
REMARK    3  A    between atoms: N_2  and  C_4
REMARK    4  A    between atoms: C_4  and  C_5
REMARK    5  A    between atoms: C_5  and  C_6
REMARK    6  A    between atoms: C_6  and  O_7
REMARK    7  A    between atoms: O_7  and  C_8
REMARK    8  A    between atoms: C_10  and  C_11
REMARK                            x       y       z     vdW  Elec       q    Type
REMARK                         _______ _______ _______ _____ _____    ______ ____
ROOT
ATOM      1  C   UNL     1       6.057   4.449  16.809  0.00  0.00    +0.000 A 
ATOM      2  C   UNL     1       4.681   4.283  17.016  0.00  0.00    +0.000 A 
ATOM      3  C   UNL     1       4.564   3.930  18.350  0.00  0.00    +0.000 A 
ATOM      4  N   UNL     1       5.854   3.924  18.823  0.00  0.00    +0.000 N 
ATOM      5  N   UNL     1       6.779   4.238  17.908  0.00  0.00    +0.000 NA
ATOM      6  H   UNL     1       6.165   3.696  19.758  0.00  0.00    +0.000 HD
ENDROOT
BRANCH   3   7
ATOM      7  C   UNL     1       3.412   3.588  19.176  0.00  0.00    +0.000 A 
ATOM      8  C   UNL     1       3.582   2.897  20.383  0.00  0.00    +0.000 A 
ATOM      9  C   UNL     1       2.481   2.589  21.186  0.00  0.00    +0.000 A 
ATOM     10  C   UNL     1       1.200   2.964  20.791  0.00  0.00    +0.000 A 
ATOM     11  C   UNL     1       1.016   3.648  19.592  0.00  0.00    +0.000 A 
ATOM     12  C   UNL     1       2.115   3.957  18.789  0.00  0.00    +0.000 A 
ENDBRANCH   3   7
BRANCH   1  13
ATOM     13  O   UNL     1       6.655   4.812  15.655  0.00  0.00    +0.000 OA
BRANCH  13  14
ATOM     14  C   UNL     1       6.337   3.938  14.568  0.00  0.00    +0.000 C 
BRANCH  14  15
ATOM     15  C   UNL     1       6.681   4.641  13.261  0.00  0.00    +0.000 C 
BRANCH  15  16
ATOM     16  C   UNL     1       6.720   3.630  12.112  0.00  0.00    +0.000 C 
BRANCH  16  18
ATOM     17  C   UNL     1       4.414   3.319  11.518  0.00  0.00    +0.000 C 
ATOM     18  N   UNL     1       5.594   2.682  12.112  0.00  0.00    +0.000 NA
ATOM     19  C   UNL     1       5.905   1.451  11.385  0.00  0.00    +0.000 C 
ENDBRANCH  16  18
ENDBRANCH  15  16
ENDBRANCH  14  15
ENDBRANCH  13  14
ENDBRANCH   1  13
TORSDOF 6
ENDMDL
MODEL 3
REMARK VINA RESULT:      -6.5      1.519      2.011
REMARK  Name = 
REMARK  8 active torsions:
REMARK  status: ('A' for Active; 'I' for Inactive)
REMARK    1  A    between atoms: C_1  and  N_2
REMARK    2  A    between atoms: N_2  and  C_3
REMARK    3  A    between atoms: N_2  and  C_4
REMARK    4  A    between atoms: C_4  and  C_5
REMARK    5  A    between atoms: C_5  and  C_6
REMARK    6  A    between atoms: C_6  and  O_7
REMARK    7  A    between atoms: O_7  and  C_8
REMARK    8  A    between atoms: C_10  and  C_11
REMARK                            x       y       z     vdW  Elec       q    Type
REMARK                         _______ _______ _______ _____ _____    ______ ____
ROOT
ATOM      1  C   UNL     1       5.004   5.917  16.216  0.00  0.00    +0.000 A 
ATOM      2  C   UNL     1       4.310   4.769  16.620  0.00  0.00    +0.000 A 
ATOM      3  C   UNL     1       3.492   5.195  17.653  0.00  0.00    +0.000 A 
ATOM      4  N   UNL     1       3.752   6.539  17.772  0.00  0.00    +0.000 N 
ATOM      5  N   UNL     1       4.665   7.002  16.909  0.00  0.00    +0.000 NA
ATOM      6  H   UNL     1       3.350   7.187  18.436  0.00  0.00    +0.000 HD
ENDROOT
BRANCH   3   7
ATOM      7  C   UNL     1       2.553   4.487  18.516  0.00  0.00    +0.000 A 
ATOM      8  C   UNL     1       1.885   3.345  18.055  0.00  0.00    +0.000 A 
ATOM      9  C   UNL     1       1.003   2.653  18.889  0.00  0.00    +0.000 A 
ATOM     10  C   UNL     1       0.776   3.098  20.190  0.00  0.00    +0.000 A 
ATOM     11  C   UNL     1       1.430   4.234  20.659  0.00  0.00    +0.000 A 
ATOM     12  C   UNL     1       2.312   4.925  19.827  0.00  0.00    +0.000 A 
ENDBRANCH   3   7
BRANCH   1  13
ATOM     13  O   UNL     1       5.910   5.995  15.219  0.00  0.00    +0.000 OA
BRANCH  13  14
ATOM     14  C   UNL     1       6.721   4.822  15.114  0.00  0.00    +0.000 C 
BRANCH  14  15
ATOM     15  C   UNL     1       6.791   4.407  13.650  0.00  0.00    +0.000 C 
BRANCH  15  16
ATOM     16  C   UNL     1       5.564   3.571  13.278  0.00  0.00    +0.000 C 
BRANCH  16  18
ATOM     17  C   UNL     1       6.017   1.930  11.584  0.00  0.00    +0.000 C 
ATOM     18  N   UNL     1       5.463   3.263  11.843  0.00  0.00    +0.000 NA
ATOM     19  C   UNL     1       4.083   3.322  11.357  0.00  0.00    +0.000 C 
ENDBRANCH  16  18
ENDBRANCH  15  16
ENDBRANCH  14  15
ENDBRANCH  13  14
ENDBRANCH   1  13
TORSDOF 6
ENDMDL
MODEL 4
REMARK VINA RESULT:      -6.5      4.084      6.373
REMARK  Name = 
REMARK  8 active torsions:
REMARK  status: ('A' for Active; 'I' for Inactive)
REMARK    1  A    between atoms: C_1  and  N_2
REMARK    2  A    between atoms: N_2  and  C_3
REMARK    3  A    between atoms: N_2  and  C_4
REMARK    4  A    between atoms: C_4  and  C_5
REMARK    5  A    between atoms: C_5  and  C_6
REMARK    6  A    between atoms: C_6  and  O_7
REMARK    7  A    between atoms: O_7  and  C_8
REMARK    8  A    between atoms: C_10  and  C_11
REMARK                            x       y       z     vdW  Elec       q    Type
REMARK                         _______ _______ _______ _____ _____    ______ ____
ROOT
ATOM      1  C   UNL     1       6.883   6.401  17.097  0.00  0.00    +0.000 A 
ATOM      2  C   UNL     1       5.512   6.371  17.386  0.00  0.00    +0.000 A 
ATOM      3  C   UNL     1       5.196   5.025  17.463  0.00  0.00    +0.000 A 
ATOM      4  N   UNL     1       6.384   4.375  17.229  0.00  0.00    +0.000 N 
ATOM      5  N   UNL     1       7.424   5.187  17.006  0.00  0.00    +0.000 NA
ATOM      6  H   UNL     1       6.541   3.376  17.192  0.00  0.00    +0.000 HD
ENDROOT
BRANCH   3   7
ATOM      7  C   UNL     1       3.939   4.325  17.698  0.00  0.00    +0.000 A 
ATOM      8  C   UNL     1       3.847   2.941  17.500  0.00  0.00    +0.000 A 
ATOM      9  C   UNL     1       2.649   2.266  17.747  0.00  0.00    +0.000 A 
ATOM     10  C   UNL     1       1.530   2.966  18.191  0.00  0.00    +0.000 A 
ATOM     11  C   UNL     1       1.606   4.342  18.388  0.00  0.00    +0.000 A 
ATOM     12  C   UNL     1       2.803   5.018  18.142  0.00  0.00    +0.000 A 
ENDBRANCH   3   7
BRANCH   1  13
ATOM     13  O   UNL     1       7.645   7.504  16.945  0.00  0.00    +0.000 OA
BRANCH  13  14
ATOM     14  C   UNL     1       8.179   7.984  18.181  0.00  0.00    +0.000 C 
BRANCH  14  15
ATOM     15  C   UNL     1       8.326   9.497  18.095  0.00  0.00    +0.000 C 
BRANCH  15  16
ATOM     16  C   UNL     1       9.343   9.989  19.128  0.00  0.00    +0.000 C 
BRANCH  16  18
ATOM     17  C   UNL     1       9.000  11.999  17.859  0.00  0.00    +0.000 C 
ATOM     18  N   UNL     1       9.593  11.439  19.077  0.00  0.00    +0.000 NA
ATOM     19  C   UNL     1       9.058  12.136  20.248  0.00  0.00    +0.000 C 
ENDBRANCH  16  18
ENDBRANCH  15  16
ENDBRANCH  14  15
ENDBRANCH  13  14
ENDBRANCH   1  13
TORSDOF 6
ENDMDL
MODEL 5
REMARK VINA RESULT:      -6.4      3.719      6.662
REMARK  Name = 
REMARK  8 active torsions:
REMARK  status: ('A' for Active; 'I' for Inactive)
REMARK    1  A    between atoms: C_1  and  N_2
REMARK    2  A    between atoms: N_2  and  C_3
REMARK    3  A    between atoms: N_2  and  C_4
REMARK    4  A    between atoms: C_4  and  C_5
REMARK    5  A    between atoms: C_5  and  C_6
REMARK    6  A    between atoms: C_6  and  O_7
REMARK    7  A    between atoms: O_7  and  C_8
REMARK    8  A    between atoms: C_10  and  C_11
REMARK                            x       y       z     vdW  Elec       q    Type
REMARK                         _______ _______ _______ _____ _____    ______ ____
ROOT
ATOM      1  C   UNL     1       2.457   4.066  17.555  0.00  0.00    +0.000 A 
ATOM      2  C   UNL     1       3.157   5.206  17.973  0.00  0.00    +0.000 A 
ATOM      3  C   UNL     1       4.482   4.938  17.672  0.00  0.00    +0.000 A 
ATOM      4  N   UNL     1       4.463   3.689  17.100  0.00  0.00    +0.000 N 
ATOM      5  N   UNL     1       3.246   3.138  17.016  0.00  0.00    +0.000 NA
ATOM      6  H   UNL     1       5.253   3.154  16.765  0.00  0.00    +0.000 HD
ENDROOT
BRANCH   3   7
ATOM      7  C   UNL     1       5.708   5.698  17.884  0.00  0.00    +0.000 A 
ATOM      8  C   UNL     1       5.973   6.847  17.127  0.00  0.00    +0.000 A 
ATOM      9  C   UNL     1       7.137   7.588  17.346  0.00  0.00    +0.000 A 
ATOM     10  C   UNL     1       8.050   7.187  18.318  0.00  0.00    +0.000 A 
ATOM     11  C   UNL     1       7.801   6.045  19.074  0.00  0.00    +0.000 A 
ATOM     12  C   UNL     1       6.638   5.304  18.857  0.00  0.00    +0.000 A 
ENDBRANCH   3   7
BRANCH   1  13
ATOM     13  O   UNL     1       1.124   3.872  17.632  0.00  0.00    +0.000 OA
BRANCH  13  14
ATOM     14  C   UNL     1       0.772   2.766  18.467  0.00  0.00    +0.000 C 
BRANCH  14  15
ATOM     15  C   UNL     1       0.626   3.264  19.900  0.00  0.00    +0.000 C 
BRANCH  15  16
ATOM     16  C   UNL     1       1.437   2.381  20.851  0.00  0.00    +0.000 C 
BRANCH  16  18
ATOM     17  C   UNL     1       3.820   2.578  20.634  0.00  0.00    +0.000 C 
ATOM     18  N   UNL     1       2.645   3.030  21.385  0.00  0.00    +0.000 NA
ATOM     19  C   UNL     1       2.561   4.490  21.333  0.00  0.00    +0.000 C 
ENDBRANCH  16  18
ENDBRANCH  15  16
ENDBRANCH  14  15
ENDBRANCH  13  14
ENDBRANCH   1  13
TORSDOF 6
ENDMDL
MODEL 6
REMARK VINA RESULT:      -6.4      2.104      6.813
REMARK  Name = 
REMARK  8 active torsions:
REMARK  status: ('A' for Active; 'I' for Inactive)
REMARK    1  A    between atoms: C_1  and  N_2
REMARK    2  A    between atoms: N_2  and  C_3
REMARK    3  A    between atoms: N_2  and  C_4
REMARK    4  A    between atoms: C_4  and  C_5
REMARK    5  A    between atoms: C_5  and  C_6
REMARK    6  A    between atoms: C_6  and  O_7
REMARK    7  A    between atoms: O_7  and  C_8
REMARK    8  A    between atoms: C_10  and  C_11
REMARK                            x       y       z     vdW  Elec       q    Type
REMARK                         _______ _______ _______ _____ _____    ______ ____
ROOT
ATOM      1  C   UNL     1       6.294   4.599  18.261  0.00  0.00    +0.000 A 
ATOM      2  C   UNL     1       5.711   4.521  16.989  0.00  0.00    +0.000 A 
ATOM      3  C   UNL     1       6.781   4.473  16.111  0.00  0.00    +0.000 A 
ATOM      4  N   UNL     1       7.894   4.514  16.916  0.00  0.00    +0.000 N 
ATOM      5  N   UNL     1       7.625   4.588  18.225  0.00  0.00    +0.000 NA
ATOM      6  H   UNL     1       8.863   4.513  16.627  0.00  0.00    +0.000 HD
ENDROOT
BRANCH   3   7
ATOM      7  C   UNL     1       6.854   4.422  14.655  0.00  0.00    +0.000 A 
ATOM      8  C   UNL     1       6.047   3.532  13.934  0.00  0.00    +0.000 A 
ATOM      9  C   UNL     1       6.100   3.498  12.538  0.00  0.00    +0.000 A 
ATOM     10  C   UNL     1       6.962   4.349  11.850  0.00  0.00    +0.000 A 
ATOM     11  C   UNL     1       7.773   5.234  12.555  0.00  0.00    +0.000 A 
ATOM     12  C   UNL     1       7.720   5.270  13.949  0.00  0.00    +0.000 A 
ENDBRANCH   3   7
BRANCH   1  13
ATOM     13  O   UNL     1       5.639   4.650  19.439  0.00  0.00    +0.000 OA
BRANCH  13  14
ATOM     14  C   UNL     1       4.390   5.340  19.350  0.00  0.00    +0.000 C 
BRANCH  14  15
ATOM     15  C   UNL     1       3.397   4.677  20.295  0.00  0.00    +0.000 C 
BRANCH  15  16
ATOM     16  C   UNL     1       1.964   5.027  19.887  0.00  0.00    +0.000 C 
BRANCH  16  18
ATOM     17  C   UNL     1       1.550   3.992  17.760  0.00  0.00    +0.000 C 
ATOM     18  N   UNL     1       1.256   3.937  19.195  0.00  0.00    +0.000 NA
ATOM     19  C   UNL     1       1.617   2.620  19.720  0.00  0.00    +0.000 C 
ENDBRANCH  16  18
ENDBRANCH  15  16
ENDBRANCH  14  15
ENDBRANCH  13  14
ENDBRANCH   1  13
TORSDOF 6
ENDMDL
MODEL 7
REMARK VINA RESULT:      -6.4      1.898      7.096
REMARK  Name = 
REMARK  8 active torsions:
REMARK  status: ('A' for Active; 'I' for Inactive)
REMARK    1  A    between atoms: C_1  and  N_2
REMARK    2  A    between atoms: N_2  and  C_3
REMARK    3  A    between atoms: N_2  and  C_4
REMARK    4  A    between atoms: C_4  and  C_5
REMARK    5  A    between atoms: C_5  and  C_6
REMARK    6  A    between atoms: C_6  and  O_7
REMARK    7  A    between atoms: O_7  and  C_8
REMARK    8  A    between atoms: C_10  and  C_11
REMARK                            x       y       z     vdW  Elec       q    Type
REMARK                         _______ _______ _______ _____ _____    ______ ____
ROOT
ATOM      1  C   UNL     1       4.772   5.276  17.756  0.00  0.00    +0.000 A 
ATOM      2  C   UNL     1       5.129   5.749  16.486  0.00  0.00    +0.000 A 
ATOM      3  C   UNL     1       5.591   4.634  15.809  0.00  0.00    +0.000 A 
ATOM      4  N   UNL     1       5.464   3.603  16.709  0.00  0.00    +0.000 N 
ATOM      5  N   UNL     1       4.967   3.966  17.897  0.00  0.00    +0.000 NA
ATOM      6  H   UNL     1       5.718   2.633  16.574  0.00  0.00    +0.000 HD
ENDROOT
BRANCH   3   7
ATOM      7  C   UNL     1       6.139   4.457  14.469  0.00  0.00    +0.000 A 
ATOM      8  C   UNL     1       5.519   3.595  13.555  0.00  0.00    +0.000 A 
ATOM      9  C   UNL     1       6.030   3.442  12.264  0.00  0.00    +0.000 A 
ATOM     10  C   UNL     1       7.168   4.145  11.874  0.00  0.00    +0.000 A 
ATOM     11  C   UNL     1       7.797   5.001  12.774  0.00  0.00    +0.000 A 
ATOM     12  C   UNL     1       7.287   5.155  14.064  0.00  0.00    +0.000 A 
ENDBRANCH   3   7
BRANCH   1  13
ATOM     13  O   UNL     1       4.251   6.005  18.764  0.00  0.00    +0.000 OA
BRANCH  13  14
ATOM     14  C   UNL     1       3.734   5.196  19.824  0.00  0.00    +0.000 C 
BRANCH  14  15
ATOM     15  C   UNL     1       2.285   5.590  20.077  0.00  0.00    +0.000 C 
BRANCH  15  16
ATOM     16  C   UNL     1       1.370   4.374  19.912  0.00  0.00    +0.000 C 
BRANCH  16  18
ATOM     17  C   UNL     1       1.618   2.600  21.513  0.00  0.00    +0.000 C 
ATOM     18  N   UNL     1       2.029   3.088  20.192  0.00  0.00    +0.000 NA
ATOM     19  C   UNL     1       1.726   2.076  19.180  0.00  0.00    +0.000 C 
ENDBRANCH  16  18
ENDBRANCH  15  16
ENDBRANCH  14  15
ENDBRANCH  13  14
ENDBRANCH   1  13
TORSDOF 6
ENDMDL
MODEL 8
REMARK VINA RESULT:      -6.4      1.031      1.594
REMARK  Name = 
REMARK  8 active torsions:
REMARK  status: ('A' for Active; 'I' for Inactive)
REMARK    1  A    between atoms: C_1  and  N_2
REMARK    2  A    between atoms: N_2  and  C_3
REMARK    3  A    between atoms: N_2  and  C_4
REMARK    4  A    between atoms: C_4  and  C_5
REMARK    5  A    between atoms: C_5  and  C_6
REMARK    6  A    between atoms: C_6  and  O_7
REMARK    7  A    between atoms: O_7  and  C_8
REMARK    8  A    between atoms: C_10  and  C_11
REMARK                            x       y       z     vdW  Elec       q    Type
REMARK                         _______ _______ _______ _____ _____    ______ ____
ROOT
ATOM      1  C   UNL     1       6.579   4.402  17.406  0.00  0.00    +0.000 A 
ATOM      2  C   UNL     1       5.214   4.084  17.436  0.00  0.00    +0.000 A 
ATOM      3  C   UNL     1       4.848   4.217  18.764  0.00  0.00    +0.000 A 
ATOM      4  N   UNL     1       6.000   4.605  19.406  0.00  0.00    +0.000 N 
ATOM      5  N   UNL     1       7.064   4.727  18.603  0.00  0.00    +0.000 NA
ATOM      6  H   UNL     1       6.123   4.784  20.393  0.00  0.00    +0.000 HD
ENDROOT
BRANCH   3   7
ATOM      7  C   UNL     1       3.585   3.998  19.460  0.00  0.00    +0.000 A 
ATOM      8  C   UNL     1       3.036   2.712  19.550  0.00  0.00    +0.000 A 
ATOM      9  C   UNL     1       1.838   2.498  20.236  0.00  0.00    +0.000 A 
ATOM     10  C   UNL     1       1.175   3.566  20.836  0.00  0.00    +0.000 A 
ATOM     11  C   UNL     1       1.707   4.850  20.751  0.00  0.00    +0.000 A 
ATOM     12  C   UNL     1       2.905   5.065  20.066  0.00  0.00    +0.000 A 
ENDBRANCH   3   7
BRANCH   1  13
ATOM     13  O   UNL     1       7.372   4.426  16.315  0.00  0.00    +0.000 OA
BRANCH  13  14
ATOM     14  C   UNL     1       7.065   5.507  15.431  0.00  0.00    +0.000 C 
BRANCH  14  15
ATOM     15  C   UNL     1       7.041   4.978  14.003  0.00  0.00    +0.000 C 
BRANCH  15  16
ATOM     16  C   UNL     1       5.993   3.872  13.867  0.00  0.00    +0.000 C 
BRANCH  16  18
ATOM     17  C   UNL     1       4.722   3.412  11.881  0.00  0.00    +0.000 C 
ATOM     18  N   UNL     1       6.004   3.195  12.560  0.00  0.00    +0.000 NA
ATOM     19  C   UNL     1       7.096   3.659  11.704  0.00  0.00    +0.000 C 
ENDBRANCH  16  18
ENDBRANCH  15  16
ENDBRANCH  14  15
ENDBRANCH  13  14
ENDBRANCH   1  13
TORSDOF 6
ENDMDL
MODEL 9
REMARK VINA RESULT:      -6.4      2.083      6.692
REMARK  Name = 
REMARK  8 active torsions:
REMARK  status: ('A' for Active; 'I' for Inactive)
REMARK    1  A    between atoms: C_1  and  N_2
REMARK    2  A    between atoms: N_2  and  C_3
REMARK    3  A    between atoms: N_2  and  C_4
REMARK    4  A    between atoms: C_4  and  C_5
REMARK    5  A    between atoms: C_5  and  C_6
REMARK    6  A    between atoms: C_6  and  O_7
REMARK    7  A    between atoms: O_7  and  C_8
REMARK    8  A    between atoms: C_10  and  C_11
REMARK                            x       y       z     vdW  Elec       q    Type
REMARK                         _______ _______ _______ _____ _____    ______ ____
ROOT
ATOM      1  C   UNL     1       5.858   4.476  18.198  0.00  0.00    +0.000 A 
ATOM      2  C   UNL     1       5.365   4.432  16.888  0.00  0.00    +0.000 A 
ATOM      3  C   UNL     1       6.493   4.403  16.085  0.00  0.00    +0.000 A 
ATOM      4  N   UNL     1       7.547   4.422  16.966  0.00  0.00    +0.000 N 
ATOM      5  N   UNL     1       7.189   4.464  18.255  0.00  0.00    +0.000 NA
ATOM      6  H   UNL     1       8.534   4.426  16.745  0.00  0.00    +0.000 HD
ENDROOT
BRANCH   3   7
ATOM      7  C   UNL     1       6.666   4.388  14.637  0.00  0.00    +0.000 A 
ATOM      8  C   UNL     1       7.611   5.223  14.025  0.00  0.00    +0.000 A 
ATOM      9  C   UNL     1       7.794   5.192  12.640  0.00  0.00    +0.000 A 
ATOM     10  C   UNL     1       7.033   4.331  11.853  0.00  0.00    +0.000 A 
ATOM     11  C   UNL     1       6.087   3.500  12.448  0.00  0.00    +0.000 A 
ATOM     12  C   UNL     1       5.904   3.529  13.832  0.00  0.00    +0.000 A 
ENDBRANCH   3   7
BRANCH   1  13
ATOM     13  O   UNL     1       5.124   4.499  19.330  0.00  0.00    +0.000 OA
BRANCH  13  14
ATOM     14  C   UNL     1       4.404   3.283  19.548  0.00  0.00    +0.000 C 
BRANCH  14  15
ATOM     15  C   UNL     1       3.365   3.519  20.636  0.00  0.00    +0.000 C 
BRANCH  15  16
ATOM     16  C   UNL     1       2.017   3.884  20.008  0.00  0.00    +0.000 C 
BRANCH  16  18
ATOM     17  C   UNL     1       0.714   2.341  18.708  0.00  0.00    +0.000 C 
ATOM     18  N   UNL     1       1.809   3.316  18.666  0.00  0.00    +0.000 NA
ATOM     19  C   UNL     1       1.513   4.344  17.667  0.00  0.00    +0.000 C 
ENDBRANCH  16  18
ENDBRANCH  15  16
ENDBRANCH  14  15
ENDBRANCH  13  14
ENDBRANCH   1  13
TORSDOF 6
ENDMDL
