MODEL 1
REMARK VINA RESULT:      -8.2      0.000      0.000
REMARK  Name = 
REMARK  4 active torsions:
REMARK  status: ('A' for Active; 'I' for Inactive)
REMARK    1  A    between atoms: C_1  and  N_2
REMARK    2  A    between atoms: N_11  and  C_12
REMARK    3  A    between atoms: C_20  and  C_21
REMARK    4  A    between atoms: C_24  and  C_25
REMARK                            x       y       z     vdW  Elec       q    Type
REMARK                         _______ _______ _______ _____ _____    ______ ____
ROOT
ATOM      1  C   UNL     1       2.811  16.435  17.601  0.00  0.00    +0.000 C 
ATOM      2  N   UNL     1       2.186  15.303  18.241  0.00  0.00    +0.000 N 
ATOM      3  C   UNL     1       2.555  13.992  18.081  0.00  0.00    +0.000 A 
ATOM      4  C   UNL     1       1.678  13.311  18.866  0.00  0.00    +0.000 A 
ATOM      5  C   UNL     1       0.825  14.249  19.457  0.00  0.00    +0.000 A 
ATOM      6  N   UNL     1      -0.228  13.917  20.344  0.00  0.00    +0.000 NA
ATOM      7  C   UNL     1      -0.337  12.637  20.599  0.00  0.00    +0.000 A 
ATOM      8  N   UNL     1      -1.269  12.085  21.467  0.00  0.00    +0.000 N 
ATOM      9  C   UNL     1      -2.195  12.666  22.315  0.00  0.00    +0.000 C 
ATOM     10  O   UNL     1      -2.743  11.952  23.151  0.00  0.00    +0.000 OA
ATOM     11  N   UNL     1      -2.439  14.004  22.127  0.00  0.00    +0.000 N 
ATOM     12  N   UNL     1       0.480  11.628  20.030  0.00  0.00    +0.000 N 
ATOM     13  N   UNL     1       0.392  10.289  20.225  0.00  0.00    +0.000 NA
ATOM     14  C   UNL     1       1.391   9.842  19.421  0.00  0.00    +0.000 A 
ATOM     15  N   UNL     1       2.088  10.836  18.757  0.00  0.00    +0.000 NA
ATOM     16  C   UNL     1       1.486  11.915  19.163  0.00  0.00    +0.000 A 
ATOM     17  N   UNL     1       1.125  15.486  19.077  0.00  0.00    +0.000 NA
ATOM     18  H   UNL     1      -1.203  11.082  21.620  0.00  0.00    +0.000 HD
ATOM     19  H   UNL     1      -2.201  14.367  21.210  0.00  0.00    +0.000 HD
ENDROOT
BRANCH  11  20
ATOM     20  C   UNL     1      -3.351  14.755  22.903  0.00  0.00    +0.000 A 
ATOM     21  C   UNL     1      -4.703  14.865  22.562  0.00  0.00    +0.000 A 
ATOM     22  C   UNL     1      -5.580  15.596  23.373  0.00  0.00    +0.000 A 
ATOM     23  C   UNL     1      -5.105  16.252  24.508  0.00  0.00    +0.000 A 
ATOM     24  C   UNL     1      -3.758  16.151  24.849  0.00  0.00    +0.000 A 
ATOM     25  C   UNL     1      -2.890  15.382  24.065  0.00  0.00    +0.000 A 
ENDBRANCH  11  20
BRANCH  14  26
ATOM     26  C   UNL     1       1.759   8.438  19.237  0.00  0.00    +0.000 A 
ATOM     27  C   UNL     1       2.184   7.964  17.995  0.00  0.00    +0.000 A 
ATOM     28  C   UNL     1       2.504   6.614  17.824  0.00  0.00    +0.000 A 
ATOM     29  C   UNL     1       2.409   5.700  18.886  0.00  0.00    +0.000 A 
ATOM     30  C   UNL     1       2.006   6.182  20.137  0.00  0.00    +0.000 A 
ATOM     31  C   UNL     1       1.684   7.537  20.312  0.00  0.00    +0.000 A 
BRANCH  29  32
ATOM     32  C   UNL     1       2.703   4.288  18.662  0.00  0.00    +0.000 A 
ATOM     33  C   UNL     1       2.362   3.386  17.671  0.00  0.00    +0.000 A 
ATOM     34  C   UNL     1       2.929   2.140  18.033  0.00  0.00    +0.000 A 
ATOM     35  C   UNL     1       3.591   2.355  19.218  0.00  0.00    +0.000 A 
ATOM     36  O   UNL     1       3.462   3.652  19.607  0.00  0.00    +0.000 OA
ENDBRANCH  29  32
ENDBRANCH  14  26
TORSDOF 3
ENDMDL
MODEL 2
REMARK VINA RESULT:      -8.1      0.256      1.195
REMARK  Name = 
REMARK  4 active torsions:
REMARK  status: ('A' for Active; 'I' for Inactive)
REMARK    1  A    between atoms: C_1  and  N_2
REMARK    2  A    between atoms: N_11  and  C_12
REMARK    3  A    between atoms: C_20  and  C_21
REMARK    4  A    between atoms: C_24  and  C_25
REMARK                            x       y       z     vdW  Elec       q    Type
REMARK                         _______ _______ _______ _____ _____    ______ ____
ROOT
ATOM      1  C   UNL     1       2.943  16.176  17.577  0.00  0.00    +0.000 C 
ATOM      2  N   UNL     1       2.299  15.063  18.231  0.00  0.00    +0.000 N 
ATOM      3  C   UNL     1       2.643  13.744  18.085  0.00  0.00    +0.000 A 
ATOM      4  C   UNL     1       1.756  13.087  18.879  0.00  0.00    +0.000 A 
ATOM      5  C   UNL     1       0.921  14.047  19.461  0.00  0.00    +0.000 A 
ATOM      6  N   UNL     1      -0.136  13.745  20.353  0.00  0.00    +0.000 NA
ATOM      7  C   UNL     1      -0.268  12.469  20.622  0.00  0.00    +0.000 A 
ATOM      8  N   UNL     1      -1.207  11.944  21.498  0.00  0.00    +0.000 N 
ATOM      9  C   UNL     1      -2.122  12.551  22.342  0.00  0.00    +0.000 C 
ATOM     10  O   UNL     1      -2.681  11.856  23.187  0.00  0.00    +0.000 OA
ATOM     11  N   UNL     1      -2.341  13.891  22.139  0.00  0.00    +0.000 N 
ATOM     12  N   UNL     1       0.530  11.439  20.063  0.00  0.00    +0.000 N 
ATOM     13  N   UNL     1       0.418  10.105  20.273  0.00  0.00    +0.000 NA
ATOM     14  C   UNL     1       1.407   9.631  19.473  0.00  0.00    +0.000 A 
ATOM     15  N   UNL     1       2.121  10.604  18.796  0.00  0.00    +0.000 NA
ATOM     16  C   UNL     1       1.539  11.698  19.192  0.00  0.00    +0.000 A 
ATOM     17  N   UNL     1       1.242  15.275  19.067  0.00  0.00    +0.000 NA
ATOM     18  H   UNL     1      -1.160  10.941  21.662  0.00  0.00    +0.000 HD
ATOM     19  H   UNL     1      -2.099  14.239  21.218  0.00  0.00    +0.000 HD
ENDROOT
BRANCH  11  20
ATOM     20  C   UNL     1      -3.238  14.667  22.908  0.00  0.00    +0.000 A 
ATOM     21  C   UNL     1      -2.845  15.307  24.088  0.00  0.00    +0.000 A 
ATOM     22  C   UNL     1      -3.757  16.091  24.806  0.00  0.00    +0.000 A 
ATOM     23  C   UNL     1      -5.076  16.209  24.370  0.00  0.00    +0.000 A 
ATOM     24  C   UNL     1      -5.475  15.568  23.199  0.00  0.00    +0.000 A 
ATOM     25  C   UNL     1      -4.552  14.824  22.455  0.00  0.00    +0.000 A 
ENDBRANCH  11  20
BRANCH  14  26
ATOM     26  C   UNL     1       1.750   8.218  19.303  0.00  0.00    +0.000 A 
ATOM     27  C   UNL     1       1.620   7.316  20.360  0.00  0.00    +0.000 A 
ATOM     28  C   UNL     1       1.978   5.975  20.194  0.00  0.00    +0.000 A 
ATOM     29  C   UNL     1       2.477   5.497  18.972  0.00  0.00    +0.000 A 
ATOM     30  C   UNL     1       2.584   6.399  17.906  0.00  0.00    +0.000 A 
ATOM     31  C   UNL     1       2.224   7.745  18.068  0.00  0.00    +0.000 A 
BRANCH  29  32
ATOM     32  C   UNL     1       2.888   4.103  18.847  0.00  0.00    +0.000 A 
ATOM     33  C   UNL     1       2.542   3.077  17.986  0.00  0.00    +0.000 A 
ATOM     34  C   UNL     1       3.267   1.932  18.396  0.00  0.00    +0.000 A 
ATOM     35  C   UNL     1       4.020   2.326  19.476  0.00  0.00    +0.000 A 
ATOM     36  O   UNL     1       3.799   3.638  19.756  0.00  0.00    +0.000 OA
ENDBRANCH  29  32
ENDBRANCH  14  26
TORSDOF 3
ENDMDL
MODEL 3
REMARK VINA RESULT:      -8.0      1.503      2.001
REMARK  Name = 
REMARK  4 active torsions:
REMARK  status: ('A' for Active; 'I' for Inactive)
REMARK    1  A    between atoms: C_1  and  N_2
REMARK    2  A    between atoms: N_11  and  C_12
REMARK    3  A    between atoms: C_20  and  C_21
REMARK    4  A    between atoms: C_24  and  C_25
REMARK                            x       y       z     vdW  Elec       q    Type
REMARK                         _______ _______ _______ _____ _____    ______ ____
ROOT
ATOM      1  C   UNL     1       1.510  17.613  18.252  0.00  0.00    +0.000 C 
ATOM      2  N   UNL     1       0.921  16.388  18.733  0.00  0.00    +0.000 N 
ATOM      3  C   UNL     1       1.486  15.142  18.644  0.00  0.00    +0.000 A 
ATOM      4  C   UNL     1       0.562  14.325  19.217  0.00  0.00    +0.000 A 
ATOM      5  C   UNL     1      -0.514  15.123  19.620  0.00  0.00    +0.000 A 
ATOM      6  N   UNL     1      -1.676  14.627  20.257  0.00  0.00    +0.000 NA
ATOM      7  C   UNL     1      -1.666  13.335  20.472  0.00  0.00    +0.000 A 
ATOM      8  N   UNL     1      -2.677  12.636  21.115  0.00  0.00    +0.000 N 
ATOM      9  C   UNL     1      -3.831  13.062  21.751  0.00  0.00    +0.000 C 
ATOM     10  O   UNL     1      -4.443  12.252  22.444  0.00  0.00    +0.000 OA
ATOM     11  N   UNL     1      -4.205  14.363  21.527  0.00  0.00    +0.000 N 
ATOM     12  N   UNL     1      -0.620  12.460  20.082  0.00  0.00    +0.000 N 
ATOM     13  N   UNL     1      -0.568  11.115  20.242  0.00  0.00    +0.000 NA
ATOM     14  C   UNL     1       0.629  10.830  19.667  0.00  0.00    +0.000 A 
ATOM     15  N   UNL     1       1.311  11.929  19.175  0.00  0.00    +0.000 NA
ATOM     16  C   UNL     1       0.499  12.906  19.453  0.00  0.00    +0.000 A 
ATOM     17  N   UNL     1      -0.309  16.403  19.324  0.00  0.00    +0.000 NA
ATOM     18  H   UNL     1      -2.512  11.644  21.270  0.00  0.00    +0.000 HD
ATOM     19  H   UNL     1      -3.830  14.787  20.686  0.00  0.00    +0.000 HD
ENDROOT
BRANCH  11  20
ATOM     20  C   UNL     1      -5.352  14.962  22.096  0.00  0.00    +0.000 A 
ATOM     21  C   UNL     1      -6.646  14.650  21.665  0.00  0.00    +0.000 A 
ATOM     22  C   UNL     1      -7.758  15.245  22.274  0.00  0.00    +0.000 A 
ATOM     23  C   UNL     1      -7.583  16.181  23.292  0.00  0.00    +0.000 A 
ATOM     24  C   UNL     1      -6.296  16.500  23.722  0.00  0.00    +0.000 A 
ATOM     25  C   UNL     1      -5.187  15.871  23.146  0.00  0.00    +0.000 A 
ENDBRANCH  11  20
BRANCH  14  26
ATOM     26  C   UNL     1       1.211   9.493  19.553  0.00  0.00    +0.000 A 
ATOM     27  C   UNL     1       1.212   8.615  20.638  0.00  0.00    +0.000 A 
ATOM     28  C   UNL     1       1.798   7.351  20.525  0.00  0.00    +0.000 A 
ATOM     29  C   UNL     1       2.400   6.927  19.329  0.00  0.00    +0.000 A 
ATOM     30  C   UNL     1       2.377   7.800  18.235  0.00  0.00    +0.000 A 
ATOM     31  C   UNL     1       1.788   9.070  18.344  0.00  0.00    +0.000 A 
BRANCH  29  32
ATOM     32  C   UNL     1       3.046   5.621  19.260  0.00  0.00    +0.000 A 
ATOM     33  C   UNL     1       2.738   4.373  19.771  0.00  0.00    +0.000 A 
ATOM     34  C   UNL     1       3.783   3.500  19.385  0.00  0.00    +0.000 A 
ATOM     35  C   UNL     1       4.664   4.261  18.654  0.00  0.00    +0.000 A 
ATOM     36  O   UNL     1       4.227   5.546  18.572  0.00  0.00    +0.000 OA
ENDBRANCH  29  32
ENDBRANCH  14  26
TORSDOF 3
ENDMDL
MODEL 4
REMARK VINA RESULT:      -7.9      1.380      2.007
REMARK  Name = 
REMARK  4 active torsions:
REMARK  status: ('A' for Active; 'I' for Inactive)
REMARK    1  A    between atoms: C_1  and  N_2
REMARK    2  A    between atoms: N_11  and  C_12
REMARK    3  A    between atoms: C_20  and  C_21
REMARK    4  A    between atoms: C_24  and  C_25
REMARK                            x       y       z     vdW  Elec       q    Type
REMARK                         _______ _______ _______ _____ _____    ______ ____
ROOT
ATOM      1  C   UNL     1       2.617  17.132  18.227  0.00  0.00    +0.000 C 
ATOM      2  N   UNL     1       1.873  15.945  18.570  0.00  0.00    +0.000 N 
ATOM      3  C   UNL     1       2.348  14.661  18.508  0.00  0.00    +0.000 A 
ATOM      4  C   UNL     1       1.292  13.905  18.912  0.00  0.00    +0.000 A 
ATOM      5  C   UNL     1       0.235  14.775  19.195  0.00  0.00    +0.000 A 
ATOM      6  N   UNL     1      -1.041  14.357  19.644  0.00  0.00    +0.000 NA
ATOM      7  C   UNL     1      -1.160  13.062  19.803  0.00  0.00    +0.000 A 
ATOM      8  N   UNL     1      -2.303  12.429  20.270  0.00  0.00    +0.000 N 
ATOM      9  C   UNL     1      -3.499  12.928  20.757  0.00  0.00    +0.000 C 
ATOM     10  O   UNL     1      -4.264  12.150  21.324  0.00  0.00    +0.000 OA
ATOM     11  N   UNL     1      -3.737  14.262  20.538  0.00  0.00    +0.000 N 
ATOM     12  N   UNL     1      -0.140  12.117  19.526  0.00  0.00    +0.000 N 
ATOM     13  N   UNL     1      -0.214  10.768  19.635  0.00  0.00    +0.000 NA
ATOM     14  C   UNL     1       1.026  10.404  19.220  0.00  0.00    +0.000 A 
ATOM     15  N   UNL     1       1.854  11.457  18.875  0.00  0.00    +0.000 NA
ATOM     16  C   UNL     1       1.087  12.489  19.078  0.00  0.00    +0.000 A 
ATOM     17  N   UNL     1       0.578  16.042  18.985  0.00  0.00    +0.000 NA
ATOM     18  H   UNL     1      -2.238  11.423  20.404  0.00  0.00    +0.000 HD
ATOM     19  H   UNL     1      -3.215  14.680  19.776  0.00  0.00    +0.000 HD
ENDROOT
BRANCH  11  20
ATOM     20  C   UNL     1      -4.904  14.935  20.967  0.00  0.00    +0.000 A 
ATOM     21  C   UNL     1      -5.004  15.514  22.236  0.00  0.00    +0.000 A 
ATOM     22  C   UNL     1      -6.168  16.197  22.612  0.00  0.00    +0.000 A 
ATOM     23  C   UNL     1      -7.251  16.272  21.738  0.00  0.00    +0.000 A 
ATOM     24  C   UNL     1      -7.159  15.692  20.475  0.00  0.00    +0.000 A 
ATOM     25  C   UNL     1      -5.979  15.050  20.080  0.00  0.00    +0.000 A 
ENDBRANCH  11  20
BRANCH  14  26
ATOM     26  C   UNL     1       1.514   9.027  19.132  0.00  0.00    +0.000 A 
ATOM     27  C   UNL     1       1.520   8.194  20.252  0.00  0.00    +0.000 A 
ATOM     28  C   UNL     1       2.017   6.891  20.162  0.00  0.00    +0.000 A 
ATOM     29  C   UNL     1       2.522   6.382  18.954  0.00  0.00    +0.000 A 
ATOM     30  C   UNL     1       2.493   7.211  17.826  0.00  0.00    +0.000 A 
ATOM     31  C   UNL     1       1.995   8.520  17.913  0.00  0.00    +0.000 A 
BRANCH  29  32
ATOM     32  C   UNL     1       3.079   5.034  18.906  0.00  0.00    +0.000 A 
ATOM     33  C   UNL     1       2.633   3.833  18.384  0.00  0.00    +0.000 A 
ATOM     34  C   UNL     1       3.618   2.861  18.686  0.00  0.00    +0.000 A 
ATOM     35  C   UNL     1       4.611   3.525  19.365  0.00  0.00    +0.000 A 
ATOM     36  O   UNL     1       4.295   4.841  19.503  0.00  0.00    +0.000 OA
ENDBRANCH  29  32
ENDBRANCH  14  26
TORSDOF 3
ENDMDL
MODEL 5
REMARK VINA RESULT:      -7.9      1.498      2.022
REMARK  Name = 
REMARK  4 active torsions:
REMARK  status: ('A' for Active; 'I' for Inactive)
REMARK    1  A    between atoms: C_1  and  N_2
REMARK    2  A    between atoms: N_11  and  C_12
REMARK    3  A    between atoms: C_20  and  C_21
REMARK    4  A    between atoms: C_24  and  C_25
REMARK                            x       y       z     vdW  Elec       q    Type
REMARK                         _______ _______ _______ _____ _____    ______ ____
ROOT
ATOM      1  C   UNL     1       1.622  17.653  18.471  0.00  0.00    +0.000 C 
ATOM      2  N   UNL     1       1.008  16.412  18.878  0.00  0.00    +0.000 N 
ATOM      3  C   UNL     1       1.569  15.167  18.757  0.00  0.00    +0.000 A 
ATOM      4  C   UNL     1       0.620  14.333  19.261  0.00  0.00    +0.000 A 
ATOM      5  C   UNL     1      -0.464  15.121  19.659  0.00  0.00    +0.000 A 
ATOM      6  N   UNL     1      -1.652  14.607  20.232  0.00  0.00    +0.000 NA
ATOM      7  C   UNL     1      -1.657  13.307  20.392  0.00  0.00    +0.000 A 
ATOM      8  N   UNL     1      -2.695  12.589  20.968  0.00  0.00    +0.000 N 
ATOM      9  C   UNL     1      -3.868  12.996  21.580  0.00  0.00    +0.000 C 
ATOM     10  O   UNL     1      -4.510  12.162  22.215  0.00  0.00    +0.000 OA
ATOM     11  N   UNL     1      -4.227  14.308  21.398  0.00  0.00    +0.000 N 
ATOM     12  N   UNL     1      -0.602  12.442  20.003  0.00  0.00    +0.000 N 
ATOM     13  N   UNL     1      -0.564  11.091  20.107  0.00  0.00    +0.000 NA
ATOM     14  C   UNL     1       0.651  10.822  19.564  0.00  0.00    +0.000 A 
ATOM     15  N   UNL     1       1.357  11.936  19.145  0.00  0.00    +0.000 NA
ATOM     16  C   UNL     1       0.541  12.906  19.434  0.00  0.00    +0.000 A 
ATOM     17  N   UNL     1      -0.241  16.410  19.425  0.00  0.00    +0.000 NA
ATOM     18  H   UNL     1      -2.541  11.590  21.086  0.00  0.00    +0.000 HD
ATOM     19  H   UNL     1      -3.819  14.765  20.589  0.00  0.00    +0.000 HD
ENDROOT
BRANCH  11  20
ATOM     20  C   UNL     1      -5.390  14.890  21.951  0.00  0.00    +0.000 A 
ATOM     21  C   UNL     1      -5.358  15.641  23.130  0.00  0.00    +0.000 A 
ATOM     22  C   UNL     1      -6.529  16.225  23.629  0.00  0.00    +0.000 A 
ATOM     23  C   UNL     1      -7.744  16.032  22.974  0.00  0.00    +0.000 A 
ATOM     24  C   UNL     1      -7.783  15.280  21.802  0.00  0.00    +0.000 A 
ATOM     25  C   UNL     1      -6.605  14.736  21.277  0.00  0.00    +0.000 A 
ENDBRANCH  11  20
BRANCH  14  26
ATOM     26  C   UNL     1       1.230   9.486  19.414  0.00  0.00    +0.000 A 
ATOM     27  C   UNL     1       1.661   9.026  18.169  0.00  0.00    +0.000 A 
ATOM     28  C   UNL     1       2.184   7.737  18.034  0.00  0.00    +0.000 A 
ATOM     29  C   UNL     1       2.292   6.871  19.135  0.00  0.00    +0.000 A 
ATOM     30  C   UNL     1       1.881   7.344  20.387  0.00  0.00    +0.000 A 
ATOM     31  C   UNL     1       1.356   8.638  20.527  0.00  0.00    +0.000 A 
BRANCH  29  32
ATOM     32  C   UNL     1       2.796   5.515  18.950  0.00  0.00    +0.000 A 
ATOM     33  C   UNL     1       2.862   4.400  19.766  0.00  0.00    +0.000 A 
ATOM     34  C   UNL     1       3.499   3.379  19.019  0.00  0.00    +0.000 A 
ATOM     35  C   UNL     1       3.776   3.925  17.789  0.00  0.00    +0.000 A 
ATOM     36  O   UNL     1       3.354   5.217  17.736  0.00  0.00    +0.000 OA
ENDBRANCH  29  32
ENDBRANCH  14  26
TORSDOF 3
ENDMDL
MODEL 6
REMARK VINA RESULT:      -7.7      1.623      1.974
REMARK  Name = 
REMARK  4 active torsions:
REMARK  status: ('A' for Active; 'I' for Inactive)
REMARK    1  A    between atoms: C_1  and  N_2
REMARK    2  A    between atoms: N_11  and  C_12
REMARK    3  A    between atoms: C_20  and  C_21
REMARK    4  A    between atoms: C_24  and  C_25
REMARK                            x       y       z     vdW  Elec       q    Type
REMARK                         _______ _______ _______ _____ _____    ______ ____
ROOT
ATOM      1  C   UNL     1       2.321  17.810  20.312  0.00  0.00    +0.000 C 
ATOM      2  N   UNL     1       1.580  16.573  20.340  0.00  0.00    +0.000 N 
ATOM      3  C   UNL     1       2.081  15.336  20.026  0.00  0.00    +0.000 A 
ATOM      4  C   UNL     1       1.018  14.504  20.189  0.00  0.00    +0.000 A 
ATOM      5  C   UNL     1      -0.070  15.285  20.592  0.00  0.00    +0.000 A 
ATOM      6  N   UNL     1      -1.362  14.771  20.859  0.00  0.00    +0.000 NA
ATOM      7  C   UNL     1      -1.466  13.473  20.722  0.00  0.00    +0.000 A 
ATOM      8  N   UNL     1      -2.623  12.746  20.968  0.00  0.00    +0.000 N 
ATOM      9  C   UNL     1      -3.854  13.120  21.479  0.00  0.00    +0.000 C 
ATOM     10  O   UNL     1      -4.636  12.232  21.814  0.00  0.00    +0.000 OA
ATOM     11  N   UNL     1      -4.103  14.468  21.545  0.00  0.00    +0.000 N 
ATOM     12  N   UNL     1      -0.414  12.618  20.307  0.00  0.00    +0.000 N 
ATOM     13  N   UNL     1      -0.470  11.278  20.112  0.00  0.00    +0.000 NA
ATOM     14  C   UNL     1       0.799  11.020  19.703  0.00  0.00    +0.000 A 
ATOM     15  N   UNL     1       1.626  12.128  19.649  0.00  0.00    +0.000 NA
ATOM     16  C   UNL     1       0.830  13.085  20.027  0.00  0.00    +0.000 A 
ATOM     17  N   UNL     1       0.261  16.569  20.687  0.00  0.00    +0.000 NA
ATOM     18  H   UNL     1      -2.547  11.736  20.882  0.00  0.00    +0.000 HD
ATOM     19  H   UNL     1      -3.545  15.046  20.926  0.00  0.00    +0.000 HD
ENDROOT
BRANCH  11  20
ATOM     20  C   UNL     1      -5.305  15.023  22.040  0.00  0.00    +0.000 A 
ATOM     21  C   UNL     1      -6.397  15.295  21.209  0.00  0.00    +0.000 A 
ATOM     22  C   UNL     1      -7.580  15.819  21.743  0.00  0.00    +0.000 A 
ATOM     23  C   UNL     1      -7.667  16.111  23.104  0.00  0.00    +0.000 A 
ATOM     24  C   UNL     1      -6.581  15.848  23.936  0.00  0.00    +0.000 A 
ATOM     25  C   UNL     1      -5.414  15.279  23.410  0.00  0.00    +0.000 A 
ENDBRANCH  11  20
BRANCH  14  26
ATOM     26  C   UNL     1       1.317   9.699  19.344  0.00  0.00    +0.000 A 
ATOM     27  C   UNL     1       1.729   9.420  18.041  0.00  0.00    +0.000 A 
ATOM     28  C   UNL     1       2.194   8.145  17.704  0.00  0.00    +0.000 A 
ATOM     29  C   UNL     1       2.260   7.115  18.655  0.00  0.00    +0.000 A 
ATOM     30  C   UNL     1       1.868   7.405  19.968  0.00  0.00    +0.000 A 
ATOM     31  C   UNL     1       1.401   8.683  20.311  0.00  0.00    +0.000 A 
BRANCH  29  32
ATOM     32  C   UNL     1       2.703   5.782  18.259  0.00  0.00    +0.000 A 
ATOM     33  C   UNL     1       2.046   4.649  17.816  0.00  0.00    +0.000 A 
ATOM     34  C   UNL     1       3.031   3.650  17.623  0.00  0.00    +0.000 A 
ATOM     35  C   UNL     1       4.232   4.233  17.949  0.00  0.00    +0.000 A 
ATOM     36  O   UNL     1       4.044   5.523  18.335  0.00  0.00    +0.000 OA
ENDBRANCH  29  32
ENDBRANCH  14  26
TORSDOF 3
ENDMDL
MODEL 7
REMARK VINA RESULT:      -7.6      1.204      1.413
REMARK  Name = 
REMARK  4 active torsions:
REMARK  status: ('A' for Active; 'I' for Inactive)
REMARK    1  A    between atoms: C_1  and  N_2
REMARK    2  A    between atoms: N_11  and  C_12
REMARK    3  A    between atoms: C_20  and  C_21
REMARK    4  A    between atoms: C_24  and  C_25
REMARK                            x       y       z     vdW  Elec       q    Type
REMARK                         _______ _______ _______ _____ _____    ______ ____
ROOT
ATOM      1  C   UNL     1       3.089  16.971  17.674  0.00  0.00    +0.000 C 
ATOM      2  N   UNL     1       2.309  15.843  18.122  0.00  0.00    +0.000 N 
ATOM      3  C   UNL     1       2.710  14.532  18.089  0.00  0.00    +0.000 A 
ATOM      4  C   UNL     1       1.646  13.855  18.598  0.00  0.00    +0.000 A 
ATOM      5  C   UNL     1       0.659  14.795  18.911  0.00  0.00    +0.000 A 
ATOM      6  N   UNL     1      -0.603  14.469  19.464  0.00  0.00    +0.000 NA
ATOM      7  C   UNL     1      -0.779  13.191  19.691  0.00  0.00    +0.000 A 
ATOM      8  N   UNL     1      -1.919  12.643  20.264  0.00  0.00    +0.000 N 
ATOM      9  C   UNL     1      -3.050  13.230  20.806  0.00  0.00    +0.000 C 
ATOM     10  O   UNL     1      -3.813  12.521  21.459  0.00  0.00    +0.000 OA
ATOM     11  N   UNL     1      -3.231  14.564  20.541  0.00  0.00    +0.000 N 
ATOM     12  N   UNL     1       0.168  12.179  19.391  0.00  0.00    +0.000 N 
ATOM     13  N   UNL     1       0.029  10.842  19.568  0.00  0.00    +0.000 NA
ATOM     14  C   UNL     1       1.217  10.391  19.087  0.00  0.00    +0.000 A 
ATOM     15  N   UNL     1       2.073  11.381  18.638  0.00  0.00    +0.000 NA
ATOM     16  C   UNL     1       1.379  12.461  18.844  0.00  0.00    +0.000 A 
ATOM     17  N   UNL     1       1.053  16.030  18.619  0.00  0.00    +0.000 NA
ATOM     18  H   UNL     1      -1.898  11.642  20.440  0.00  0.00    +0.000 HD
ATOM     19  H   UNL     1      -2.742  14.918  19.727  0.00  0.00    +0.000 HD
ENDROOT
BRANCH  11  20
ATOM     20  C   UNL     1      -4.328  15.319  21.016  0.00  0.00    +0.000 A 
ATOM     21  C   UNL     1      -5.189  16.004  20.153  0.00  0.00    +0.000 A 
ATOM     22  C   UNL     1      -6.281  16.718  20.662  0.00  0.00    +0.000 A 
ATOM     23  C   UNL     1      -6.497  16.783  22.037  0.00  0.00    +0.000 A 
ATOM     24  C   UNL     1      -5.639  16.108  22.903  0.00  0.00    +0.000 A 
ATOM     25  C   UNL     1      -4.575  15.355  22.392  0.00  0.00    +0.000 A 
ENDBRANCH  11  20
BRANCH  14  26
ATOM     26  C   UNL     1       1.624   8.987  19.031  0.00  0.00    +0.000 A 
ATOM     27  C   UNL     1       1.963   8.385  17.819  0.00  0.00    +0.000 A 
ATOM     28  C   UNL     1       2.322   7.035  17.774  0.00  0.00    +0.000 A 
ATOM     29  C   UNL     1       2.351   6.247  18.936  0.00  0.00    +0.000 A 
ATOM     30  C   UNL     1       2.034   6.859  20.155  0.00  0.00    +0.000 A 
ATOM     31  C   UNL     1       1.674   8.214  20.204  0.00  0.00    +0.000 A 
BRANCH  29  32
ATOM     32  C   UNL     1       2.682   4.829  18.848  0.00  0.00    +0.000 A 
ATOM     33  C   UNL     1       2.325   3.816  17.976  0.00  0.00    +0.000 A 
ATOM     34  C   UNL     1       2.950   2.633  18.440  0.00  0.00    +0.000 A 
ATOM     35  C   UNL     1       3.658   2.992  19.561  0.00  0.00    +0.000 A 
ATOM     36  O   UNL     1       3.504   4.319  19.817  0.00  0.00    +0.000 OA
ENDBRANCH  29  32
ENDBRANCH  14  26
TORSDOF 3
ENDMDL
MODEL 8
REMARK VINA RESULT:      -7.6      2.769      3.778
REMARK  Name = 
REMARK  4 active torsions:
REMARK  status: ('A' for Active; 'I' for Inactive)
REMARK    1  A    between atoms: C_1  and  N_2
REMARK    2  A    between atoms: N_11  and  C_12
REMARK    3  A    between atoms: C_20  and  C_21
REMARK    4  A    between atoms: C_24  and  C_25
REMARK                            x       y       z     vdW  Elec       q    Type
REMARK                         _______ _______ _______ _____ _____    ______ ____
ROOT
ATOM      1  C   UNL     1      -6.178  11.907  17.663  0.00  0.00    +0.000 C 
ATOM      2  N   UNL     1      -4.873  11.870  18.277  0.00  0.00    +0.000 N 
ATOM      3  C   UNL     1      -3.884  10.965  17.994  0.00  0.00    +0.000 A 
ATOM      4  C   UNL     1      -2.867  11.326  18.821  0.00  0.00    +0.000 A 
ATOM      5  C   UNL     1      -3.299  12.431  19.562  0.00  0.00    +0.000 A 
ATOM      6  N   UNL     1      -2.512  13.091  20.536  0.00  0.00    +0.000 NA
ATOM      7  C   UNL     1      -1.308  12.597  20.685  0.00  0.00    +0.000 A 
ATOM      8  N   UNL     1      -0.351  13.105  21.551  0.00  0.00    +0.000 N 
ATOM      9  C   UNL     1      -0.343  14.231  22.358  0.00  0.00    +0.000 C 
ATOM     10  O   UNL     1       0.726  14.579  22.855  0.00  0.00    +0.000 OA
ATOM     11  N   UNL     1      -1.552  14.851  22.550  0.00  0.00    +0.000 N 
ATOM     12  N   UNL     1      -0.804  11.475  19.981  0.00  0.00    +0.000 N 
ATOM     13  N   UNL     1       0.415  10.897  20.117  0.00  0.00    +0.000 NA
ATOM     14  C   UNL     1       0.319   9.875  19.227  0.00  0.00    +0.000 A 
ATOM     15  N   UNL     1      -0.885   9.807  18.551  0.00  0.00    +0.000 NA
ATOM     16  C   UNL     1      -1.542  10.811  19.053  0.00  0.00    +0.000 A 
ATOM     17  N   UNL     1      -4.540  12.778  19.239  0.00  0.00    +0.000 NA
ATOM     18  H   UNL     1       0.564  12.663  21.522  0.00  0.00    +0.000 HD
ATOM     19  H   UNL     1      -2.370  14.274  22.387  0.00  0.00    +0.000 HD
ENDROOT
BRANCH  11  20
ATOM     20  C   UNL     1      -1.725  16.010  23.341  0.00  0.00    +0.000 A 
ATOM     21  C   UNL     1      -1.602  17.298  22.810  0.00  0.00    +0.000 A 
ATOM     22  C   UNL     1      -1.810  18.421  23.621  0.00  0.00    +0.000 A 
ATOM     23  C   UNL     1      -2.104  18.264  24.975  0.00  0.00    +0.000 A 
ATOM     24  C   UNL     1      -2.222  16.983  25.510  0.00  0.00    +0.000 A 
ATOM     25  C   UNL     1      -2.061  15.860  24.690  0.00  0.00    +0.000 A 
ENDBRANCH  11  20
BRANCH  14  26
ATOM     26  C   UNL     1       1.373   8.897  18.951  0.00  0.00    +0.000 A 
ATOM     27  C   UNL     1       2.072   8.916  17.743  0.00  0.00    +0.000 A 
ATOM     28  C   UNL     1       3.055   7.959  17.479  0.00  0.00    +0.000 A 
ATOM     29  C   UNL     1       3.368   6.956  18.411  0.00  0.00    +0.000 A 
ATOM     30  C   UNL     1       2.683   6.953  19.632  0.00  0.00    +0.000 A 
ATOM     31  C   UNL     1       1.696   7.913  19.901  0.00  0.00    +0.000 A 
BRANCH  29  32
ATOM     32  C   UNL     1       4.365   5.942  18.084  0.00  0.00    +0.000 A 
ATOM     33  C   UNL     1       5.499   5.475  18.723  0.00  0.00    +0.000 A 
ATOM     34  C   UNL     1       6.074   4.494  17.879  0.00  0.00    +0.000 A 
ATOM     35  C   UNL     1       5.255   4.411  16.779  0.00  0.00    +0.000 A 
ATOM     36  O   UNL     1       4.217   5.283  16.894  0.00  0.00    +0.000 OA
ENDBRANCH  29  32
ENDBRANCH  14  26
TORSDOF 3
ENDMDL
MODEL 9
REMARK VINA RESULT:      -7.5      2.810      4.017
REMARK  Name = 
REMARK  4 active torsions:
REMARK  status: ('A' for Active; 'I' for Inactive)
REMARK    1  A    between atoms: C_1  and  N_2
REMARK    2  A    between atoms: N_11  and  C_12
REMARK    3  A    between atoms: C_20  and  C_21
REMARK    4  A    between atoms: C_24  and  C_25
REMARK                            x       y       z     vdW  Elec       q    Type
REMARK                         _______ _______ _______ _____ _____    ______ ____
ROOT
ATOM      1  C   UNL     1      -6.897  12.447  17.471  0.00  0.00    +0.000 C 
ATOM      2  N   UNL     1      -5.648  12.389  18.190  0.00  0.00    +0.000 N 
ATOM      3  C   UNL     1      -4.625  11.511  17.943  0.00  0.00    +0.000 A 
ATOM      4  C   UNL     1      -3.686  11.836  18.872  0.00  0.00    +0.000 A 
ATOM      5  C   UNL     1      -4.194  12.895  19.631  0.00  0.00    +0.000 A 
ATOM      6  N   UNL     1      -3.501  13.509  20.702  0.00  0.00    +0.000 NA
ATOM      7  C   UNL     1      -2.307  13.019  20.925  0.00  0.00    +0.000 A 
ATOM      8  N   UNL     1      -1.433  13.489  21.895  0.00  0.00    +0.000 N 
ATOM      9  C   UNL     1      -1.508  14.569  22.758  0.00  0.00    +0.000 C 
ATOM     10  O   UNL     1      -0.490  14.900  23.362  0.00  0.00    +0.000 OA
ATOM     11  N   UNL     1      -2.738  15.166  22.881  0.00  0.00    +0.000 N 
ATOM     12  N   UNL     1      -1.729  11.942  20.207  0.00  0.00    +0.000 N 
ATOM     13  N   UNL     1      -0.519  11.369  20.414  0.00  0.00    +0.000 NA
ATOM     14  C   UNL     1      -0.525  10.396  19.466  0.00  0.00    +0.000 A 
ATOM     15  N   UNL     1      -1.668  10.353  18.688  0.00  0.00    +0.000 NA
ATOM     16  C   UNL     1      -2.378  11.322  19.187  0.00  0.00    +0.000 A 
ATOM     17  N   UNL     1      -5.409  13.247  19.224  0.00  0.00    +0.000 NA
ATOM     18  H   UNL     1      -0.512  13.058  21.919  0.00  0.00    +0.000 HD
ATOM     19  H   UNL     1      -3.531  14.591  22.619  0.00  0.00    +0.000 HD
ENDROOT
BRANCH  11  20
ATOM     20  C   UNL     1      -2.993  16.278  23.715  0.00  0.00    +0.000 A 
ATOM     21  C   UNL     1      -2.162  17.403  23.731  0.00  0.00    +0.000 A 
ATOM     22  C   UNL     1      -2.466  18.497  24.551  0.00  0.00    +0.000 A 
ATOM     23  C   UNL     1      -3.580  18.458  25.388  0.00  0.00    +0.000 A 
ATOM     24  C   UNL     1      -4.409  17.338  25.380  0.00  0.00    +0.000 A 
ATOM     25  C   UNL     1      -4.132  16.264  24.526  0.00  0.00    +0.000 A 
ENDBRANCH  11  20
BRANCH  14  26
ATOM     26  C   UNL     1       0.562   9.445  19.228  0.00  0.00    +0.000 A 
ATOM     27  C   UNL     1       1.160   9.338  17.972  0.00  0.00    +0.000 A 
ATOM     28  C   UNL     1       2.177   8.406  17.750  0.00  0.00    +0.000 A 
ATOM     29  C   UNL     1       2.625   7.553  18.772  0.00  0.00    +0.000 A 
ATOM     30  C   UNL     1       2.039   7.678  20.038  0.00  0.00    +0.000 A 
ATOM     31  C   UNL     1       1.019   8.614  20.265  0.00  0.00    +0.000 A 
BRANCH  29  32
ATOM     32  C   UNL     1       3.653   6.556  18.493  0.00  0.00    +0.000 A 
ATOM     33  C   UNL     1       4.183   5.502  19.215  0.00  0.00    +0.000 A 
ATOM     34  C   UNL     1       5.190   4.916  18.410  0.00  0.00    +0.000 A 
ATOM     35  C   UNL     1       5.209   5.638  17.241  0.00  0.00    +0.000 A 
ATOM     36  O   UNL     1       4.283   6.632  17.281  0.00  0.00    +0.000 OA
ENDBRANCH  29  32
ENDBRANCH  14  26
TORSDOF 3
ENDMDL
