MODEL 1
REMARK VINA RESULT:      -7.9      0.000      0.000
REMARK  Name = 
REMARK  3 active torsions:
REMARK  status: ('A' for Active; 'I' for Inactive)
REMARK    1  A    between atoms: C_1  and  C_2
REMARK    2  A    between atoms: C_11  and  C_12
REMARK    3  A    between atoms: C_12  and  C_13
REMARK                            x       y       z     vdW  Elec       q    Type
REMARK                         _______ _______ _______ _____ _____    ______ ____
ROOT
ATOM      1  C   UNL     1       2.881   8.069  17.672  0.00  0.00    +0.000 C 
ATOM      2  C   UNL     1       3.137   6.731  18.311  0.00  0.00    +0.000 A 
ATOM      3  C   UNL     1       2.068   6.111  18.982  0.00  0.00    +0.000 A 
ATOM      4  C   UNL     1       2.217   4.883  19.637  0.00  0.00    +0.000 A 
ATOM      5  C   UNL     1       1.144   4.288  20.319  0.00  0.00    +0.000 A 
ATOM      6  C   UNL     1       1.303   3.067  20.973  0.00  0.00    +0.000 A 
ATOM      7  C   UNL     1       2.539   2.427  20.952  0.00  0.00    +0.000 A 
ATOM      8  C   UNL     1       3.616   3.009  20.279  0.00  0.00    +0.000 A 
ATOM      9  C   UNL     1       3.472   4.240  19.616  0.00  0.00    +0.000 A 
ATOM     10  C   UNL     1       4.545   4.860  18.950  0.00  0.00    +0.000 A 
ATOM     11  C   UNL     1       4.402   6.110  18.314  0.00  0.00    +0.000 A 
ENDROOT
BRANCH  11  12
ATOM     12  C   UNL     1       5.632   6.741  17.691  0.00  0.00    +0.000 C 
BRANCH  12  13
ATOM     13  C   UNL     1       6.300   5.928  16.603  0.00  0.00    +0.000 C 
ATOM     14  N   UNL     1       7.434   5.334  16.853  0.00  0.00    +0.000 NA
ATOM     15  O   UNL     1       7.813   4.600  15.687  0.00  0.00    +0.000 OA
ATOM     16  S   UNL     1       6.759   4.833  14.483  0.00  0.00    +0.000 S 
ATOM     17  O   UNL     1       6.036   3.552  14.201  0.00  0.00    +0.000 OA
ATOM     18  N   UNL     1       5.769   5.840  15.344  0.00  0.00    +0.000 N 
ATOM     19  H   UNL     1       4.770   5.677  15.282  0.00  0.00    +0.000 HD
ENDBRANCH  12  13
ENDBRANCH  11  12
TORSDOF 2
ENDMDL
MODEL 2
REMARK VINA RESULT:      -7.7      0.774      1.204
REMARK  Name = 
REMARK  3 active torsions:
REMARK  status: ('A' for Active; 'I' for Inactive)
REMARK    1  A    between atoms: C_1  and  C_2
REMARK    2  A    between atoms: C_11  and  C_12
REMARK    3  A    between atoms: C_12  and  C_13
REMARK                            x       y       z     vdW  Elec       q    Type
REMARK                         _______ _______ _______ _____ _____    ______ ____
ROOT
ATOM      1  C   UNL     1       2.952   8.031  17.746  0.00  0.00    +0.000 C 
ATOM      2  C   UNL     1       3.176   6.675  18.361  0.00  0.00    +0.000 A 
ATOM      3  C   UNL     1       2.143   6.135  19.148  0.00  0.00    +0.000 A 
ATOM      4  C   UNL     1       2.271   4.897  19.790  0.00  0.00    +0.000 A 
ATOM      5  C   UNL     1       1.237   4.383  20.588  0.00  0.00    +0.000 A 
ATOM      6  C   UNL     1       1.375   3.152  21.227  0.00  0.00    +0.000 A 
ATOM      7  C   UNL     1       2.550   2.421  21.075  0.00  0.00    +0.000 A 
ATOM      8  C   UNL     1       3.588   2.923  20.286  0.00  0.00    +0.000 A 
ATOM      9  C   UNL     1       3.465   4.163  19.636  0.00  0.00    +0.000 A 
ATOM     10  C   UNL     1       4.502   4.703  18.853  0.00  0.00    +0.000 A 
ATOM     11  C   UNL     1       4.384   5.962  18.230  0.00  0.00    +0.000 A 
ENDROOT
BRANCH  11  12
ATOM     12  C   UNL     1       5.582   6.500  17.473  0.00  0.00    +0.000 C 
BRANCH  12  13
ATOM     13  C   UNL     1       5.951   5.745  16.215  0.00  0.00    +0.000 C 
ATOM     14  N   UNL     1       5.006   5.265  15.455  0.00  0.00    +0.000 NA
ATOM     15  O   UNL     1       5.622   4.654  14.319  0.00  0.00    +0.000 OA
ATOM     16  S   UNL     1       7.234   4.710  14.429  0.00  0.00    +0.000 S 
ATOM     17  O   UNL     1       7.773   5.609  13.360  0.00  0.00    +0.000 OA
ATOM     18  N   UNL     1       7.258   5.508  15.878  0.00  0.00    +0.000 N 
ATOM     19  H   UNL     1       7.899   6.287  15.970  0.00  0.00    +0.000 HD
ENDBRANCH  12  13
ENDBRANCH  11  12
TORSDOF 2
ENDMDL
MODEL 3
REMARK VINA RESULT:      -7.7      2.091      2.469
REMARK  Name = 
REMARK  3 active torsions:
REMARK  status: ('A' for Active; 'I' for Inactive)
REMARK    1  A    between atoms: C_1  and  C_2
REMARK    2  A    between atoms: C_11  and  C_12
REMARK    3  A    between atoms: C_12  and  C_13
REMARK                            x       y       z     vdW  Elec       q    Type
REMARK                         _______ _______ _______ _____ _____    ______ ____
ROOT
ATOM      1  C   UNL     1       5.473   7.139  16.970  0.00  0.00    +0.000 C 
ATOM      2  C   UNL     1       4.818   5.797  17.160  0.00  0.00    +0.000 A 
ATOM      3  C   UNL     1       3.561   5.765  17.789  0.00  0.00    +0.000 A 
ATOM      4  C   UNL     1       2.890   4.562  18.042  0.00  0.00    +0.000 A 
ATOM      5  C   UNL     1       1.644   4.549  18.689  0.00  0.00    +0.000 A 
ATOM      6  C   UNL     1       0.985   3.346  18.941  0.00  0.00    +0.000 A 
ATOM      7  C   UNL     1       1.565   2.144  18.548  0.00  0.00    +0.000 A 
ATOM      8  C   UNL     1       2.806   2.143  17.906  0.00  0.00    +0.000 A 
ATOM      9  C   UNL     1       3.483   3.347  17.645  0.00  0.00    +0.000 A 
ATOM     10  C   UNL     1       4.743   3.375  17.021  0.00  0.00    +0.000 A 
ATOM     11  C   UNL     1       5.432   4.583  16.791  0.00  0.00    +0.000 A 
ENDROOT
BRANCH  11  12
ATOM     12  C   UNL     1       6.820   4.512  16.185  0.00  0.00    +0.000 C 
BRANCH  12  13
ATOM     13  C   UNL     1       6.871   4.504  14.673  0.00  0.00    +0.000 C 
ATOM     14  N   UNL     1       7.640   5.356  14.053  0.00  0.00    +0.000 NA
ATOM     15  O   UNL     1       7.543   5.099  12.651  0.00  0.00    +0.000 OA
ATOM     16  S   UNL     1       6.476   3.921  12.346  0.00  0.00    +0.000 S 
ATOM     17  O   UNL     1       7.198   2.726  11.806  0.00  0.00    +0.000 OA
ATOM     18  N   UNL     1       6.091   3.655  13.933  0.00  0.00    +0.000 N 
ATOM     19  H   UNL     1       6.044   2.692  14.246  0.00  0.00    +0.000 HD
ENDBRANCH  12  13
ENDBRANCH  11  12
TORSDOF 2
ENDMDL
MODEL 4
REMARK VINA RESULT:      -7.6      2.288      4.330
REMARK  Name = 
REMARK  3 active torsions:
REMARK  status: ('A' for Active; 'I' for Inactive)
REMARK    1  A    between atoms: C_1  and  C_2
REMARK    2  A    between atoms: C_11  and  C_12
REMARK    3  A    between atoms: C_12  and  C_13
REMARK                            x       y       z     vdW  Elec       q    Type
REMARK                         _______ _______ _______ _____ _____    ______ ____
ROOT
ATOM      1  C   UNL     1       2.233   4.596  20.905  0.00  0.00    +0.000 C 
ATOM      2  C   UNL     1       2.210   5.874  20.111  0.00  0.00    +0.000 A 
ATOM      3  C   UNL     1       1.534   6.976  20.663  0.00  0.00    +0.000 A 
ATOM      4  C   UNL     1       1.428   8.197  19.984  0.00  0.00    +0.000 A 
ATOM      5  C   UNL     1       0.731   9.280  20.543  0.00  0.00    +0.000 A 
ATOM      6  C   UNL     1       0.626  10.490  19.857  0.00  0.00    +0.000 A 
ATOM      7  C   UNL     1       1.217  10.628  18.605  0.00  0.00    +0.000 A 
ATOM      8  C   UNL     1       1.911   9.557  18.036  0.00  0.00    +0.000 A 
ATOM      9  C   UNL     1       2.024   8.331  18.714  0.00  0.00    +0.000 A 
ATOM     10  C   UNL     1       2.697   7.229  18.156  0.00  0.00    +0.000 A 
ATOM     11  C   UNL     1       2.780   5.992  18.828  0.00  0.00    +0.000 A 
ENDROOT
BRANCH  11  12
ATOM     12  C   UNL     1       3.455   4.835  18.116  0.00  0.00    +0.000 C 
BRANCH  12  13
ATOM     13  C   UNL     1       4.968   4.870  18.106  0.00  0.00    +0.000 C 
ATOM     14  N   UNL     1       5.628   4.282  19.065  0.00  0.00    +0.000 NA
ATOM     15  O   UNL     1       7.023   4.417  18.787  0.00  0.00    +0.000 OA
ATOM     16  S   UNL     1       7.270   5.298  17.453  0.00  0.00    +0.000 S 
ATOM     17  O   UNL     1       7.853   4.428  16.384  0.00  0.00    +0.000 OA
ATOM     18  N   UNL     1       5.664   5.546  17.140  0.00  0.00    +0.000 N 
ATOM     19  H   UNL     1       5.352   5.422  16.184  0.00  0.00    +0.000 HD
ENDBRANCH  12  13
ENDBRANCH  11  12
TORSDOF 2
ENDMDL
MODEL 5
REMARK VINA RESULT:      -7.4      1.809      4.052
REMARK  Name = 
REMARK  3 active torsions:
REMARK  status: ('A' for Active; 'I' for Inactive)
REMARK    1  A    between atoms: C_1  and  C_2
REMARK    2  A    between atoms: C_11  and  C_12
REMARK    3  A    between atoms: C_12  and  C_13
REMARK                            x       y       z     vdW  Elec       q    Type
REMARK                         _______ _______ _______ _____ _____    ______ ____
ROOT
ATOM      1  C   UNL     1       2.452   4.026  21.115  0.00  0.00    +0.000 C 
ATOM      2  C   UNL     1       2.484   5.204  20.179  0.00  0.00    +0.000 A 
ATOM      3  C   UNL     1       1.870   6.395  20.605  0.00  0.00    +0.000 A 
ATOM      4  C   UNL     1       1.817   7.534  19.791  0.00  0.00    +0.000 A 
ATOM      5  C   UNL     1       1.182   8.708  20.226  0.00  0.00    +0.000 A 
ATOM      6  C   UNL     1       1.130   9.835  19.407  0.00  0.00    +0.000 A 
ATOM      7  C   UNL     1       1.713   9.799  18.144  0.00  0.00    +0.000 A 
ATOM      8  C   UNL     1       2.346   8.636  17.698  0.00  0.00    +0.000 A 
ATOM      9  C   UNL     1       2.406   7.492  18.511  0.00  0.00    +0.000 A 
ATOM     10  C   UNL     1       3.016   6.300  18.080  0.00  0.00    +0.000 A 
ATOM     11  C   UNL     1       3.045   5.145  18.888  0.00  0.00    +0.000 A 
ENDROOT
BRANCH  11  12
ATOM     12  C   UNL     1       3.653   3.882  18.310  0.00  0.00    +0.000 C 
BRANCH  12  13
ATOM     13  C   UNL     1       4.871   4.087  17.435  0.00  0.00    +0.000 C 
ATOM     14  N   UNL     1       4.789   3.847  16.156  0.00  0.00    +0.000 NA
ATOM     15  O   UNL     1       6.050   4.170  15.566  0.00  0.00    +0.000 OA
ATOM     16  S   UNL     1       7.119   4.630  16.688  0.00  0.00    +0.000 S 
ATOM     17  O   UNL     1       7.447   6.079  16.496  0.00  0.00    +0.000 OA
ATOM     18  N   UNL     1       6.076   4.472  17.962  0.00  0.00    +0.000 N 
ATOM     19  H   UNL     1       6.055   5.221  18.644  0.00  0.00    +0.000 HD
ENDBRANCH  12  13
ENDBRANCH  11  12
TORSDOF 2
ENDMDL
MODEL 6
REMARK VINA RESULT:      -7.4      1.250      1.410
REMARK  Name = 
REMARK  3 active torsions:
REMARK  status: ('A' for Active; 'I' for Inactive)
REMARK    1  A    between atoms: C_1  and  C_2
REMARK    2  A    between atoms: C_11  and  C_12
REMARK    3  A    between atoms: C_12  and  C_13
REMARK                            x       y       z     vdW  Elec       q    Type
REMARK                         _______ _______ _______ _____ _____    ______ ____
ROOT
ATOM      1  C   UNL     1       4.703   7.119  17.066  0.00  0.00    +0.000 C 
ATOM      2  C   UNL     1       4.398   5.898  17.892  0.00  0.00    +0.000 A 
ATOM      3  C   UNL     1       3.193   5.882  18.615  0.00  0.00    +0.000 A 
ATOM      4  C   UNL     1       2.838   4.806  19.439  0.00  0.00    +0.000 A 
ATOM      5  C   UNL     1       1.639   4.816  20.170  0.00  0.00    +0.000 A 
ATOM      6  C   UNL     1       1.297   3.743  20.992  0.00  0.00    +0.000 A 
ATOM      7  C   UNL     1       2.150   2.648  21.092  0.00  0.00    +0.000 A 
ATOM      8  C   UNL     1       3.348   2.627  20.373  0.00  0.00    +0.000 A 
ATOM      9  C   UNL     1       3.708   3.701  19.541  0.00  0.00    +0.000 A 
ATOM     10  C   UNL     1       4.917   3.717  18.823  0.00  0.00    +0.000 A 
ATOM     11  C   UNL     1       5.288   4.812  18.015  0.00  0.00    +0.000 A 
ENDROOT
BRANCH  11  12
ATOM     12  C   UNL     1       6.646   4.777  17.342  0.00  0.00    +0.000 C 
BRANCH  12  13
ATOM     13  C   UNL     1       6.623   4.773  15.828  0.00  0.00    +0.000 C 
ATOM     14  N   UNL     1       7.525   5.448  15.172  0.00  0.00    +0.000 NA
ATOM     15  O   UNL     1       7.309   5.230  13.776  0.00  0.00    +0.000 OA
ATOM     16  S   UNL     1       6.005   4.308  13.524  0.00  0.00    +0.000 S 
ATOM     17  O   UNL     1       6.431   2.992  12.951  0.00  0.00    +0.000 OA
ATOM     18  N   UNL     1       5.647   4.114  15.128  0.00  0.00    +0.000 N 
ATOM     19  H   UNL     1       5.412   3.181  15.443  0.00  0.00    +0.000 HD
ENDBRANCH  12  13
ENDBRANCH  11  12
TORSDOF 2
ENDMDL
MODEL 7
REMARK VINA RESULT:      -7.4      1.481      2.371
REMARK  Name = 
REMARK  3 active torsions:
REMARK  status: ('A' for Active; 'I' for Inactive)
REMARK    1  A    between atoms: C_1  and  C_2
REMARK    2  A    between atoms: C_11  and  C_12
REMARK    3  A    between atoms: C_12  and  C_13
REMARK                            x       y       z     vdW  Elec       q    Type
REMARK                         _______ _______ _______ _____ _____    ______ ____
ROOT
ATOM      1  C   UNL     1       6.708   5.631  18.943  0.00  0.00    +0.000 C 
ATOM      2  C   UNL     1       5.274   5.200  18.794  0.00  0.00    +0.000 A 
ATOM      3  C   UNL     1       4.734   4.369  19.791  0.00  0.00    +0.000 A 
ATOM      4  C   UNL     1       3.421   3.887  19.722  0.00  0.00    +0.000 A 
ATOM      5  C   UNL     1       2.904   3.042  20.718  0.00  0.00    +0.000 A 
ATOM      6  C   UNL     1       1.598   2.563  20.638  0.00  0.00    +0.000 A 
ATOM      7  C   UNL     1       0.792   2.924  19.562  0.00  0.00    +0.000 A 
ATOM      8  C   UNL     1       1.295   3.763  18.563  0.00  0.00    +0.000 A 
ATOM      9  C   UNL     1       2.610   4.253  18.628  0.00  0.00    +0.000 A 
ATOM     10  C   UNL     1       3.149   5.080  17.626  0.00  0.00    +0.000 A 
ATOM     11  C   UNL     1       4.480   5.543  17.681  0.00  0.00    +0.000 A 
ENDROOT
BRANCH  11  12
ATOM     12  C   UNL     1       5.001   6.362  16.517  0.00  0.00    +0.000 C 
BRANCH  12  13
ATOM     13  C   UNL     1       5.768   5.588  15.467  0.00  0.00    +0.000 C 
ATOM     14  N   UNL     1       5.139   4.720  14.724  0.00  0.00    +0.000 NA
ATOM     15  O   UNL     1       6.076   4.179  13.790  0.00  0.00    +0.000 OA
ATOM     16  S   UNL     1       7.560   4.770  14.042  0.00  0.00    +0.000 S 
ATOM     17  O   UNL     1       7.957   5.626  12.879  0.00  0.00    +0.000 OA
ATOM     18  N   UNL     1       7.120   5.741  15.308  0.00  0.00    +0.000 N 
ATOM     19  H   UNL     1       7.475   6.690  15.313  0.00  0.00    +0.000 HD
ENDBRANCH  12  13
ENDBRANCH  11  12
TORSDOF 2
ENDMDL
MODEL 8
REMARK VINA RESULT:      -7.3      2.049      2.773
REMARK  Name = 
REMARK  3 active torsions:
REMARK  status: ('A' for Active; 'I' for Inactive)
REMARK    1  A    between atoms: C_1  and  C_2
REMARK    2  A    between atoms: C_11  and  C_12
REMARK    3  A    between atoms: C_12  and  C_13
REMARK                            x       y       z     vdW  Elec       q    Type
REMARK                         _______ _______ _______ _____ _____    ______ ____
ROOT
ATOM      1  C   UNL     1       7.431   5.757  19.285  0.00  0.00    +0.000 C 
ATOM      2  C   UNL     1       6.160   5.201  18.702  0.00  0.00    +0.000 A 
ATOM      3  C   UNL     1       4.995   5.267  19.488  0.00  0.00    +0.000 A 
ATOM      4  C   UNL     1       3.773   4.745  19.046  0.00  0.00    +0.000 A 
ATOM      5  C   UNL     1       2.625   4.803  19.852  0.00  0.00    +0.000 A 
ATOM      6  C   UNL     1       1.414   4.276  19.407  0.00  0.00    +0.000 A 
ATOM      7  C   UNL     1       1.338   3.686  18.148  0.00  0.00    +0.000 A 
ATOM      8  C   UNL     1       2.473   3.619  17.337  0.00  0.00    +0.000 A 
ATOM      9  C   UNL     1       3.702   4.145  17.773  0.00  0.00    +0.000 A 
ATOM     10  C   UNL     1       4.866   4.072  16.986  0.00  0.00    +0.000 A 
ATOM     11  C   UNL     1       6.103   4.572  17.442  0.00  0.00    +0.000 A 
ENDROOT
BRANCH  11  12
ATOM     12  C   UNL     1       7.321   4.378  16.561  0.00  0.00    +0.000 C 
BRANCH  12  13
ATOM     13  C   UNL     1       7.074   4.493  15.073  0.00  0.00    +0.000 C 
ATOM     14  N   UNL     1       7.649   5.452  14.400  0.00  0.00    +0.000 NA
ATOM     15  O   UNL     1       7.294   5.298  13.024  0.00  0.00    +0.000 OA
ATOM     16  S   UNL     1       6.269   4.064  12.820  0.00  0.00    +0.000 S 
ATOM     17  O   UNL     1       6.948   2.978  12.044  0.00  0.00    +0.000 OA
ATOM     18  N   UNL     1       6.222   3.643  14.419  0.00  0.00    +0.000 N 
ATOM     19  H   UNL     1       6.300   2.658  14.645  0.00  0.00    +0.000 HD
ENDBRANCH  12  13
ENDBRANCH  11  12
TORSDOF 2
ENDMDL
MODEL 9
REMARK VINA RESULT:      -7.3      2.256      4.342
REMARK  Name = 
REMARK  3 active torsions:
REMARK  status: ('A' for Active; 'I' for Inactive)
REMARK    1  A    between atoms: C_1  and  C_2
REMARK    2  A    between atoms: C_11  and  C_12
REMARK    3  A    between atoms: C_12  and  C_13
REMARK                            x       y       z     vdW  Elec       q    Type
REMARK                         _______ _______ _______ _____ _____    ______ ____
ROOT
ATOM      1  C   UNL     1       2.941   4.474  20.175  0.00  0.00    +0.000 C 
ATOM      2  C   UNL     1       2.727   5.820  19.536  0.00  0.00    +0.000 A 
ATOM      3  C   UNL     1       2.003   6.781  20.262  0.00  0.00    +0.000 A 
ATOM      4  C   UNL     1       1.723   8.050  19.737  0.00  0.00    +0.000 A 
ATOM      5  C   UNL     1       0.981   8.990  20.468  0.00  0.00    +0.000 A 
ATOM      6  C   UNL     1       0.703  10.248  19.936  0.00  0.00    +0.000 A 
ATOM      7  C   UNL     1       1.164  10.579  18.665  0.00  0.00    +0.000 A 
ATOM      8  C   UNL     1       1.902   9.651  17.926  0.00  0.00    +0.000 A 
ATOM      9  C   UNL     1       2.190   8.379  18.448  0.00  0.00    +0.000 A 
ATOM     10  C   UNL     1       2.910   7.417  17.717  0.00  0.00    +0.000 A 
ATOM     11  C   UNL     1       3.168   6.131  18.234  0.00  0.00    +0.000 A 
ENDROOT
BRANCH  11  12
ATOM     12  C   UNL     1       3.882   5.132  17.344  0.00  0.00    +0.000 C 
BRANCH  12  13
ATOM     13  C   UNL     1       5.394   5.160  17.415  0.00  0.00    +0.000 C 
ATOM     14  N   UNL     1       6.053   6.019  16.688  0.00  0.00    +0.000 NA
ATOM     15  O   UNL     1       7.443   5.870  16.983  0.00  0.00    +0.000 OA
ATOM     16  S   UNL     1       7.692   4.664  18.031  0.00  0.00    +0.000 S 
ATOM     17  O   UNL     1       8.192   5.226  19.326  0.00  0.00    +0.000 OA
ATOM     18  N   UNL     1       6.092   4.272  18.189  0.00  0.00    +0.000 N 
ATOM     19  H   UNL     1       5.742   4.111  19.126  0.00  0.00    +0.000 HD
ENDBRANCH  12  13
ENDBRANCH  11  12
TORSDOF 2
ENDMDL
