MODEL 1
REMARK VINA RESULT:      -8.0      0.000      0.000
REMARK  Name = 
REMARK  3 active torsions:
REMARK  status: ('A' for Active; 'I' for Inactive)
REMARK    1  A    between atoms: C_1  and  C_2
REMARK    2  A    between atoms: C_6  and  C_7
REMARK    3  A    between atoms: C_19  and  C_20
REMARK                            x       y       z     vdW  Elec       q    Type
REMARK                         _______ _______ _______ _____ _____    ______ ____
ROOT
ATOM      1  C   UNL     1       2.431   5.572  19.937  0.00  0.00    +0.000 A 
ATOM      2  C   UNL     1       1.630   5.241  21.020  0.00  0.00    +0.000 A 
ATOM      3  N   UNL     1       1.988   3.998  21.453  0.00  0.00    +0.000 N 
ATOM      4  C   UNL     1       2.994   3.507  20.675  0.00  0.00    +0.000 A 
ATOM      5  N   UNL     1       3.515   2.285  20.843  0.00  0.00    +0.000 NA
ATOM      6  C   UNL     1       4.470   2.039  19.932  0.00  0.00    +0.000 A 
ATOM      7  N   UNL     1       4.920   2.854  18.973  0.00  0.00    +0.000 NA
ATOM      8  C   UNL     1       4.408   4.110  18.850  0.00  0.00    +0.000 A 
ATOM      9  N   UNL     1       4.928   4.920  17.857  0.00  0.00    +0.000 N 
ATOM     10  C   UNL     1       5.376   4.314  16.607  0.00  0.00    +0.000 C 
ATOM     11  C   UNL     1       6.869   4.524  16.375  0.00  0.00    +0.000 C 
ATOM     12  C   UNL     1       7.280   5.979  16.591  0.00  0.00    +0.000 C 
ATOM     13  C   UNL     1       6.844   6.499  17.964  0.00  0.00    +0.000 C 
ATOM     14  C   UNL     1       7.638   5.889  19.118  0.00  0.00    +0.000 C 
ATOM     15  C   UNL     1       5.341   6.292  18.146  0.00  0.00    +0.000 C 
ATOM     16  C   UNL     1       3.348   4.466  19.729  0.00  0.00    +0.000 A 
ATOM     17  H   UNL     1       1.569   3.482  22.212  0.00  0.00    +0.000 HD
ENDROOT
BRANCH   1  23
ATOM     18  C   UNL     1       1.017  10.384  19.797  0.00  0.00    +0.000 C 
ATOM     19  C   UNL     1       1.654   9.187  19.167  0.00  0.00    +0.000 A 
ATOM     20  C   UNL     1       2.121   9.220  17.860  0.00  0.00    +0.000 A 
ATOM     21  N   UNL     1       2.568   8.136  17.195  0.00  0.00    +0.000 NA
ATOM     22  C   UNL     1       2.580   6.963  17.879  0.00  0.00    +0.000 A 
ATOM     23  C   UNL     1       2.250   6.832  19.222  0.00  0.00    +0.000 A 
ATOM     24  C   UNL     1       1.749   7.973  19.859  0.00  0.00    +0.000 A 
ENDBRANCH   1  23
TORSDOF 1
ENDMDL
MODEL 2
REMARK VINA RESULT:      -7.8      1.488      1.775
REMARK  Name = 
REMARK  3 active torsions:
REMARK  status: ('A' for Active; 'I' for Inactive)
REMARK    1  A    between atoms: C_1  and  C_2
REMARK    2  A    between atoms: C_6  and  C_7
REMARK    3  A    between atoms: C_19  and  C_20
REMARK                            x       y       z     vdW  Elec       q    Type
REMARK                         _______ _______ _______ _____ _____    ______ ____
ROOT
ATOM      1  C   UNL     1       1.946   4.857  19.766  0.00  0.00    +0.000 A 
ATOM      2  C   UNL     1       1.101   4.073  20.538  0.00  0.00    +0.000 A 
ATOM      3  N   UNL     1       1.354   2.763  20.253  0.00  0.00    +0.000 N 
ATOM      4  C   UNL     1       2.334   2.673  19.310  0.00  0.00    +0.000 A 
ATOM      5  N   UNL     1       2.755   1.507  18.806  0.00  0.00    +0.000 NA
ATOM      6  C   UNL     1       3.706   1.698  17.877  0.00  0.00    +0.000 A 
ATOM      7  N   UNL     1       4.236   2.856  17.470  0.00  0.00    +0.000 NA
ATOM      8  C   UNL     1       3.825   4.028  18.031  0.00  0.00    +0.000 A 
ATOM      9  N   UNL     1       4.425   5.194  17.592  0.00  0.00    +0.000 N 
ATOM     10  C   UNL     1       4.849   5.294  16.198  0.00  0.00    +0.000 C 
ATOM     11  C   UNL     1       6.358   5.480  16.074  0.00  0.00    +0.000 C 
ATOM     12  C   UNL     1       6.876   6.574  17.004  0.00  0.00    +0.000 C 
ATOM     13  C   UNL     1       6.456   6.336  18.458  0.00  0.00    +0.000 C 
ATOM     14  C   UNL     1       7.177   5.157  19.107  0.00  0.00    +0.000 C 
ATOM     15  C   UNL     1       4.938   6.180  18.541  0.00  0.00    +0.000 C 
ATOM     16  C   UNL     1       2.779   3.954  18.992  0.00  0.00    +0.000 A 
ATOM     17  H   UNL     1       0.881   1.961  20.643  0.00  0.00    +0.000 HD
ENDROOT
BRANCH   1  23
ATOM     18  C   UNL     1       2.105   9.343  17.524  0.00  0.00    +0.000 C 
ATOM     19  C   UNL     1       1.863   8.487  18.726  0.00  0.00    +0.000 A 
ATOM     20  C   UNL     1       1.544   9.043  19.958  0.00  0.00    +0.000 A 
ATOM     21  N   UNL     1       1.459   8.334  21.102  0.00  0.00    +0.000 NA
ATOM     22  C   UNL     1       1.671   6.996  21.006  0.00  0.00    +0.000 A 
ATOM     23  C   UNL     1       1.878   6.314  19.814  0.00  0.00    +0.000 A 
ATOM     24  C   UNL     1       2.003   7.095  18.659  0.00  0.00    +0.000 A 
ENDBRANCH   1  23
TORSDOF 1
ENDMDL
MODEL 3
REMARK VINA RESULT:      -7.6      1.233      1.293
REMARK  Name = 
REMARK  3 active torsions:
REMARK  status: ('A' for Active; 'I' for Inactive)
REMARK    1  A    between atoms: C_1  and  C_2
REMARK    2  A    between atoms: C_6  and  C_7
REMARK    3  A    between atoms: C_19  and  C_20
REMARK                            x       y       z     vdW  Elec       q    Type
REMARK                         _______ _______ _______ _____ _____    ______ ____
ROOT
ATOM      1  C   UNL     1       1.933   4.836  19.593  0.00  0.00    +0.000 A 
ATOM      2  C   UNL     1       1.086   4.115  20.422  0.00  0.00    +0.000 A 
ATOM      3  N   UNL     1       1.373   2.790  20.280  0.00  0.00    +0.000 N 
ATOM      4  C   UNL     1       2.378   2.627  19.373  0.00  0.00    +0.000 A 
ATOM      5  N   UNL     1       2.836   1.425  19.001  0.00  0.00    +0.000 NA
ATOM      6  C   UNL     1       3.806   1.543  18.080  0.00  0.00    +0.000 A 
ATOM      7  N   UNL     1       4.321   2.665  17.568  0.00  0.00    +0.000 NA
ATOM      8  C   UNL     1       3.872   3.878  17.995  0.00  0.00    +0.000 A 
ATOM      9  N   UNL     1       4.458   5.006  17.452  0.00  0.00    +0.000 N 
ATOM     10  C   UNL     1       4.914   4.973  16.066  0.00  0.00    +0.000 C 
ATOM     11  C   UNL     1       6.421   5.181  15.957  0.00  0.00    +0.000 C 
ATOM     12  C   UNL     1       6.892   6.377  16.781  0.00  0.00    +0.000 C 
ATOM     13  C   UNL     1       6.441   6.279  18.242  0.00  0.00    +0.000 C 
ATOM     14  C   UNL     1       7.171   5.190  19.026  0.00  0.00    +0.000 C 
ATOM     15  C   UNL     1       4.926   6.096  18.306  0.00  0.00    +0.000 C 
ATOM     16  C   UNL     1       2.804   3.879  18.935  0.00  0.00    +0.000 A 
ATOM     17  H   UNL     1       0.908   2.021  20.739  0.00  0.00    +0.000 HD
ENDROOT
BRANCH   1  23
ATOM     18  C   UNL     1       1.173   9.348  21.652  0.00  0.00    +0.000 C 
ATOM     19  C   UNL     1       1.556   8.484  20.493  0.00  0.00    +0.000 A 
ATOM     20  C   UNL     1       1.850   9.030  19.250  0.00  0.00    +0.000 A 
ATOM     21  N   UNL     1       2.057   8.297  18.138  0.00  0.00    +0.000 NA
ATOM     22  C   UNL     1       2.000   6.948  18.279  0.00  0.00    +0.000 A 
ATOM     23  C   UNL     1       1.833   6.288  19.489  0.00  0.00    +0.000 A 
ATOM     24  C   UNL     1       1.576   7.089  20.609  0.00  0.00    +0.000 A 
ENDBRANCH   1  23
TORSDOF 1
ENDMDL
MODEL 4
REMARK VINA RESULT:      -7.5      1.665      4.418
REMARK  Name = 
REMARK  3 active torsions:
REMARK  status: ('A' for Active; 'I' for Inactive)
REMARK    1  A    between atoms: C_1  and  C_2
REMARK    2  A    between atoms: C_6  and  C_7
REMARK    3  A    between atoms: C_19  and  C_20
REMARK                            x       y       z     vdW  Elec       q    Type
REMARK                         _______ _______ _______ _____ _____    ______ ____
ROOT
ATOM      1  C   UNL     1       3.613   7.126  17.707  0.00  0.00    +0.000 A 
ATOM      2  C   UNL     1       4.309   7.671  16.637  0.00  0.00    +0.000 A 
ATOM      3  N   UNL     1       5.286   6.793  16.270  0.00  0.00    +0.000 N 
ATOM      4  C   UNL     1       5.252   5.696  17.078  0.00  0.00    +0.000 A 
ATOM      5  N   UNL     1       6.128   4.688  16.976  0.00  0.00    +0.000 NA
ATOM      6  C   UNL     1       5.891   3.748  17.904  0.00  0.00    +0.000 A 
ATOM      7  N   UNL     1       4.921   3.726  18.823  0.00  0.00    +0.000 NA
ATOM      8  C   UNL     1       4.012   4.740  18.879  0.00  0.00    +0.000 A 
ATOM      9  N   UNL     1       3.014   4.655  19.832  0.00  0.00    +0.000 N 
ATOM     10  C   UNL     1       3.308   4.022  21.114  0.00  0.00    +0.000 C 
ATOM     11  C   UNL     1       2.455   2.778  21.344  0.00  0.00    +0.000 C 
ATOM     12  C   UNL     1       0.978   3.039  21.057  0.00  0.00    +0.000 C 
ATOM     13  C   UNL     1       0.761   3.620  19.656  0.00  0.00    +0.000 C 
ATOM     14  C   UNL     1       1.010   2.607  18.540  0.00  0.00    +0.000 C 
ATOM     15  C   UNL     1       1.614   4.875  19.476  0.00  0.00    +0.000 C 
ATOM     16  C   UNL     1       4.195   5.824  17.976  0.00  0.00    +0.000 A 
ATOM     17  H   UNL     1       5.966   6.923  15.536  0.00  0.00    +0.000 HD
ENDROOT
BRANCH   1  23
ATOM     18  C   UNL     1       0.994   8.396  21.793  0.00  0.00    +0.000 C 
ATOM     19  C   UNL     1       1.312   8.551  20.341  0.00  0.00    +0.000 A 
ATOM     20  C   UNL     1       0.593   9.420  19.531  0.00  0.00    +0.000 A 
ATOM     21  N   UNL     1       0.738   9.493  18.192  0.00  0.00    +0.000 NA
ATOM     22  C   UNL     1       1.672   8.680  17.636  0.00  0.00    +0.000 A 
ATOM     23  C   UNL     1       2.531   7.859  18.355  0.00  0.00    +0.000 A 
ATOM     24  C   UNL     1       2.314   7.781  19.736  0.00  0.00    +0.000 A 
ENDBRANCH   1  23
TORSDOF 1
ENDMDL
MODEL 5
REMARK VINA RESULT:      -7.5      1.768      5.040
REMARK  Name = 
REMARK  3 active torsions:
REMARK  status: ('A' for Active; 'I' for Inactive)
REMARK    1  A    between atoms: C_1  and  C_2
REMARK    2  A    between atoms: C_6  and  C_7
REMARK    3  A    between atoms: C_19  and  C_20
REMARK                            x       y       z     vdW  Elec       q    Type
REMARK                         _______ _______ _______ _____ _____    ______ ____
ROOT
ATOM      1  C   UNL     1       3.912   3.762  17.821  0.00  0.00    +0.000 A 
ATOM      2  C   UNL     1       3.884   2.467  17.322  0.00  0.00    +0.000 A 
ATOM      3  N   UNL     1       2.736   1.868  17.749  0.00  0.00    +0.000 N 
ATOM      4  C   UNL     1       2.019   2.734  18.520  0.00  0.00    +0.000 A 
ATOM      5  N   UNL     1       0.866   2.400  19.113  0.00  0.00    +0.000 NA
ATOM      6  C   UNL     1       0.380   3.423  19.834  0.00  0.00    +0.000 A 
ATOM      7  N   UNL     1       0.896   4.648  19.974  0.00  0.00    +0.000 NA
ATOM      8  C   UNL     1       2.046   4.981  19.324  0.00  0.00    +0.000 A 
ATOM      9  N   UNL     1       2.522   6.270  19.483  0.00  0.00    +0.000 N 
ATOM     10  C   UNL     1       2.317   6.951  20.757  0.00  0.00    +0.000 C 
ATOM     11  C   UNL     1       1.456   8.202  20.603  0.00  0.00    +0.000 C 
ATOM     12  C   UNL     1       1.933   9.082  19.449  0.00  0.00    +0.000 C 
ATOM     13  C   UNL     1       2.032   8.300  18.135  0.00  0.00    +0.000 C 
ATOM     14  C   UNL     1       0.671   7.923  17.555  0.00  0.00    +0.000 C 
ATOM     15  C   UNL     1       2.921   7.072  18.328  0.00  0.00    +0.000 C 
ATOM     16  C   UNL     1       2.684   3.957  18.570  0.00  0.00    +0.000 A 
ATOM     17  H   UNL     1       2.448   0.919  17.564  0.00  0.00    +0.000 HD
ENDROOT
BRANCH   1  23
ATOM     18  C   UNL     1       8.107   6.060  19.334  0.00  0.00    +0.000 C 
ATOM     19  C   UNL     1       7.130   5.688  18.266  0.00  0.00    +0.000 A 
ATOM     20  C   UNL     1       7.265   6.157  16.966  0.00  0.00    +0.000 A 
ATOM     21  N   UNL     1       6.340   5.975  16.002  0.00  0.00    +0.000 NA
ATOM     22  C   UNL     1       5.238   5.261  16.343  0.00  0.00    +0.000 A 
ATOM     23  C   UNL     1       5.049   4.642  17.572  0.00  0.00    +0.000 A 
ATOM     24  C   UNL     1       6.012   4.895  18.556  0.00  0.00    +0.000 A 
ENDBRANCH   1  23
TORSDOF 1
ENDMDL
MODEL 6
REMARK VINA RESULT:      -7.4      8.424     12.240
REMARK  Name = 
REMARK  3 active torsions:
REMARK  status: ('A' for Active; 'I' for Inactive)
REMARK    1  A    between atoms: C_1  and  C_2
REMARK    2  A    between atoms: C_6  and  C_7
REMARK    3  A    between atoms: C_19  and  C_20
REMARK                            x       y       z     vdW  Elec       q    Type
REMARK                         _______ _______ _______ _____ _____    ______ ____
ROOT
ATOM      1  C   UNL     1      -3.861  12.766  22.737  0.00  0.00    +0.000 A 
ATOM      2  C   UNL     1      -3.607  12.493  24.073  0.00  0.00    +0.000 A 
ATOM      3  N   UNL     1      -4.803  12.384  24.722  0.00  0.00    +0.000 N 
ATOM      4  C   UNL     1      -5.827  12.589  23.845  0.00  0.00    +0.000 A 
ATOM      5  N   UNL     1      -7.113  12.587  24.215  0.00  0.00    +0.000 NA
ATOM      6  C   UNL     1      -7.916  12.839  23.169  0.00  0.00    +0.000 A 
ATOM      7  N   UNL     1      -7.566  13.049  21.896  0.00  0.00    +0.000 NA
ATOM      8  C   UNL     1      -6.253  13.001  21.534  0.00  0.00    +0.000 A 
ATOM      9  N   UNL     1      -5.949  13.198  20.200  0.00  0.00    +0.000 N 
ATOM     10  C   UNL     1      -6.771  14.110  19.411  0.00  0.00    +0.000 C 
ATOM     11  C   UNL     1      -7.474  13.394  18.261  0.00  0.00    +0.000 C 
ATOM     12  C   UNL     1      -6.514  12.512  17.467  0.00  0.00    +0.000 C 
ATOM     13  C   UNL     1      -5.762  11.527  18.369  0.00  0.00    +0.000 C 
ATOM     14  C   UNL     1      -6.652  10.416  18.920  0.00  0.00    +0.000 C 
ATOM     15  C   UNL     1      -5.053  12.287  19.489  0.00  0.00    +0.000 C 
ATOM     16  C   UNL     1      -5.302  12.793  22.571  0.00  0.00    +0.000 A 
ATOM     17  H   UNL     1      -4.939  12.210  25.706  0.00  0.00    +0.000 HD
ENDROOT
BRANCH   1  23
ATOM     18  C   UNL     1       0.019  11.088  20.034  0.00  0.00    +0.000 C 
ATOM     19  C   UNL     1      -0.947  12.165  20.410  0.00  0.00    +0.000 A 
ATOM     20  C   UNL     1      -0.860  13.439  19.863  0.00  0.00    +0.000 A 
ATOM     21  N   UNL     1      -1.608  14.484  20.271  0.00  0.00    +0.000 NA
ATOM     22  C   UNL     1      -2.511  14.239  21.254  0.00  0.00    +0.000 A 
ATOM     23  C   UNL     1      -2.770  12.986  21.792  0.00  0.00    +0.000 A 
ATOM     24  C   UNL     1      -1.940  11.939  21.372  0.00  0.00    +0.000 A 
ENDBRANCH   1  23
TORSDOF 1
ENDMDL
MODEL 7
REMARK VINA RESULT:      -7.4      7.362     10.081
REMARK  Name = 
REMARK  3 active torsions:
REMARK  status: ('A' for Active; 'I' for Inactive)
REMARK    1  A    between atoms: C_1  and  C_2
REMARK    2  A    between atoms: C_6  and  C_7
REMARK    3  A    between atoms: C_19  and  C_20
REMARK                            x       y       z     vdW  Elec       q    Type
REMARK                         _______ _______ _______ _____ _____    ______ ____
ROOT
ATOM      1  C   UNL     1      -4.721  12.403  19.625  0.00  0.00    +0.000 A 
ATOM      2  C   UNL     1      -6.011  12.059  19.248  0.00  0.00    +0.000 A 
ATOM      3  N   UNL     1      -5.950  11.431  18.039  0.00  0.00    +0.000 N 
ATOM      4  C   UNL     1      -4.657  11.366  17.614  0.00  0.00    +0.000 A 
ATOM      5  N   UNL     1      -4.303  10.840  16.434  0.00  0.00    +0.000 NA
ATOM      6  C   UNL     1      -2.976  10.923  16.248  0.00  0.00    +0.000 A 
ATOM      7  N   UNL     1      -2.059  11.420  17.083  0.00  0.00    +0.000 NA
ATOM      8  C   UNL     1      -2.436  11.907  18.298  0.00  0.00    +0.000 A 
ATOM      9  N   UNL     1      -1.443  12.385  19.133  0.00  0.00    +0.000 N 
ATOM     10  C   UNL     1      -0.273  13.032  18.548  0.00  0.00    +0.000 C 
ATOM     11  C   UNL     1       1.014  12.274  18.863  0.00  0.00    +0.000 C 
ATOM     12  C   UNL     1       1.121  11.925  20.345  0.00  0.00    +0.000 C 
ATOM     13  C   UNL     1      -0.114  11.170  20.847  0.00  0.00    +0.000 C 
ATOM     14  C   UNL     1      -0.209   9.745  20.308  0.00  0.00    +0.000 C 
ATOM     15  C   UNL     1      -1.376  11.974  20.534  0.00  0.00    +0.000 C 
ATOM     16  C   UNL     1      -3.829  11.922  18.586  0.00  0.00    +0.000 A 
ATOM     17  H   UNL     1      -6.731  11.085  17.501  0.00  0.00    +0.000 HD
ENDROOT
BRANCH   1  23
ATOM     18  C   UNL     1      -4.344  12.594  24.625  0.00  0.00    +0.000 C 
ATOM     19  C   UNL     1      -4.192  13.218  23.275  0.00  0.00    +0.000 A 
ATOM     20  C   UNL     1      -3.784  14.538  23.130  0.00  0.00    +0.000 A 
ATOM     21  N   UNL     1      -3.770  15.194  21.952  0.00  0.00    +0.000 NA
ATOM     22  C   UNL     1      -4.153  14.489  20.857  0.00  0.00    +0.000 A 
ATOM     23  C   UNL     1      -4.466  13.136  20.861  0.00  0.00    +0.000 A 
ATOM     24  C   UNL     1      -4.511  12.507  22.112  0.00  0.00    +0.000 A 
ENDBRANCH   1  23
TORSDOF 1
ENDMDL
MODEL 8
REMARK VINA RESULT:      -7.2      8.563     11.747
REMARK  Name = 
REMARK  3 active torsions:
REMARK  status: ('A' for Active; 'I' for Inactive)
REMARK    1  A    between atoms: C_1  and  C_2
REMARK    2  A    between atoms: C_6  and  C_7
REMARK    3  A    between atoms: C_19  and  C_20
REMARK                            x       y       z     vdW  Elec       q    Type
REMARK                         _______ _______ _______ _____ _____    ______ ____
ROOT
ATOM      1  C   UNL     1      10.786  13.398  18.063  0.00  0.00    +0.000 A 
ATOM      2  C   UNL     1      12.023  13.315  17.440  0.00  0.00    +0.000 A 
ATOM      3  N   UNL     1      12.333  14.545  16.938  0.00  0.00    +0.000 N 
ATOM      4  C   UNL     1      11.328  15.424  17.209  0.00  0.00    +0.000 A 
ATOM      5  N   UNL     1      11.342  16.697  16.795  0.00  0.00    +0.000 NA
ATOM      6  C   UNL     1      10.224  17.339  17.172  0.00  0.00    +0.000 A 
ATOM      7  N   UNL     1       9.201  16.858  17.885  0.00  0.00    +0.000 NA
ATOM      8  C   UNL     1       9.229  15.573  18.335  0.00  0.00    +0.000 A 
ATOM      9  N   UNL     1       8.157  15.135  19.091  0.00  0.00    +0.000 N 
ATOM     10  C   UNL     1       6.825  15.656  18.803  0.00  0.00    +0.000 C 
ATOM     11  C   UNL     1       6.246  16.426  19.986  0.00  0.00    +0.000 C 
ATOM     12  C   UNL     1       6.386  15.649  21.293  0.00  0.00    +0.000 C 
ATOM     13  C   UNL     1       7.833  15.221  21.554  0.00  0.00    +0.000 C 
ATOM     14  C   UNL     1       8.751  16.389  21.910  0.00  0.00    +0.000 C 
ATOM     15  C   UNL     1       8.365  14.434  20.357  0.00  0.00    +0.000 C 
ATOM     16  C   UNL     1      10.343  14.776  17.952  0.00  0.00    +0.000 A 
ATOM     17  H   UNL     1      13.160  14.789  16.414  0.00  0.00    +0.000 HD
ENDROOT
BRANCH   1  23
ATOM     18  C   UNL     1       8.032   9.221  17.690  0.00  0.00    +0.000 C 
ATOM     19  C   UNL     1       8.904  10.150  18.473  0.00  0.00    +0.000 A 
ATOM     20  C   UNL     1       9.175   9.928  19.817  0.00  0.00    +0.000 A 
ATOM     21  N   UNL     1       9.830  10.804  20.605  0.00  0.00    +0.000 NA
ATOM     22  C   UNL     1      10.267  11.946  20.015  0.00  0.00    +0.000 A 
ATOM     23  C   UNL     1      10.160  12.222  18.658  0.00  0.00    +0.000 A 
ATOM     24  C   UNL     1       9.433  11.306  17.887  0.00  0.00    +0.000 A 
ENDBRANCH   1  23
TORSDOF 1
ENDMDL
MODEL 9
REMARK VINA RESULT:      -7.2      8.600     11.806
REMARK  Name = 
REMARK  3 active torsions:
REMARK  status: ('A' for Active; 'I' for Inactive)
REMARK    1  A    between atoms: C_1  and  C_2
REMARK    2  A    between atoms: C_6  and  C_7
REMARK    3  A    between atoms: C_19  and  C_20
REMARK                            x       y       z     vdW  Elec       q    Type
REMARK                         _______ _______ _______ _____ _____    ______ ____
ROOT
ATOM      1  C   UNL     1      -3.008  12.572  21.848  0.00  0.00    +0.000 A 
ATOM      2  C   UNL     1      -2.513  12.219  23.096  0.00  0.00    +0.000 A 
ATOM      3  N   UNL     1      -3.558  12.167  23.971  0.00  0.00    +0.000 N 
ATOM      4  C   UNL     1      -4.718  12.485  23.330  0.00  0.00    +0.000 A 
ATOM      5  N   UNL     1      -5.899  12.558  23.955  0.00  0.00    +0.000 NA
ATOM      6  C   UNL     1      -6.874  12.915  23.103  0.00  0.00    +0.000 A 
ATOM      7  N   UNL     1      -6.772  13.157  21.793  0.00  0.00    +0.000 NA
ATOM      8  C   UNL     1      -5.568  13.032  21.168  0.00  0.00    +0.000 A 
ATOM      9  N   UNL     1      -5.524  13.268  19.807  0.00  0.00    +0.000 N 
ATOM     10  C   UNL     1      -6.414  14.272  19.231  0.00  0.00    +0.000 C 
ATOM     11  C   UNL     1      -7.389  13.662  18.229  0.00  0.00    +0.000 C 
ATOM     12  C   UNL     1      -6.681  12.751  17.228  0.00  0.00    +0.000 C 
ATOM     13  C   UNL     1      -5.843  11.675  17.926  0.00  0.00    +0.000 C 
ATOM     14  C   UNL     1      -6.690  10.606  18.613  0.00  0.00    +0.000 C 
ATOM     15  C   UNL     1      -4.865  12.329  18.901  0.00  0.00    +0.000 C 
ATOM     16  C   UNL     1      -4.447  12.709  21.982  0.00  0.00    +0.000 A 
ATOM     17  H   UNL     1      -3.506  11.958  24.957  0.00  0.00    +0.000 HD
ENDROOT
BRANCH   1  23
ATOM     18  C   UNL     1      -0.275  15.508  18.834  0.00  0.00    +0.000 C 
ATOM     19  C   UNL     1      -0.718  14.157  19.297  0.00  0.00    +0.000 A 
ATOM     20  C   UNL     1      -0.288  12.998  18.665  0.00  0.00    +0.000 A 
ATOM     21  N   UNL     1      -0.766  11.769  18.944  0.00  0.00    +0.000 NA
ATOM     22  C   UNL     1      -1.698  11.687  19.927  0.00  0.00    +0.000 A 
ATOM     23  C   UNL     1      -2.116  12.756  20.707  0.00  0.00    +0.000 A 
ATOM     24  C   UNL     1      -1.628  14.020  20.353  0.00  0.00    +0.000 A 
ENDBRANCH   1  23
TORSDOF 1
ENDMDL
