MODEL 1
REMARK VINA RESULT:      -7.4      0.000      0.000
REMARK  Name = 
REMARK  6 active torsions:
REMARK  status: ('A' for Active; 'I' for Inactive)
REMARK    1  A    between atoms: C_1  and  O_2
REMARK    2  A    between atoms: O_2  and  C_3
REMARK    3  A    between atoms: C_7  and  C_8
REMARK    4  A    between atoms: N_9  and  N_10
REMARK    5  A    between atoms: C_16  and  C_17
REMARK    6  A    between atoms: C_19  and  O_20
REMARK                            x       y       z     vdW  Elec       q    Type
REMARK                         _______ _______ _______ _____ _____    ______ ____
ROOT
ATOM      1  C   UNL     1       5.237   5.239  17.324  0.00  0.00    +0.000 C 
ATOM      2  N   UNL     1       6.094   4.367  16.890  0.00  0.00    +0.000 NA
ENDROOT
BRANCH   2   3
ATOM      3  N   UNL     1       7.141   4.831  16.174  0.00  0.00    +0.000 N 
ATOM      4  C   UNL     1       7.108   4.675  14.776  0.00  0.00    +0.000 A 
ATOM      5  C   UNL     1       6.315   3.715  14.181  0.00  0.00    +0.000 A 
ATOM      6  C   UNL     1       6.322   3.698  12.813  0.00  0.00    +0.000 A 
ATOM      7 CL   UNL     1       5.332   2.599  11.946  0.00  0.00    +0.000 Cl
ATOM      8  N   UNL     1       7.047   4.519  12.045  0.00  0.00    +0.000 NA
ATOM      9  C   UNL     1       7.809   5.399  12.706  0.00  0.00    +0.000 A 
ATOM     10  C   UNL     1       8.652   6.332  11.895  0.00  0.00    +0.000 C 
ATOM     11  N   UNL     1       7.870   5.510  14.048  0.00  0.00    +0.000 NA
ATOM     12  H   UNL     1       7.678   5.655  16.436  0.00  0.00    +0.000 HD
ENDBRANCH   2   3
BRANCH   1  17
ATOM     13  C   UNL     1       3.088   3.440  19.901  0.00  0.00    +0.000 A 
ATOM     14  C   UNL     1       1.839   3.981  19.569  0.00  0.00    +0.000 A 
ATOM     15  C   UNL     1       1.698   4.900  18.525  0.00  0.00    +0.000 A 
ATOM     16  C   UNL     1       2.815   5.301  17.794  0.00  0.00    +0.000 A 
ATOM     17  C   UNL     1       4.070   4.778  18.116  0.00  0.00    +0.000 A 
ATOM     18  C   UNL     1       4.209   3.841  19.166  0.00  0.00    +0.000 A 
BRANCH  13  20
ATOM     19  C   UNL     1       1.875   2.575  21.779  0.00  0.00    +0.000 C 
ATOM     20  O   UNL     1       3.026   2.557  20.946  0.00  0.00    +0.000 OA
ENDBRANCH  13  20
BRANCH  18  21
ATOM     21  O   UNL     1       5.441   3.323  19.472  0.00  0.00    +0.000 OA
ATOM     22  H   UNL     1       5.591   2.552  18.884  0.00  0.00    +0.000 HD
ENDBRANCH  18  21
ENDBRANCH   1  17
TORSDOF 4
ENDMDL
MODEL 2
REMARK VINA RESULT:      -6.7      5.689      8.440
REMARK  Name = 
REMARK  6 active torsions:
REMARK  status: ('A' for Active; 'I' for Inactive)
REMARK    1  A    between atoms: C_1  and  O_2
REMARK    2  A    between atoms: O_2  and  C_3
REMARK    3  A    between atoms: C_7  and  C_8
REMARK    4  A    between atoms: N_9  and  N_10
REMARK    5  A    between atoms: C_16  and  C_17
REMARK    6  A    between atoms: C_19  and  O_20
REMARK                            x       y       z     vdW  Elec       q    Type
REMARK                         _______ _______ _______ _____ _____    ______ ____
ROOT
ATOM      1  C   UNL     1       1.874   5.581  20.784  0.00  0.00    +0.000 C 
ATOM      2  N   UNL     1       1.899   6.827  20.422  0.00  0.00    +0.000 NA
ENDROOT
BRANCH   2   3
ATOM      3  N   UNL     1       1.728   7.756  21.387  0.00  0.00    +0.000 N 
ATOM      4  C   UNL     1       0.887   8.849  21.111  0.00  0.00    +0.000 A 
ATOM      5  C   UNL     1       0.611   9.231  19.813  0.00  0.00    +0.000 A 
ATOM      6  C   UNL     1      -0.265  10.271  19.670  0.00  0.00    +0.000 A 
ATOM      7 CL   UNL     1      -0.745  10.805  18.113  0.00  0.00    +0.000 Cl
ATOM      8  N   UNL     1      -0.836  10.932  20.684  0.00  0.00    +0.000 NA
ATOM      9  C   UNL     1      -0.490  10.514  21.908  0.00  0.00    +0.000 A 
ATOM     10  C   UNL     1      -1.088  11.228  23.078  0.00  0.00    +0.000 C 
ATOM     11  N   UNL     1       0.354   9.494  22.164  0.00  0.00    +0.000 NA
ATOM     12  H   UNL     1       1.727   7.538  22.381  0.00  0.00    +0.000 HD
ENDBRANCH   2   3
BRANCH   1  17
ATOM     13  C   UNL     1       3.406   3.383  18.078  0.00  0.00    +0.000 A 
ATOM     14  C   UNL     1       2.337   2.501  17.874  0.00  0.00    +0.000 A 
ATOM     15  C   UNL     1       1.144   2.625  18.591  0.00  0.00    +0.000 A 
ATOM     16  C   UNL     1       1.002   3.638  19.537  0.00  0.00    +0.000 A 
ATOM     17  C   UNL     1       2.060   4.524  19.759  0.00  0.00    +0.000 A 
ATOM     18  C   UNL     1       3.262   4.403  19.027  0.00  0.00    +0.000 A 
BRANCH  13  20
ATOM     19  C   UNL     1       4.859   4.054  16.292  0.00  0.00    +0.000 C 
ATOM     20  O   UNL     1       4.487   3.106  17.283  0.00  0.00    +0.000 OA
ENDBRANCH  13  20
BRANCH  18  21
ATOM     21  O   UNL     1       4.295   5.279  19.242  0.00  0.00    +0.000 OA
ATOM     22  H   UNL     1       4.801   4.954  20.017  0.00  0.00    +0.000 HD
ENDBRANCH  18  21
ENDBRANCH   1  17
TORSDOF 4
ENDMDL
MODEL 3
REMARK VINA RESULT:      -6.7      1.096      1.180
REMARK  Name = 
REMARK  6 active torsions:
REMARK  status: ('A' for Active; 'I' for Inactive)
REMARK    1  A    between atoms: C_1  and  O_2
REMARK    2  A    between atoms: O_2  and  C_3
REMARK    3  A    between atoms: C_7  and  C_8
REMARK    4  A    between atoms: N_9  and  N_10
REMARK    5  A    between atoms: C_16  and  C_17
REMARK    6  A    between atoms: C_19  and  O_20
REMARK                            x       y       z     vdW  Elec       q    Type
REMARK                         _______ _______ _______ _____ _____    ______ ____
ROOT
ATOM      1  C   UNL     1       5.334   5.335  18.106  0.00  0.00    +0.000 C 
ATOM      2  N   UNL     1       5.701   4.594  17.107  0.00  0.00    +0.000 NA
ENDROOT
BRANCH   2   3
ATOM      3  N   UNL     1       6.863   4.909  16.495  0.00  0.00    +0.000 N 
ATOM      4  C   UNL     1       6.945   4.736  15.101  0.00  0.00    +0.000 A 
ATOM      5  C   UNL     1       6.096   3.875  14.436  0.00  0.00    +0.000 A 
ATOM      6  C   UNL     1       6.232   3.835  13.075  0.00  0.00    +0.000 A 
ATOM      7 CL   UNL     1       5.198   2.858  12.119  0.00  0.00    +0.000 Cl
ATOM      8  N   UNL     1       7.128   4.545  12.378  0.00  0.00    +0.000 NA
ATOM      9  C   UNL     1       7.929   5.331  13.107  0.00  0.00    +0.000 A 
ATOM     10  C   UNL     1       8.958   6.136  12.379  0.00  0.00    +0.000 C 
ATOM     11  N   UNL     1       7.874   5.456  14.448  0.00  0.00    +0.000 NA
ATOM     12  H   UNL     1       7.473   5.662  16.805  0.00  0.00    +0.000 HD
ENDBRANCH   2   3
BRANCH   1  17
ATOM     13  C   UNL     1       2.370   3.454  19.582  0.00  0.00    +0.000 A 
ATOM     14  C   UNL     1       1.693   4.530  20.171  0.00  0.00    +0.000 A 
ATOM     15  C   UNL     1       2.182   5.836  20.082  0.00  0.00    +0.000 A 
ATOM     16  C   UNL     1       3.372   6.089  19.400  0.00  0.00    +0.000 A 
ATOM     17  C   UNL     1       4.065   5.028  18.812  0.00  0.00    +0.000 A 
ATOM     18  C   UNL     1       3.563   3.709  18.896  0.00  0.00    +0.000 A 
BRANCH  13  20
ATOM     19  C   UNL     1       0.574   1.974  19.006  0.00  0.00    +0.000 C 
ATOM     20  O   UNL     1       1.737   2.255  19.773  0.00  0.00    +0.000 OA
ENDBRANCH  13  20
BRANCH  18  21
ATOM     21  O   UNL     1       4.242   2.671  18.309  0.00  0.00    +0.000 OA
ATOM     22  H   UNL     1       3.667   1.878  18.358  0.00  0.00    +0.000 HD
ENDBRANCH  18  21
ENDBRANCH   1  17
TORSDOF 4
ENDMDL
MODEL 4
REMARK VINA RESULT:      -6.5      6.005      8.143
REMARK  Name = 
REMARK  6 active torsions:
REMARK  status: ('A' for Active; 'I' for Inactive)
REMARK    1  A    between atoms: C_1  and  O_2
REMARK    2  A    between atoms: O_2  and  C_3
REMARK    3  A    between atoms: C_7  and  C_8
REMARK    4  A    between atoms: N_9  and  N_10
REMARK    5  A    between atoms: C_16  and  C_17
REMARK    6  A    between atoms: C_19  and  O_20
REMARK                            x       y       z     vdW  Elec       q    Type
REMARK                         _______ _______ _______ _____ _____    ______ ____
ROOT
ATOM      1  C   UNL     1       3.147   8.198  17.777  0.00  0.00    +0.000 C 
ATOM      2  N   UNL     1       1.860   8.346  17.850  0.00  0.00    +0.000 NA
ENDROOT
BRANCH   2   3
ATOM      3  N   UNL     1       1.380   9.609  17.843  0.00  0.00    +0.000 N 
ATOM      4  C   UNL     1       1.099  10.215  19.082  0.00  0.00    +0.000 A 
ATOM      5  C   UNL     1       0.869   9.459  20.213  0.00  0.00    +0.000 A 
ATOM      6  C   UNL     1       0.664  10.162  21.369  0.00  0.00    +0.000 A 
ATOM      7 CL   UNL     1       0.431   9.348  22.860  0.00  0.00    +0.000 Cl
ATOM      8  N   UNL     1       0.652  11.497  21.457  0.00  0.00    +0.000 NA
ATOM      9  C   UNL     1       0.855  12.150  20.306  0.00  0.00    +0.000 A 
ATOM     10  C   UNL     1       0.838  13.645  20.345  0.00  0.00    +0.000 C 
ATOM     11  N   UNL     1       1.079  11.559  19.115  0.00  0.00    +0.000 NA
ATOM     12  H   UNL     1       1.641  10.304  17.148  0.00  0.00    +0.000 HD
ENDBRANCH   2   3
BRANCH   1  17
ATOM     13  C   UNL     1       4.068   4.654  18.821  0.00  0.00    +0.000 A 
ATOM     14  C   UNL     1       4.814   4.276  17.697  0.00  0.00    +0.000 A 
ATOM     15  C   UNL     1       5.022   5.156  16.631  0.00  0.00    +0.000 A 
ATOM     16  C   UNL     1       4.476   6.438  16.669  0.00  0.00    +0.000 A 
ATOM     17  C   UNL     1       3.722   6.831  17.779  0.00  0.00    +0.000 A 
ATOM     18  C   UNL     1       3.522   5.942  18.860  0.00  0.00    +0.000 A 
BRANCH  13  20
ATOM     19  C   UNL     1       3.728   2.334  19.319  0.00  0.00    +0.000 C 
ATOM     20  O   UNL     1       3.978   3.661  19.760  0.00  0.00    +0.000 OA
ENDBRANCH  13  20
BRANCH  18  21
ATOM     21  O   UNL     1       2.790   6.335  19.952  0.00  0.00    +0.000 OA
ATOM     22  H   UNL     1       1.996   6.806  19.620  0.00  0.00    +0.000 HD
ENDBRANCH  18  21
ENDBRANCH   1  17
TORSDOF 4
ENDMDL
MODEL 5
REMARK VINA RESULT:      -6.5      6.065      8.389
REMARK  Name = 
REMARK  6 active torsions:
REMARK  status: ('A' for Active; 'I' for Inactive)
REMARK    1  A    between atoms: C_1  and  O_2
REMARK    2  A    between atoms: O_2  and  C_3
REMARK    3  A    between atoms: C_7  and  C_8
REMARK    4  A    between atoms: N_9  and  N_10
REMARK    5  A    between atoms: C_16  and  C_17
REMARK    6  A    between atoms: C_19  and  O_20
REMARK                            x       y       z     vdW  Elec       q    Type
REMARK                         _______ _______ _______ _____ _____    ______ ____
ROOT
ATOM      1  C   UNL     1       2.941   8.101  17.873  0.00  0.00    +0.000 C 
ATOM      2  N   UNL     1       1.724   8.531  17.748  0.00  0.00    +0.000 NA
ENDROOT
BRANCH   2   3
ATOM      3  N   UNL     1       1.520   9.860  17.873  0.00  0.00    +0.000 N 
ATOM      4  C   UNL     1       1.148  10.356  19.137  0.00  0.00    +0.000 A 
ATOM      5  C   UNL     1       0.569   9.537  20.085  0.00  0.00    +0.000 A 
ATOM      6  C   UNL     1       0.305  10.118  21.295  0.00  0.00    +0.000 A 
ATOM      7 CL   UNL     1      -0.353   9.199  22.584  0.00  0.00    +0.000 Cl
ATOM      8  N   UNL     1       0.550  11.400  21.594  0.00  0.00    +0.000 NA
ATOM      9  C   UNL     1       1.085  12.127  20.607  0.00  0.00    +0.000 A 
ATOM     10  C   UNL     1       1.366  13.570  20.883  0.00  0.00    +0.000 C 
ATOM     11  N   UNL     1       1.396  11.654  19.383  0.00  0.00    +0.000 NA
ATOM     12  H   UNL     1       2.038  10.559  17.346  0.00  0.00    +0.000 HD
ENDBRANCH   2   3
BRANCH   1  17
ATOM     13  C   UNL     1       4.696   4.791  17.196  0.00  0.00    +0.000 A 
ATOM     14  C   UNL     1       3.661   3.913  17.544  0.00  0.00    +0.000 A 
ATOM     15  C   UNL     1       2.420   4.386  17.978  0.00  0.00    +0.000 A 
ATOM     16  C   UNL     1       2.194   5.758  18.077  0.00  0.00    +0.000 A 
ATOM     17  C   UNL     1       3.217   6.649  17.742  0.00  0.00    +0.000 A 
ATOM     18  C   UNL     1       4.468   6.168  17.294  0.00  0.00    +0.000 A 
BRANCH  13  20
ATOM     19  C   UNL     1       6.015   3.893  15.407  0.00  0.00    +0.000 C 
ATOM     20  O   UNL     1       5.833   4.142  16.793  0.00  0.00    +0.000 OA
ENDBRANCH  13  20
BRANCH  18  21
ATOM     21  O   UNL     1       5.466   7.046  16.957  0.00  0.00    +0.000 OA
ATOM     22  H   UNL     1       5.203   7.484  16.120  0.00  0.00    +0.000 HD
ENDBRANCH  18  21
ENDBRANCH   1  17
TORSDOF 4
ENDMDL
MODEL 6
REMARK VINA RESULT:      -6.5      6.584      8.400
REMARK  Name = 
REMARK  6 active torsions:
REMARK  status: ('A' for Active; 'I' for Inactive)
REMARK    1  A    between atoms: C_1  and  O_2
REMARK    2  A    between atoms: O_2  and  C_3
REMARK    3  A    between atoms: C_7  and  C_8
REMARK    4  A    between atoms: N_9  and  N_10
REMARK    5  A    between atoms: C_16  and  C_17
REMARK    6  A    between atoms: C_19  and  O_20
REMARK                            x       y       z     vdW  Elec       q    Type
REMARK                         _______ _______ _______ _____ _____    ______ ____
ROOT
ATOM      1  C   UNL     1       1.016   8.928  20.028  0.00  0.00    +0.000 C 
ATOM      2  N   UNL     1       1.754   7.937  20.425  0.00  0.00    +0.000 NA
ENDROOT
BRANCH   2   3
ATOM      3  N   UNL     1       2.442   7.260  19.480  0.00  0.00    +0.000 N 
ATOM      4  C   UNL     1       2.360   5.855  19.481  0.00  0.00    +0.000 A 
ATOM      5  C   UNL     1       2.000   5.160  20.618  0.00  0.00    +0.000 A 
ATOM      6  C   UNL     1       1.899   3.802  20.481  0.00  0.00    +0.000 A 
ATOM      7 CL   UNL     1       1.397   2.824  21.796  0.00  0.00    +0.000 Cl
ATOM      8  N   UNL     1       2.142   3.131  19.349  0.00  0.00    +0.000 NA
ATOM      9  C   UNL     1       2.513   3.882  18.305  0.00  0.00    +0.000 A 
ATOM     10  C   UNL     1       2.811   3.180  17.018  0.00  0.00    +0.000 C 
ATOM     11  N   UNL     1       2.633   5.225  18.326  0.00  0.00    +0.000 NA
ATOM     12  H   UNL     1       2.600   7.614  18.540  0.00  0.00    +0.000 HD
ENDBRANCH   2   3
BRANCH   1  17
ATOM     13  C   UNL     1      -1.150  11.603  21.655  0.00  0.00    +0.000 A 
ATOM     14  C   UNL     1      -1.207  11.085  22.955  0.00  0.00    +0.000 A 
ATOM     15  C   UNL     1      -0.548   9.901  23.297  0.00  0.00    +0.000 A 
ATOM     16  C   UNL     1       0.180   9.206  22.333  0.00  0.00    +0.000 A 
ATOM     17  C   UNL     1       0.242   9.703  21.029  0.00  0.00    +0.000 A 
ATOM     18  C   UNL     1      -0.417  10.906  20.687  0.00  0.00    +0.000 A 
BRANCH  13  20
ATOM     19  C   UNL     1      -3.197  12.809  21.973  0.00  0.00    +0.000 C 
ATOM     20  O   UNL     1      -1.854  12.770  21.513  0.00  0.00    +0.000 OA
ENDBRANCH  13  20
BRANCH  18  21
ATOM     21  O   UNL     1      -0.346  11.395  19.408  0.00  0.00    +0.000 OA
ATOM     22  H   UNL     1      -0.153  12.355  19.470  0.00  0.00    +0.000 HD
ENDBRANCH  18  21
ENDBRANCH   1  17
TORSDOF 4
ENDMDL
MODEL 7
REMARK VINA RESULT:      -6.5      6.117      8.008
REMARK  Name = 
REMARK  6 active torsions:
REMARK  status: ('A' for Active; 'I' for Inactive)
REMARK    1  A    between atoms: C_1  and  O_2
REMARK    2  A    between atoms: O_2  and  C_3
REMARK    3  A    between atoms: C_7  and  C_8
REMARK    4  A    between atoms: N_9  and  N_10
REMARK    5  A    between atoms: C_16  and  C_17
REMARK    6  A    between atoms: C_19  and  O_20
REMARK                            x       y       z     vdW  Elec       q    Type
REMARK                         _______ _______ _______ _____ _____    ______ ____
ROOT
ATOM      1  C   UNL     1       2.989   7.916  18.095  0.00  0.00    +0.000 C 
ATOM      2  N   UNL     1       1.783   8.376  17.958  0.00  0.00    +0.000 NA
ENDROOT
BRANCH   2   3
ATOM      3  N   UNL     1       1.647   9.703  17.748  0.00  0.00    +0.000 N 
ATOM      4  C   UNL     1       1.350  10.521  18.854  0.00  0.00    +0.000 A 
ATOM      5  C   UNL     1       0.771  10.000  19.994  0.00  0.00    +0.000 A 
ATOM      6  C   UNL     1       0.583  10.881  21.024  0.00  0.00    +0.000 A 
ATOM      7 CL   UNL     1      -0.066  10.354  22.520  0.00  0.00    +0.000 Cl
ATOM      8  N   UNL     1       0.899  12.181  20.982  0.00  0.00    +0.000 NA
ATOM      9  C   UNL     1       1.428  12.605  19.828  0.00  0.00    +0.000 A 
ATOM     10  C   UNL     1       1.787  14.054  19.723  0.00  0.00    +0.000 C 
ATOM     11  N   UNL     1       1.667  11.823  18.756  0.00  0.00    +0.000 NA
ATOM     12  H   UNL     1       2.176  10.217  17.047  0.00  0.00    +0.000 HD
ENDBRANCH   2   3
BRANCH   1  17
ATOM     13  C   UNL     1       2.961   4.462  19.697  0.00  0.00    +0.000 A 
ATOM     14  C   UNL     1       3.584   3.735  18.673  0.00  0.00    +0.000 A 
ATOM     15  C   UNL     1       4.012   4.355  17.496  0.00  0.00    +0.000 A 
ATOM     16  C   UNL     1       3.816   5.724  17.320  0.00  0.00    +0.000 A 
ATOM     17  C   UNL     1       3.190   6.464  18.326  0.00  0.00    +0.000 A 
ATOM     18  C   UNL     1       2.767   5.836  19.520  0.00  0.00    +0.000 A 
BRANCH  13  20
ATOM     19  C   UNL     1       1.303   3.145  20.821  0.00  0.00    +0.000 C 
ATOM     20  O   UNL     1       2.616   3.684  20.770  0.00  0.00    +0.000 OA
ENDBRANCH  13  20
BRANCH  18  21
ATOM     21  O   UNL     1       2.161   6.568  20.509  0.00  0.00    +0.000 OA
ATOM     22  H   UNL     1       1.249   6.769  20.210  0.00  0.00    +0.000 HD
ENDBRANCH  18  21
ENDBRANCH   1  17
TORSDOF 4
ENDMDL
MODEL 8
REMARK VINA RESULT:      -6.5      5.794      7.679
REMARK  Name = 
REMARK  6 active torsions:
REMARK  status: ('A' for Active; 'I' for Inactive)
REMARK    1  A    between atoms: C_1  and  O_2
REMARK    2  A    between atoms: O_2  and  C_3
REMARK    3  A    between atoms: C_7  and  C_8
REMARK    4  A    between atoms: N_9  and  N_10
REMARK    5  A    between atoms: C_16  and  C_17
REMARK    6  A    between atoms: C_19  and  O_20
REMARK                            x       y       z     vdW  Elec       q    Type
REMARK                         _______ _______ _______ _____ _____    ______ ____
ROOT
ATOM      1  C   UNL     1       2.459   7.327  19.327  0.00  0.00    +0.000 C 
ATOM      2  N   UNL     1       2.103   7.918  18.229  0.00  0.00    +0.000 NA
ENDROOT
BRANCH   2   3
ATOM      3  N   UNL     1       2.275   9.256  18.161  0.00  0.00    +0.000 N 
ATOM      4  C   UNL     1       1.133  10.074  18.245  0.00  0.00    +0.000 A 
ATOM      5  C   UNL     1      -0.123   9.585  17.948  0.00  0.00    +0.000 A 
ATOM      6  C   UNL     1      -1.161  10.458  18.122  0.00  0.00    +0.000 A 
ATOM      7 CL   UNL     1      -2.779   9.961  17.853  0.00  0.00    +0.000 Cl
ATOM      8  N   UNL     1      -1.029  11.726  18.531  0.00  0.00    +0.000 NA
ATOM      9  C   UNL     1       0.226  12.125  18.768  0.00  0.00    +0.000 A 
ATOM     10  C   UNL     1       0.431  13.538  19.214  0.00  0.00    +0.000 C 
ATOM     11  N   UNL     1       1.319  11.346  18.640  0.00  0.00    +0.000 NA
ATOM     12  H   UNL     1       3.094   9.735  18.526  0.00  0.00    +0.000 HD
ENDBRANCH   2   3
BRANCH   1  17
ATOM     13  C   UNL     1       2.674   3.586  18.656  0.00  0.00    +0.000 A 
ATOM     14  C   UNL     1       1.952   3.117  19.761  0.00  0.00    +0.000 A 
ATOM     15  C   UNL     1       1.400   3.997  20.696  0.00  0.00    +0.000 A 
ATOM     16  C   UNL     1       1.568   5.372  20.542  0.00  0.00    +0.000 A 
ATOM     17  C   UNL     1       2.291   5.858  19.449  0.00  0.00    +0.000 A 
ATOM     18  C   UNL     1       2.841   4.966  18.500  0.00  0.00    +0.000 A 
BRANCH  13  20
ATOM     19  C   UNL     1       3.579   1.374  18.464  0.00  0.00    +0.000 C 
ATOM     20  O   UNL     1       3.134   2.576  17.852  0.00  0.00    +0.000 OA
ENDBRANCH  13  20
BRANCH  18  21
ATOM     21  O   UNL     1       3.543   5.447  17.424  0.00  0.00    +0.000 OA
ATOM     22  H   UNL     1       4.377   5.833  17.766  0.00  0.00    +0.000 HD
ENDBRANCH  18  21
ENDBRANCH   1  17
TORSDOF 4
ENDMDL
MODEL 9
REMARK VINA RESULT:      -6.4      4.485      5.519
REMARK  Name = 
REMARK  6 active torsions:
REMARK  status: ('A' for Active; 'I' for Inactive)
REMARK    1  A    between atoms: C_1  and  O_2
REMARK    2  A    between atoms: O_2  and  C_3
REMARK    3  A    between atoms: C_7  and  C_8
REMARK    4  A    between atoms: N_9  and  N_10
REMARK    5  A    between atoms: C_16  and  C_17
REMARK    6  A    between atoms: C_19  and  O_20
REMARK                            x       y       z     vdW  Elec       q    Type
REMARK                         _______ _______ _______ _____ _____    ______ ____
ROOT
ATOM      1  C   UNL     1       2.544   8.796  18.066  0.00  0.00    +0.000 C 
ATOM      2  N   UNL     1       2.965   7.572  18.142  0.00  0.00    +0.000 NA
ENDROOT
BRANCH   2   3
ATOM      3  N   UNL     1       4.061   7.247  17.423  0.00  0.00    +0.000 N 
ATOM      4  C   UNL     1       4.306   5.884  17.171  0.00  0.00    +0.000 A 
ATOM      5  C   UNL     1       3.762   4.899  17.970  0.00  0.00    +0.000 A 
ATOM      6  C   UNL     1       4.024   3.611  17.591  0.00  0.00    +0.000 A 
ATOM      7 CL   UNL     1       3.356   2.290  18.456  0.00  0.00    +0.000 Cl
ATOM      8  N   UNL     1       4.772   3.264  16.537  0.00  0.00    +0.000 NA
ATOM      9  C   UNL     1       5.283   4.283  15.836  0.00  0.00    +0.000 A 
ATOM     10  C   UNL     1       6.139   3.951  14.655  0.00  0.00    +0.000 C 
ATOM     11  N   UNL     1       5.080   5.587  16.112  0.00  0.00    +0.000 NA
ATOM     12  H   UNL     1       4.433   7.828  16.676  0.00  0.00    +0.000 HD
ENDBRANCH   2   3
BRANCH   1  17
ATOM     13  C   UNL     1      -0.009   9.168  20.866  0.00  0.00    +0.000 A 
ATOM     14  C   UNL     1      -0.915  10.027  20.230  0.00  0.00    +0.000 A 
ATOM     15  C   UNL     1      -0.707  10.465  18.920  0.00  0.00    +0.000 A 
ATOM     16  C   UNL     1       0.426  10.053  18.220  0.00  0.00    +0.000 A 
ATOM     17  C   UNL     1       1.345   9.203  18.839  0.00  0.00    +0.000 A 
ATOM     18  C   UNL     1       1.127   8.752  20.161  0.00  0.00    +0.000 A 
BRANCH  13  20
ATOM     19  C   UNL     1      -0.360   9.865  23.132  0.00  0.00    +0.000 C 
ATOM     20  O   UNL     1      -0.384   8.846  22.143  0.00  0.00    +0.000 OA
ENDBRANCH  13  20
BRANCH  18  21
ATOM     21  O   UNL     1       2.027   7.910  20.763  0.00  0.00    +0.000 OA
ATOM     22  H   UNL     1       2.634   7.581  20.066  0.00  0.00    +0.000 HD
ENDBRANCH  18  21
ENDBRANCH   1  17
TORSDOF 4
ENDMDL
