MODEL 1
REMARK VINA RESULT:      -7.9      0.000      0.000
REMARK  Name = 
REMARK  12 active torsions:
REMARK  status: ('A' for Active; 'I' for Inactive)
REMARK    1  A    between atoms: C_1  and  O_2
REMARK    2  A    between atoms: O_2  and  C_3
REMARK    3  A    between atoms: C_6  and  C_7
REMARK    4  A    between atoms: C_8  and  C_9
REMARK    5  A    between atoms: N_11  and  C_12
REMARK    6  A    between atoms: C_12  and  C_13
REMARK    7  A    between atoms: C_13  and  C_14
REMARK    8  A    between atoms: C_16  and  O_17
REMARK    9  A    between atoms: C_18  and  O_19
REMARK   10  A    between atoms: C_20  and  O_21
REMARK   11  A    between atoms: C_24  and  O_25
REMARK   12  A    between atoms: O_25  and  C_26
REMARK                            x       y       z     vdW  Elec       q    Type
REMARK                         _______ _______ _______ _____ _____    ______ ____
ROOT
ATOM      1  C   UNL     1       7.760   7.371  17.837  0.00  0.00    +0.000 C 
ATOM      2  O   UNL     1       7.979   6.581  18.743  0.00  0.00    +0.000 OA
ATOM      3  N   UNL     1       7.141   7.043  16.651  0.00  0.00    +0.000 N 
ATOM      4  H   UNL     1       6.866   7.784  16.021  0.00  0.00    +0.000 HD
ENDROOT
BRANCH   1   6
ATOM      5  C   UNL     1       8.907   9.246  18.938  0.00  0.00    +0.000 C 
ATOM      6  C   UNL     1       8.160   8.808  17.911  0.00  0.00    +0.000 C 
BRANCH   5  10
ATOM      7  C   UNL     1      10.105  13.356  19.270  0.00  0.00    +0.000 A 
ATOM      8  C   UNL     1      10.074  12.702  18.027  0.00  0.00    +0.000 A 
ATOM      9  C   UNL     1       9.689  11.362  17.926  0.00  0.00    +0.000 A 
ATOM     10  C   UNL     1       9.397  10.622  19.073  0.00  0.00    +0.000 A 
ATOM     11  C   UNL     1       9.516  11.258  20.315  0.00  0.00    +0.000 A 
ATOM     12  C   UNL     1       9.875  12.611  20.436  0.00  0.00    +0.000 A 
BRANCH   7  14
ATOM     13  C   UNL     1      11.746  15.054  19.371  0.00  0.00    +0.000 C 
ATOM     14  O   UNL     1      10.359  14.700  19.346  0.00  0.00    +0.000 OA
ENDBRANCH   7  14
BRANCH  12  15
ATOM     15  O   UNL     1       9.917  13.000  21.744  0.00  0.00    +0.000 OA
ATOM     16  C   UNL     1       8.746  12.933  22.541  0.00  0.00    +0.000 C 
ENDBRANCH  12  15
ENDBRANCH   5  10
ENDBRANCH   1   6
BRANCH   3  17
ATOM     17  C   UNL     1       6.634   5.701  16.409  0.00  0.00    +0.000 C 
BRANCH  17  18
ATOM     18  C   UNL     1       5.133   5.705  16.104  0.00  0.00    +0.000 C 
BRANCH  18  19
ATOM     19  C   UNL     1       4.320   4.976  17.151  0.00  0.00    +0.000 A 
ATOM     20  C   UNL     1       3.821   3.684  16.902  0.00  0.00    +0.000 A 
ATOM     21  C   UNL     1       3.054   3.038  17.872  0.00  0.00    +0.000 A 
ATOM     22  C   UNL     1       2.790   3.661  19.086  0.00  0.00    +0.000 A 
ATOM     23  C   UNL     1       3.277   4.934  19.337  0.00  0.00    +0.000 A 
ATOM     24  C   UNL     1       4.037   5.597  18.381  0.00  0.00    +0.000 A 
BRANCH  21  25
ATOM     25  O   UNL     1       2.527   1.793  17.671  0.00  0.00    +0.000 OA
ATOM     26  H   UNL     1       3.233   1.215  17.333  0.00  0.00    +0.000 HD
ENDBRANCH  21  25
BRANCH  22  27
ATOM     27  O   UNL     1       2.040   3.031  20.044  0.00  0.00    +0.000 OA
ATOM     28  H   UNL     1       1.591   3.763  20.516  0.00  0.00    +0.000 HD
ENDBRANCH  22  27
BRANCH  23  29
ATOM     29  O   UNL     1       3.004   5.547  20.526  0.00  0.00    +0.000 OA
ATOM     30  H   UNL     1       3.274   4.895  21.204  0.00  0.00    +0.000 HD
ENDBRANCH  23  29
ENDBRANCH  18  19
ENDBRANCH  17  18
ENDBRANCH   3  17
TORSDOF 10
ENDMDL
MODEL 2
REMARK VINA RESULT:      -7.9      1.169      1.431
REMARK  Name = 
REMARK  12 active torsions:
REMARK  status: ('A' for Active; 'I' for Inactive)
REMARK    1  A    between atoms: C_1  and  O_2
REMARK    2  A    between atoms: O_2  and  C_3
REMARK    3  A    between atoms: C_6  and  C_7
REMARK    4  A    between atoms: C_8  and  C_9
REMARK    5  A    between atoms: N_11  and  C_12
REMARK    6  A    between atoms: C_12  and  C_13
REMARK    7  A    between atoms: C_13  and  C_14
REMARK    8  A    between atoms: C_16  and  O_17
REMARK    9  A    between atoms: C_18  and  O_19
REMARK   10  A    between atoms: C_20  and  O_21
REMARK   11  A    between atoms: C_24  and  O_25
REMARK   12  A    between atoms: O_25  and  C_26
REMARK                            x       y       z     vdW  Elec       q    Type
REMARK                         _______ _______ _______ _____ _____    ______ ____
ROOT
ATOM      1  C   UNL     1       7.618   7.068  17.740  0.00  0.00    +0.000 C 
ATOM      2  O   UNL     1       7.524   6.362  18.734  0.00  0.00    +0.000 OA
ATOM      3  N   UNL     1       7.314   6.655  16.462  0.00  0.00    +0.000 N 
ATOM      4  H   UNL     1       7.276   7.342  15.722  0.00  0.00    +0.000 HD
ENDROOT
BRANCH   1   6
ATOM      5  C   UNL     1       8.705   8.938  18.907  0.00  0.00    +0.000 C 
ATOM      6  C   UNL     1       8.094   8.482  17.802  0.00  0.00    +0.000 C 
BRANCH   5  10
ATOM      7  C   UNL     1      10.085  12.989  19.255  0.00  0.00    +0.000 A 
ATOM      8  C   UNL     1      10.001  12.350  18.007  0.00  0.00    +0.000 A 
ATOM      9  C   UNL     1       9.556  11.029  17.901  0.00  0.00    +0.000 A 
ATOM     10  C   UNL     1       9.256  10.291  19.046  0.00  0.00    +0.000 A 
ATOM     11  C   UNL     1       9.428  10.907  20.291  0.00  0.00    +0.000 A 
ATOM     12  C   UNL     1       9.847  12.242  20.418  0.00  0.00    +0.000 A 
BRANCH   7  14
ATOM     13  C   UNL     1       9.276  15.209  19.346  0.00  0.00    +0.000 C 
ATOM     14  O   UNL     1      10.399  14.320  19.339  0.00  0.00    +0.000 OA
ENDBRANCH   7  14
BRANCH  12  15
ATOM     15  O   UNL     1       9.932  12.615  21.729  0.00  0.00    +0.000 OA
ATOM     16  C   UNL     1       8.753  12.903  22.462  0.00  0.00    +0.000 C 
ENDBRANCH  12  15
ENDBRANCH   5  10
ENDBRANCH   1   6
BRANCH   3  17
ATOM     17  C   UNL     1       6.788   5.323  16.203  0.00  0.00    +0.000 C 
BRANCH  17  18
ATOM     18  C   UNL     1       5.268   5.339  16.009  0.00  0.00    +0.000 C 
BRANCH  18  19
ATOM     19  C   UNL     1       4.535   4.525  17.052  0.00  0.00    +0.000 A 
ATOM     20  C   UNL     1       5.241   3.867  18.076  0.00  0.00    +0.000 A 
ATOM     21  C   UNL     1       4.548   3.103  19.015  0.00  0.00    +0.000 A 
ATOM     22  C   UNL     1       3.164   2.998  18.950  0.00  0.00    +0.000 A 
ATOM     23  C   UNL     1       2.463   3.642  17.942  0.00  0.00    +0.000 A 
ATOM     24  C   UNL     1       3.135   4.403  16.993  0.00  0.00    +0.000 A 
BRANCH  21  25
ATOM     25  O   UNL     1       5.188   2.425  20.016  0.00  0.00    +0.000 OA
ATOM     26  H   UNL     1       5.218   1.483  19.774  0.00  0.00    +0.000 HD
ENDBRANCH  21  25
BRANCH  22  27
ATOM     27  O   UNL     1       2.477   2.251  19.871  0.00  0.00    +0.000 OA
ATOM     28  H   UNL     1       3.174   1.900  20.462  0.00  0.00    +0.000 HD
ENDBRANCH  22  27
BRANCH  23  29
ATOM     29  O   UNL     1       1.105   3.525  17.874  0.00  0.00    +0.000 OA
ATOM     30  H   UNL     1       0.835   4.192  17.210  0.00  0.00    +0.000 HD
ENDBRANCH  23  29
ENDBRANCH  18  19
ENDBRANCH  17  18
ENDBRANCH   3  17
TORSDOF 10
ENDMDL
MODEL 3
REMARK VINA RESULT:      -7.8      1.731      2.102
REMARK  Name = 
REMARK  12 active torsions:
REMARK  status: ('A' for Active; 'I' for Inactive)
REMARK    1  A    between atoms: C_1  and  O_2
REMARK    2  A    between atoms: O_2  and  C_3
REMARK    3  A    between atoms: C_6  and  C_7
REMARK    4  A    between atoms: C_8  and  C_9
REMARK    5  A    between atoms: N_11  and  C_12
REMARK    6  A    between atoms: C_12  and  C_13
REMARK    7  A    between atoms: C_13  and  C_14
REMARK    8  A    between atoms: C_16  and  O_17
REMARK    9  A    between atoms: C_18  and  O_19
REMARK   10  A    between atoms: C_20  and  O_21
REMARK   11  A    between atoms: C_24  and  O_25
REMARK   12  A    between atoms: O_25  and  C_26
REMARK                            x       y       z     vdW  Elec       q    Type
REMARK                         _______ _______ _______ _____ _____    ______ ____
ROOT
ATOM      1  C   UNL     1       7.691   7.210  18.086  0.00  0.00    +0.000 C 
ATOM      2  O   UNL     1       7.817   6.113  18.610  0.00  0.00    +0.000 OA
ATOM      3  N   UNL     1       6.748   7.513  17.129  0.00  0.00    +0.000 N 
ATOM      4  H   UNL     1       6.616   8.478  16.859  0.00  0.00    +0.000 HD
ENDROOT
BRANCH   1   6
ATOM      5  C   UNL     1       8.235   9.607  18.037  0.00  0.00    +0.000 C 
ATOM      6  C   UNL     1       8.575   8.367  18.424  0.00  0.00    +0.000 C 
BRANCH   5  10
ATOM      7  C   UNL     1      10.653  13.070  18.812  0.00  0.00    +0.000 A 
ATOM      8  C   UNL     1      10.974  11.817  19.359  0.00  0.00    +0.000 A 
ATOM      9  C   UNL     1      10.180  10.694  19.108  0.00  0.00    +0.000 A 
ATOM     10  C   UNL     1       9.004  10.813  18.366  0.00  0.00    +0.000 A 
ATOM     11  C   UNL     1       8.645  12.083  17.899  0.00  0.00    +0.000 A 
ATOM     12  C   UNL     1       9.443  13.218  18.117  0.00  0.00    +0.000 A 
BRANCH   7  14
ATOM     13  C   UNL     1      12.332  14.408  17.822  0.00  0.00    +0.000 C 
ATOM     14  O   UNL     1      11.503  14.135  18.957  0.00  0.00    +0.000 OA
ENDBRANCH   7  14
BRANCH  12  15
ATOM     15  O   UNL     1       8.886  14.334  17.561  0.00  0.00    +0.000 OA
ATOM     16  C   UNL     1       8.140  15.231  18.368  0.00  0.00    +0.000 C 
ENDBRANCH  12  15
ENDBRANCH   5  10
ENDBRANCH   1   6
BRANCH   3  17
ATOM     17  C   UNL     1       5.763   6.530  16.702  0.00  0.00    +0.000 C 
BRANCH  17  18
ATOM     18  C   UNL     1       4.482   6.608  17.538  0.00  0.00    +0.000 C 
BRANCH  18  19
ATOM     19  C   UNL     1       3.952   5.245  17.927  0.00  0.00    +0.000 A 
ATOM     20  C   UNL     1       2.614   4.894  17.670  0.00  0.00    +0.000 A 
ATOM     21  C   UNL     1       2.139   3.641  18.057  0.00  0.00    +0.000 A 
ATOM     22  C   UNL     1       2.984   2.734  18.684  0.00  0.00    +0.000 A 
ATOM     23  C   UNL     1       4.303   3.074  18.942  0.00  0.00    +0.000 A 
ATOM     24  C   UNL     1       4.794   4.320  18.571  0.00  0.00    +0.000 A 
BRANCH  21  25
ATOM     25  O   UNL     1       0.842   3.260  17.850  0.00  0.00    +0.000 OA
ATOM     26  H   UNL     1       0.833   2.306  17.657  0.00  0.00    +0.000 HD
ENDBRANCH  21  25
BRANCH  22  27
ATOM     27  O   UNL     1       2.525   1.500  19.064  0.00  0.00    +0.000 OA
ATOM     28  H   UNL     1       2.121   1.135  18.251  0.00  0.00    +0.000 HD
ENDBRANCH  22  27
BRANCH  23  29
ATOM     29  O   UNL     1       5.126   2.185  19.571  0.00  0.00    +0.000 OA
ATOM     30  H   UNL     1       5.910   2.714  19.824  0.00  0.00    +0.000 HD
ENDBRANCH  23  29
ENDBRANCH  18  19
ENDBRANCH  17  18
ENDBRANCH   3  17
TORSDOF 10
ENDMDL
MODEL 4
REMARK VINA RESULT:      -7.8      1.262      2.700
REMARK  Name = 
REMARK  12 active torsions:
REMARK  status: ('A' for Active; 'I' for Inactive)
REMARK    1  A    between atoms: C_1  and  O_2
REMARK    2  A    between atoms: O_2  and  C_3
REMARK    3  A    between atoms: C_6  and  C_7
REMARK    4  A    between atoms: C_8  and  C_9
REMARK    5  A    between atoms: N_11  and  C_12
REMARK    6  A    between atoms: C_12  and  C_13
REMARK    7  A    between atoms: C_13  and  C_14
REMARK    8  A    between atoms: C_16  and  O_17
REMARK    9  A    between atoms: C_18  and  O_19
REMARK   10  A    between atoms: C_20  and  O_21
REMARK   11  A    between atoms: C_24  and  O_25
REMARK   12  A    between atoms: O_25  and  C_26
REMARK                            x       y       z     vdW  Elec       q    Type
REMARK                         _______ _______ _______ _____ _____    ______ ____
ROOT
ATOM      1  C   UNL     1       7.392   7.139  17.304  0.00  0.00    +0.000 C 
ATOM      2  O   UNL     1       7.824   6.645  16.273  0.00  0.00    +0.000 OA
ATOM      3  N   UNL     1       6.602   6.473  18.215  0.00  0.00    +0.000 N 
ATOM      4  H   UNL     1       6.414   6.906  19.109  0.00  0.00    +0.000 HD
ENDROOT
BRANCH   1   6
ATOM      5  C   UNL     1       8.716   8.843  18.482  0.00  0.00    +0.000 C 
ATOM      6  C   UNL     1       7.668   8.555  17.693  0.00  0.00    +0.000 C 
BRANCH   5  10
ATOM      7  C   UNL     1      10.091  12.734  19.668  0.00  0.00    +0.000 A 
ATOM      8  C   UNL     1       9.726  11.766  20.618  0.00  0.00    +0.000 A 
ATOM      9  C   UNL     1       9.274  10.503  20.226  0.00  0.00    +0.000 A 
ATOM     10  C   UNL     1       9.104  10.202  18.874  0.00  0.00    +0.000 A 
ATOM     11  C   UNL     1       9.385  11.203  17.936  0.00  0.00    +0.000 A 
ATOM     12  C   UNL     1       9.867  12.469  18.308  0.00  0.00    +0.000 A 
BRANCH   7  14
ATOM     13  C   UNL     1      12.069  14.012  19.872  0.00  0.00    +0.000 C 
ATOM     14  O   UNL     1      10.652  13.921  20.058  0.00  0.00    +0.000 OA
ENDBRANCH   7  14
BRANCH  12  15
ATOM     15  O   UNL     1      10.070  13.265  17.218  0.00  0.00    +0.000 OA
ATOM     16  C   UNL     1      11.330  13.264  16.565  0.00  0.00    +0.000 C 
ENDBRANCH  12  15
ENDBRANCH   5  10
ENDBRANCH   1   6
BRANCH   3  17
ATOM     17  C   UNL     1       6.262   5.070  18.037  0.00  0.00    +0.000 C 
BRANCH  17  18
ATOM     18  C   UNL     1       4.963   4.893  17.246  0.00  0.00    +0.000 C 
BRANCH  18  19
ATOM     19  C   UNL     1       3.791   4.508  18.122  0.00  0.00    +0.000 A 
ATOM     20  C   UNL     1       3.427   5.302  19.225  0.00  0.00    +0.000 A 
ATOM     21  C   UNL     1       2.357   4.918  20.033  0.00  0.00    +0.000 A 
ATOM     22  C   UNL     1       1.643   3.760  19.747  0.00  0.00    +0.000 A 
ATOM     23  C   UNL     1       1.997   2.973  18.663  0.00  0.00    +0.000 A 
ATOM     24  C   UNL     1       3.064   3.335  17.849  0.00  0.00    +0.000 A 
BRANCH  21  25
ATOM     25  O   UNL     1       1.977   5.641  21.130  0.00  0.00    +0.000 OA
ATOM     26  H   UNL     1       2.133   5.098  21.922  0.00  0.00    +0.000 HD
ENDBRANCH  21  25
BRANCH  22  27
ATOM     27  O   UNL     1       0.589   3.378  20.535  0.00  0.00    +0.000 OA
ATOM     28  H   UNL     1       0.189   4.224  20.826  0.00  0.00    +0.000 HD
ENDBRANCH  22  27
BRANCH  23  29
ATOM     29  O   UNL     1       1.301   1.830  18.393  0.00  0.00    +0.000 OA
ATOM     30  H   UNL     1       1.305   1.336  19.238  0.00  0.00    +0.000 HD
ENDBRANCH  23  29
ENDBRANCH  18  19
ENDBRANCH  17  18
ENDBRANCH   3  17
TORSDOF 10
ENDMDL
MODEL 5
REMARK VINA RESULT:      -7.8      1.335      2.537
REMARK  Name = 
REMARK  12 active torsions:
REMARK  status: ('A' for Active; 'I' for Inactive)
REMARK    1  A    between atoms: C_1  and  O_2
REMARK    2  A    between atoms: O_2  and  C_3
REMARK    3  A    between atoms: C_6  and  C_7
REMARK    4  A    between atoms: C_8  and  C_9
REMARK    5  A    between atoms: N_11  and  C_12
REMARK    6  A    between atoms: C_12  and  C_13
REMARK    7  A    between atoms: C_13  and  C_14
REMARK    8  A    between atoms: C_16  and  O_17
REMARK    9  A    between atoms: C_18  and  O_19
REMARK   10  A    between atoms: C_20  and  O_21
REMARK   11  A    between atoms: C_24  and  O_25
REMARK   12  A    between atoms: O_25  and  C_26
REMARK                            x       y       z     vdW  Elec       q    Type
REMARK                         _______ _______ _______ _____ _____    ______ ____
ROOT
ATOM      1  C   UNL     1       7.540   6.882  18.129  0.00  0.00    +0.000 C 
ATOM      2  O   UNL     1       7.464   5.809  18.710  0.00  0.00    +0.000 OA
ATOM      3  N   UNL     1       6.817   7.210  17.003  0.00  0.00    +0.000 N 
ATOM      4  H   UNL     1       6.828   8.166  16.676  0.00  0.00    +0.000 HD
ENDROOT
BRANCH   1   6
ATOM      5  C   UNL     1       8.204   9.247  18.225  0.00  0.00    +0.000 C 
ATOM      6  C   UNL     1       8.453   7.975  18.578  0.00  0.00    +0.000 C 
BRANCH   5  10
ATOM      7  C   UNL     1      10.763  12.462  19.471  0.00  0.00    +0.000 A 
ATOM      8  C   UNL     1      10.335  11.476  20.376  0.00  0.00    +0.000 A 
ATOM      9  C   UNL     1       9.497  10.434  19.965  0.00  0.00    +0.000 A 
ATOM     10  C   UNL     1       9.007  10.396  18.659  0.00  0.00    +0.000 A 
ATOM     11  C   UNL     1       9.368  11.431  17.789  0.00  0.00    +0.000 A 
ATOM     12  C   UNL     1      10.230  12.471  18.174  0.00  0.00    +0.000 A 
BRANCH   7  14
ATOM     13  C   UNL     1      11.134  14.667  20.238  0.00  0.00    +0.000 C 
ATOM     14  O   UNL     1      11.684  13.404  19.849  0.00  0.00    +0.000 OA
ENDBRANCH   7  14
BRANCH  12  15
ATOM     15  O   UNL     1      10.435  13.353  17.151  0.00  0.00    +0.000 OA
ATOM     16  C   UNL     1      11.677  13.367  16.466  0.00  0.00    +0.000 C 
ENDBRANCH  12  15
ENDBRANCH   5  10
ENDBRANCH   1   6
BRANCH   3  17
ATOM     17  C   UNL     1       5.837   6.294  16.441  0.00  0.00    +0.000 C 
BRANCH  17  18
ATOM     18  C   UNL     1       4.436   6.538  17.010  0.00  0.00    +0.000 C 
BRANCH  18  19
ATOM     19  C   UNL     1       3.786   5.276  17.532  0.00  0.00    +0.000 A 
ATOM     20  C   UNL     1       2.636   5.340  18.339  0.00  0.00    +0.000 A 
ATOM     21  C   UNL     1       2.065   4.166  18.829  0.00  0.00    +0.000 A 
ATOM     22  C   UNL     1       2.622   2.932  18.514  0.00  0.00    +0.000 A 
ATOM     23  C   UNL     1       3.756   2.861  17.721  0.00  0.00    +0.000 A 
ATOM     24  C   UNL     1       4.344   4.020  17.229  0.00  0.00    +0.000 A 
BRANCH  21  25
ATOM     25  O   UNL     1       0.961   4.175  19.635  0.00  0.00    +0.000 OA
ATOM     26  H   UNL     1       0.225   4.572  19.138  0.00  0.00    +0.000 HD
ENDBRANCH  21  25
BRANCH  22  27
ATOM     27  O   UNL     1       2.065   1.774  18.989  0.00  0.00    +0.000 OA
ATOM     28  H   UNL     1       2.831   1.250  19.301  0.00  0.00    +0.000 HD
ENDBRANCH  22  27
BRANCH  23  29
ATOM     29  O   UNL     1       4.308   1.648  17.426  0.00  0.00    +0.000 OA
ATOM     30  H   UNL     1       4.413   1.209  18.294  0.00  0.00    +0.000 HD
ENDBRANCH  23  29
ENDBRANCH  18  19
ENDBRANCH  17  18
ENDBRANCH   3  17
TORSDOF 10
ENDMDL
MODEL 6
REMARK VINA RESULT:      -7.8      0.680      1.761
REMARK  Name = 
REMARK  12 active torsions:
REMARK  status: ('A' for Active; 'I' for Inactive)
REMARK    1  A    between atoms: C_1  and  O_2
REMARK    2  A    between atoms: O_2  and  C_3
REMARK    3  A    between atoms: C_6  and  C_7
REMARK    4  A    between atoms: C_8  and  C_9
REMARK    5  A    between atoms: N_11  and  C_12
REMARK    6  A    between atoms: C_12  and  C_13
REMARK    7  A    between atoms: C_13  and  C_14
REMARK    8  A    between atoms: C_16  and  O_17
REMARK    9  A    between atoms: C_18  and  O_19
REMARK   10  A    between atoms: C_20  and  O_21
REMARK   11  A    between atoms: C_24  and  O_25
REMARK   12  A    between atoms: O_25  and  C_26
REMARK                            x       y       z     vdW  Elec       q    Type
REMARK                         _______ _______ _______ _____ _____    ______ ____
ROOT
ATOM      1  C   UNL     1       7.776   7.445  17.821  0.00  0.00    +0.000 C 
ATOM      2  O   UNL     1       8.001   6.704  18.766  0.00  0.00    +0.000 OA
ATOM      3  N   UNL     1       7.178   7.047  16.646  0.00  0.00    +0.000 N 
ATOM      4  H   UNL     1       6.894   7.752  15.978  0.00  0.00    +0.000 HD
ENDROOT
BRANCH   1   6
ATOM      5  C   UNL     1       8.958   9.372  18.786  0.00  0.00    +0.000 C 
ATOM      6  C   UNL     1       8.146   8.892  17.830  0.00  0.00    +0.000 C 
BRANCH   5  10
ATOM      7  C   UNL     1      10.136  13.502  18.805  0.00  0.00    +0.000 A 
ATOM      8  C   UNL     1      10.583  12.619  17.809  0.00  0.00    +0.000 A 
ATOM      9  C   UNL     1      10.201  11.274  17.811  0.00  0.00    +0.000 A 
ATOM     10  C   UNL     1       9.423  10.762  18.851  0.00  0.00    +0.000 A 
ATOM     11  C   UNL     1       9.056  11.629  19.886  0.00  0.00    +0.000 A 
ATOM     12  C   UNL     1       9.406  12.990  19.889  0.00  0.00    +0.000 A 
BRANCH   7  14
ATOM     13  C   UNL     1       9.474  15.607  17.958  0.00  0.00    +0.000 C 
ATOM     14  O   UNL     1      10.409  14.842  18.726  0.00  0.00    +0.000 OA
ENDBRANCH   7  14
BRANCH  12  15
ATOM     15  O   UNL     1       8.927  13.626  20.998  0.00  0.00    +0.000 OA
ATOM     16  C   UNL     1       9.172  13.084  22.286  0.00  0.00    +0.000 C 
ENDBRANCH  12  15
ENDBRANCH   5  10
ENDBRANCH   1   6
BRANCH   3  17
ATOM     17  C   UNL     1       6.701   5.685  16.464  0.00  0.00    +0.000 C 
BRANCH  17  18
ATOM     18  C   UNL     1       5.218   5.646  16.082  0.00  0.00    +0.000 C 
BRANCH  18  19
ATOM     19  C   UNL     1       4.359   4.985  17.136  0.00  0.00    +0.000 A 
ATOM     20  C   UNL     1       4.085   5.636  18.353  0.00  0.00    +0.000 A 
ATOM     21  C   UNL     1       3.309   5.000  19.322  0.00  0.00    +0.000 A 
ATOM     22  C   UNL     1       2.796   3.731  19.085  0.00  0.00    +0.000 A 
ATOM     23  C   UNL     1       3.062   3.082  17.890  0.00  0.00    +0.000 A 
ATOM     24  C   UNL     1       3.839   3.696  16.915  0.00  0.00    +0.000 A 
BRANCH  21  25
ATOM     25  O   UNL     1       3.033   5.580  20.529  0.00  0.00    +0.000 OA
ATOM     26  H   UNL     1       3.333   6.505  20.497  0.00  0.00    +0.000 HD
ENDBRANCH  21  25
BRANCH  22  27
ATOM     27  O   UNL     1       2.029   3.101  20.031  0.00  0.00    +0.000 OA
ATOM     28  H   UNL     1       2.663   2.884  20.746  0.00  0.00    +0.000 HD
ENDBRANCH  22  27
BRANCH  23  29
ATOM     29  O   UNL     1       2.567   1.830  17.667  0.00  0.00    +0.000 OA
ATOM     30  H   UNL     1       1.676   1.982  17.293  0.00  0.00    +0.000 HD
ENDBRANCH  23  29
ENDBRANCH  18  19
ENDBRANCH  17  18
ENDBRANCH   3  17
TORSDOF 10
ENDMDL
MODEL 7
REMARK VINA RESULT:      -7.8      1.091      2.363
REMARK  Name = 
REMARK  12 active torsions:
REMARK  status: ('A' for Active; 'I' for Inactive)
REMARK    1  A    between atoms: C_1  and  O_2
REMARK    2  A    between atoms: O_2  and  C_3
REMARK    3  A    between atoms: C_6  and  C_7
REMARK    4  A    between atoms: C_8  and  C_9
REMARK    5  A    between atoms: N_11  and  C_12
REMARK    6  A    between atoms: C_12  and  C_13
REMARK    7  A    between atoms: C_13  and  C_14
REMARK    8  A    between atoms: C_16  and  O_17
REMARK    9  A    between atoms: C_18  and  O_19
REMARK   10  A    between atoms: C_20  and  O_21
REMARK   11  A    between atoms: C_24  and  O_25
REMARK   12  A    between atoms: O_25  and  C_26
REMARK                            x       y       z     vdW  Elec       q    Type
REMARK                         _______ _______ _______ _____ _____    ______ ____
ROOT
ATOM      1  C   UNL     1       7.797   6.643  17.984  0.00  0.00    +0.000 C 
ATOM      2  O   UNL     1       7.855   5.541  18.508  0.00  0.00    +0.000 OA
ATOM      3  N   UNL     1       7.265   6.886  16.737  0.00  0.00    +0.000 N 
ATOM      4  H   UNL     1       7.121   7.843  16.444  0.00  0.00    +0.000 HD
ENDROOT
BRANCH   1   6
ATOM      5  C   UNL     1       8.360   9.036  17.974  0.00  0.00    +0.000 C 
ATOM      6  C   UNL     1       8.321   7.875  18.647  0.00  0.00    +0.000 C 
BRANCH   5  10
ATOM      7  C   UNL     1       9.895  12.713  19.574  0.00  0.00    +0.000 A 
ATOM      8  C   UNL     1      10.041  11.499  20.264  0.00  0.00    +0.000 A 
ATOM      9  C   UNL     1       9.534  10.305  19.741  0.00  0.00    +0.000 A 
ATOM     10  C   UNL     1       8.804  10.310  18.552  0.00  0.00    +0.000 A 
ATOM     11  C   UNL     1       8.587  11.538  17.916  0.00  0.00    +0.000 A 
ATOM     12  C   UNL     1       9.112  12.744  18.411  0.00  0.00    +0.000 A 
BRANCH   7  14
ATOM     13  C   UNL     1      11.802  14.108  19.482  0.00  0.00    +0.000 C 
ATOM     14  O   UNL     1      10.504  13.853  20.030  0.00  0.00    +0.000 OA
ENDBRANCH   7  14
BRANCH  12  15
ATOM     15  O   UNL     1       8.770  13.800  17.615  0.00  0.00    +0.000 OA
ATOM     16  C   UNL     1       7.583  14.531  17.878  0.00  0.00    +0.000 C 
ENDBRANCH  12  15
ENDBRANCH   5  10
ENDBRANCH   1   6
BRANCH   3  17
ATOM     17  C   UNL     1       6.660   5.820  15.953  0.00  0.00    +0.000 C 
BRANCH  17  18
ATOM     18  C   UNL     1       5.130   5.887  15.985  0.00  0.00    +0.000 C 
BRANCH  18  19
ATOM     19  C   UNL     1       4.533   5.106  17.135  0.00  0.00    +0.000 A 
ATOM     20  C   UNL     1       4.035   5.768  18.272  0.00  0.00    +0.000 A 
ATOM     21  C   UNL     1       3.509   5.027  19.331  0.00  0.00    +0.000 A 
ATOM     22  C   UNL     1       3.464   3.640  19.262  0.00  0.00    +0.000 A 
ATOM     23  C   UNL     1       3.954   2.981  18.146  0.00  0.00    +0.000 A 
ATOM     24  C   UNL     1       4.489   3.700  17.083  0.00  0.00    +0.000 A 
BRANCH  21  25
ATOM     25  O   UNL     1       3.033   5.621  20.468  0.00  0.00    +0.000 OA
ATOM     26  H   UNL     1       3.742   6.172  20.842  0.00  0.00    +0.000 HD
ENDBRANCH  21  25
BRANCH  22  27
ATOM     27  O   UNL     1       2.946   2.907  20.297  0.00  0.00    +0.000 OA
ATOM     28  H   UNL     1       2.178   2.445  19.902  0.00  0.00    +0.000 HD
ENDBRANCH  22  27
BRANCH  23  29
ATOM     29  O   UNL     1       3.920   1.618  18.088  0.00  0.00    +0.000 OA
ATOM     30  H   UNL     1       4.793   1.337  18.430  0.00  0.00    +0.000 HD
ENDBRANCH  23  29
ENDBRANCH  18  19
ENDBRANCH  17  18
ENDBRANCH   3  17
TORSDOF 10
ENDMDL
MODEL 8
REMARK VINA RESULT:      -7.8      1.417      1.689
REMARK  Name = 
REMARK  12 active torsions:
REMARK  status: ('A' for Active; 'I' for Inactive)
REMARK    1  A    between atoms: C_1  and  O_2
REMARK    2  A    between atoms: O_2  and  C_3
REMARK    3  A    between atoms: C_6  and  C_7
REMARK    4  A    between atoms: C_8  and  C_9
REMARK    5  A    between atoms: N_11  and  C_12
REMARK    6  A    between atoms: C_12  and  C_13
REMARK    7  A    between atoms: C_13  and  C_14
REMARK    8  A    between atoms: C_16  and  O_17
REMARK    9  A    between atoms: C_18  and  O_19
REMARK   10  A    between atoms: C_20  and  O_21
REMARK   11  A    between atoms: C_24  and  O_25
REMARK   12  A    between atoms: O_25  and  C_26
REMARK                            x       y       z     vdW  Elec       q    Type
REMARK                         _______ _______ _______ _____ _____    ______ ____
ROOT
ATOM      1  C   UNL     1       7.399   7.011  17.571  0.00  0.00    +0.000 C 
ATOM      2  O   UNL     1       7.687   5.845  17.342  0.00  0.00    +0.000 OA
ATOM      3  N   UNL     1       6.195   7.594  17.242  0.00  0.00    +0.000 N 
ATOM      4  H   UNL     1       5.984   8.515  17.600  0.00  0.00    +0.000 HD
ENDROOT
BRANCH   1   6
ATOM      5  C   UNL     1       8.291   9.269  17.958  0.00  0.00    +0.000 C 
ATOM      6  C   UNL     1       8.346   7.956  18.236  0.00  0.00    +0.000 C 
BRANCH   5  10
ATOM      7  C   UNL     1      10.606  12.417  19.738  0.00  0.00    +0.000 A 
ATOM      8  C   UNL     1      10.761  12.071  18.385  0.00  0.00    +0.000 A 
ATOM      9  C   UNL     1      10.008  11.041  17.813  0.00  0.00    +0.000 A 
ATOM     10  C   UNL     1       9.137  10.283  18.597  0.00  0.00    +0.000 A 
ATOM     11  C   UNL     1       9.055  10.577  19.963  0.00  0.00    +0.000 A 
ATOM     12  C   UNL     1       9.781  11.625  20.552  0.00  0.00    +0.000 A 
BRANCH   7  14
ATOM     13  C   UNL     1      12.003  14.276  19.313  0.00  0.00    +0.000 C 
ATOM     14  O   UNL     1      11.251  13.507  20.259  0.00  0.00    +0.000 OA
ENDBRANCH   7  14
BRANCH  12  15
ATOM     15  O   UNL     1       9.528  11.717  21.890  0.00  0.00    +0.000 OA
ATOM     16  C   UNL     1       8.483  12.555  22.358  0.00  0.00    +0.000 C 
ENDBRANCH  12  15
ENDBRANCH   5  10
ENDBRANCH   1   6
BRANCH   3  17
ATOM     17  C   UNL     1       5.124   6.822  16.631  0.00  0.00    +0.000 C 
BRANCH  17  18
ATOM     18  C   UNL     1       3.879   6.771  17.522  0.00  0.00    +0.000 C 
BRANCH  18  19
ATOM     19  C   UNL     1       3.527   5.365  17.957  0.00  0.00    +0.000 A 
ATOM     20  C   UNL     1       4.508   4.513  18.498  0.00  0.00    +0.000 A 
ATOM     21  C   UNL     1       4.168   3.213  18.871  0.00  0.00    +0.000 A 
ATOM     22  C   UNL     1       2.863   2.760  18.723  0.00  0.00    +0.000 A 
ATOM     23  C   UNL     1       1.892   3.593  18.189  0.00  0.00    +0.000 A 
ATOM     24  C   UNL     1       2.212   4.890  17.804  0.00  0.00    +0.000 A 
BRANCH  21  25
ATOM     25  O   UNL     1       5.088   2.339  19.380  0.00  0.00    +0.000 OA
ATOM     26  H   UNL     1       5.886   2.842  19.619  0.00  0.00    +0.000 HD
ENDBRANCH  21  25
BRANCH  22  27
ATOM     27  O   UNL     1       2.521   1.485  19.091  0.00  0.00    +0.000 OA
ATOM     28  H   UNL     1       2.287   1.047  18.247  0.00  0.00    +0.000 HD
ENDBRANCH  22  27
BRANCH  23  29
ATOM     29  O   UNL     1       0.614   3.139  18.033  0.00  0.00    +0.000 OA
ATOM     30  H   UNL     1       0.558   2.359  18.621  0.00  0.00    +0.000 HD
ENDBRANCH  23  29
ENDBRANCH  18  19
ENDBRANCH  17  18
ENDBRANCH   3  17
TORSDOF 10
ENDMDL
MODEL 9
REMARK VINA RESULT:      -7.8      1.314      1.712
REMARK  Name = 
REMARK  12 active torsions:
REMARK  status: ('A' for Active; 'I' for Inactive)
REMARK    1  A    between atoms: C_1  and  O_2
REMARK    2  A    between atoms: O_2  and  C_3
REMARK    3  A    between atoms: C_6  and  C_7
REMARK    4  A    between atoms: C_8  and  C_9
REMARK    5  A    between atoms: N_11  and  C_12
REMARK    6  A    between atoms: C_12  and  C_13
REMARK    7  A    between atoms: C_13  and  C_14
REMARK    8  A    between atoms: C_16  and  O_17
REMARK    9  A    between atoms: C_18  and  O_19
REMARK   10  A    between atoms: C_20  and  O_21
REMARK   11  A    between atoms: C_24  and  O_25
REMARK   12  A    between atoms: O_25  and  C_26
REMARK                            x       y       z     vdW  Elec       q    Type
REMARK                         _______ _______ _______ _____ _____    ______ ____
ROOT
ATOM      1  C   UNL     1       7.694   7.710  17.879  0.00  0.00    +0.000 C 
ATOM      2  O   UNL     1       8.137   6.860  18.638  0.00  0.00    +0.000 OA
ATOM      3  N   UNL     1       6.643   7.507  17.012  0.00  0.00    +0.000 N 
ATOM      4  H   UNL     1       6.245   8.302  16.531  0.00  0.00    +0.000 HD
ENDROOT
BRANCH   1   6
ATOM      5  C   UNL     1       8.926   9.605  18.845  0.00  0.00    +0.000 C 
ATOM      6  C   UNL     1       8.264   9.088  17.797  0.00  0.00    +0.000 C 
BRANCH   5  10
ATOM      7  C   UNL     1      10.626  13.545  18.678  0.00  0.00    +0.000 A 
ATOM      8  C   UNL     1      10.914  12.583  17.696  0.00  0.00    +0.000 A 
ATOM      9  C   UNL     1      10.362  11.300  17.758  0.00  0.00    +0.000 A 
ATOM     10  C   UNL     1       9.569  10.925  18.844  0.00  0.00    +0.000 A 
ATOM     11  C   UNL     1       9.360  11.862  19.863  0.00  0.00    +0.000 A 
ATOM     12  C   UNL     1       9.883  13.164  19.805  0.00  0.00    +0.000 A 
BRANCH   7  14
ATOM     13  C   UNL     1      10.178  15.709  17.837  0.00  0.00    +0.000 C 
ATOM     14  O   UNL     1      11.067  14.835  18.542  0.00  0.00    +0.000 OA
ENDBRANCH   7  14
BRANCH  12  15
ATOM     15  O   UNL     1       9.538  13.889  20.910  0.00  0.00    +0.000 OA
ATOM     16  C   UNL     1       9.253  13.227  22.131  0.00  0.00    +0.000 C 
ENDBRANCH  12  15
ENDBRANCH   5  10
ENDBRANCH   1   6
BRANCH   3  17
ATOM     17  C   UNL     1       5.924   6.243  16.980  0.00  0.00    +0.000 C 
BRANCH  17  18
ATOM     18  C   UNL     1       4.446   6.419  17.341  0.00  0.00    +0.000 C 
BRANCH  18  19
ATOM     19  C   UNL     1       3.951   5.371  18.313  0.00  0.00    +0.000 A 
ATOM     20  C   UNL     1       2.685   5.491  18.917  0.00  0.00    +0.000 A 
ATOM     21  C   UNL     1       2.257   4.525  19.828  0.00  0.00    +0.000 A 
ATOM     22  C   UNL     1       3.070   3.440  20.133  0.00  0.00    +0.000 A 
ATOM     23  C   UNL     1       4.318   3.317  19.544  0.00  0.00    +0.000 A 
ATOM     24  C   UNL     1       4.767   4.272  18.639  0.00  0.00    +0.000 A 
BRANCH  21  25
ATOM     25  O   UNL     1       1.046   4.607  20.458  0.00  0.00    +0.000 OA
ATOM     26  H   UNL     1       1.124   5.253  21.182  0.00  0.00    +0.000 HD
ENDBRANCH  21  25
BRANCH  22  27
ATOM     27  O   UNL     1       2.654   2.486  21.025  0.00  0.00    +0.000 OA
ATOM     28  H   UNL     1       1.900   2.905  21.489  0.00  0.00    +0.000 HD
ENDBRANCH  22  27
BRANCH  23  29
ATOM     29  O   UNL     1       5.119   2.257  19.857  0.00  0.00    +0.000 OA
ATOM     30  H   UNL     1       4.567   1.470  19.672  0.00  0.00    +0.000 HD
ENDBRANCH  23  29
ENDBRANCH  18  19
ENDBRANCH  17  18
ENDBRANCH   3  17
TORSDOF 10
ENDMDL
