MODEL 1
REMARK VINA RESULT:      -8.6      0.000      0.000
REMARK  Name = 
REMARK  11 active torsions:
REMARK  status: ('A' for Active; 'I' for Inactive)
REMARK    1  A    between atoms: C_1  and  O_2
REMARK    2  A    between atoms: O_2  and  C_3
REMARK    3  A    between atoms: C_6  and  N_7
REMARK    4  A    between atoms: C_8  and  C_10
REMARK    5  A    between atoms: C_10  and  N_11
REMARK    6  A    between atoms: C_14  and  C_15
REMARK    7  A    between atoms: C_17  and  C_18
REMARK    8  A    between atoms: C_21  and  N_22
REMARK    9  A    between atoms: C_23  and  C_24
REMARK   10  A    between atoms: C_33  and  O_34
REMARK   11  A    between atoms: O_34  and  C_35
REMARK                            x       y       z     vdW  Elec       q    Type
REMARK                         _______ _______ _______ _____ _____    ______ ____
ROOT
ATOM      1  N   UNL     1       0.143  11.285  21.828  0.00  0.00    +0.000 N 
ATOM      2  C   UNL     1       0.504  12.101  20.802  0.00  0.00    +0.000 A 
ATOM      3  O   UNL     1       1.557  12.270  20.210  0.00  0.00    +0.000 OA
ATOM      4  C   UNL     1      -0.680  12.879  20.440  0.00  0.00    +0.000 A 
ATOM      5  N   UNL     1      -0.837  13.915  21.219  0.00  0.00    +0.000 NA
ATOM      6  C   UNL     1      -0.911  13.463  22.591  0.00  0.00    +0.000 A 
ATOM      7  C   UNL     1      -1.719  14.330  23.341  0.00  0.00    +0.000 A 
ATOM      8  C   UNL     1      -2.957  13.858  23.701  0.00  0.00    +0.000 A 
ATOM      9  C   UNL     1      -3.207  12.497  23.510  0.00  0.00    +0.000 A 
ATOM     10  C   UNL     1      -2.149  11.568  23.157  0.00  0.00    +0.000 A 
ATOM     11  C   UNL     1      -0.865  12.022  22.780  0.00  0.00    +0.000 A 
ENDROOT
BRANCH   4  12
ATOM     12  C   UNL     1      -1.842  12.139  19.776  0.00  0.00    +0.000 A 
ATOM     13  C   UNL     1      -1.316  11.174  18.916  0.00  0.00    +0.000 A 
ATOM     14  C   UNL     1      -2.131  10.510  18.024  0.00  0.00    +0.000 A 
ATOM     15  C   UNL     1      -1.485   9.726  16.925  0.00  0.00    +0.000 C 
ATOM     16  C   UNL     1      -3.520  10.627  18.106  0.00  0.00    +0.000 A 
ATOM     17  C   UNL     1      -4.089  11.576  18.962  0.00  0.00    +0.000 A 
ATOM     18  C   UNL     1      -3.283  12.419  19.712  0.00  0.00    +0.000 A 
BRANCH  18  19
ATOM     19  N   UNL     1      -3.862  13.668  20.133  0.00  0.00    +0.000 N 
ATOM     20  C   UNL     1      -5.100  14.117  20.494  0.00  0.00    +0.000 C 
ATOM     21  C   UNL     1      -6.057  13.353  21.388  0.00  0.00    +0.000 C 
ATOM     22  O   UNL     1      -5.468  15.226  20.076  0.00  0.00    +0.000 OA
ATOM     23  H   UNL     1      -3.444  14.435  19.636  0.00  0.00    +0.000 HD
ENDBRANCH  18  19
ENDBRANCH   4  12
BRANCH   1  24
ATOM     24  C   UNL     1       1.053  10.115  21.961  0.00  0.00    +0.000 C 
BRANCH  24  26
ATOM     25  N   UNL     1       1.868   7.884  20.550  0.00  0.00    +0.000 N 
ATOM     26  C   UNL     1       0.839   8.596  21.189  0.00  0.00    +0.000 C 
ATOM     27  O   UNL     1      -0.324   8.168  21.131  0.00  0.00    +0.000 OA
ATOM     28  H   UNL     1       2.778   8.316  20.437  0.00  0.00    +0.000 HD
BRANCH  25  32
ATOM     29  C   UNL     1       2.034   3.789  19.055  0.00  0.00    +0.000 A 
ATOM     30  C   UNL     1       1.401   4.092  20.265  0.00  0.00    +0.000 A 
ATOM     31  C   UNL     1       1.293   5.431  20.745  0.00  0.00    +0.000 A 
ATOM     32  C   UNL     1       1.866   6.506  20.052  0.00  0.00    +0.000 A 
ATOM     33  C   UNL     1       2.573   6.176  18.858  0.00  0.00    +0.000 A 
ATOM     34  C   UNL     1       2.620   4.840  18.358  0.00  0.00    +0.000 A 
BRANCH  29  36
ATOM     35  C   UNL     1       3.146   1.984  17.909  0.00  0.00    +0.000 C 
ATOM     36  O   UNL     1       2.054   2.471  18.695  0.00  0.00    +0.000 OA
ENDBRANCH  29  36
BRANCH  33  37
ATOM     37  O   UNL     1       3.160   7.235  18.196  0.00  0.00    +0.000 OA
ATOM     38  C   UNL     1       4.234   6.918  17.313  0.00  0.00    +0.000 C 
ENDBRANCH  33  37
ENDBRANCH  25  32
ENDBRANCH  24  26
ENDBRANCH   1  24
TORSDOF 7
ENDMDL
MODEL 2
REMARK VINA RESULT:      -8.1      1.516      1.762
REMARK  Name = 
REMARK  11 active torsions:
REMARK  status: ('A' for Active; 'I' for Inactive)
REMARK    1  A    between atoms: C_1  and  O_2
REMARK    2  A    between atoms: O_2  and  C_3
REMARK    3  A    between atoms: C_6  and  N_7
REMARK    4  A    between atoms: C_8  and  C_10
REMARK    5  A    between atoms: C_10  and  N_11
REMARK    6  A    between atoms: C_14  and  C_15
REMARK    7  A    between atoms: C_17  and  C_18
REMARK    8  A    between atoms: C_21  and  N_22
REMARK    9  A    between atoms: C_23  and  C_24
REMARK   10  A    between atoms: C_33  and  O_34
REMARK   11  A    between atoms: O_34  and  C_35
REMARK                            x       y       z     vdW  Elec       q    Type
REMARK                         _______ _______ _______ _____ _____    ______ ____
ROOT
ATOM      1  N   UNL     1       0.729  11.348  19.393  0.00  0.00    +0.000 N 
ATOM      2  C   UNL     1       0.519  12.461  18.640  0.00  0.00    +0.000 A 
ATOM      3  O   UNL     1       1.161  12.990  17.747  0.00  0.00    +0.000 OA
ATOM      4  C   UNL     1      -0.740  13.051  19.093  0.00  0.00    +0.000 A 
ATOM      5  N   UNL     1      -0.575  13.791  20.155  0.00  0.00    +0.000 NA
ATOM      6  C   UNL     1       0.028  12.989  21.197  0.00  0.00    +0.000 A 
ATOM      7  C   UNL     1      -0.384  13.445  22.457  0.00  0.00    +0.000 A 
ATOM      8  C   UNL     1      -1.280  12.655  23.134  0.00  0.00    +0.000 A 
ATOM      9  C   UNL     1      -1.510  11.371  22.635  0.00  0.00    +0.000 A 
ATOM     10  C   UNL     1      -0.687  10.801  21.583  0.00  0.00    +0.000 A 
ATOM     11  C   UNL     1       0.242  11.589  20.866  0.00  0.00    +0.000 A 
ENDROOT
BRANCH   4  12
ATOM     12  C   UNL     1      -2.032  12.292  18.786  0.00  0.00    +0.000 A 
ATOM     13  C   UNL     1      -1.833  11.533  17.632  0.00  0.00    +0.000 A 
ATOM     14  C   UNL     1      -2.897  10.923  17.002  0.00  0.00    +0.000 A 
ATOM     15  C   UNL     1      -2.689  10.391  15.618  0.00  0.00    +0.000 C 
ATOM     16  C   UNL     1      -4.151  10.869  17.614  0.00  0.00    +0.000 A 
ATOM     17  C   UNL     1      -4.390  11.607  18.778  0.00  0.00    +0.000 A 
ATOM     18  C   UNL     1      -3.397  12.414  19.314  0.00  0.00    +0.000 A 
BRANCH  18  19
ATOM     19  N   UNL     1      -3.828  13.511  20.140  0.00  0.00    +0.000 N 
ATOM     20  C   UNL     1      -4.738  13.705  21.139  0.00  0.00    +0.000 C 
ATOM     21  C   UNL     1      -4.972  12.735  22.279  0.00  0.00    +0.000 C 
ATOM     22  O   UNL     1      -5.413  14.747  21.125  0.00  0.00    +0.000 OA
ATOM     23  H   UNL     1      -3.839  14.366  19.611  0.00  0.00    +0.000 HD
ENDBRANCH  18  19
ENDBRANCH   4  12
BRANCH   1  24
ATOM     24  C   UNL     1       1.662  10.394  18.735  0.00  0.00    +0.000 C 
BRANCH  24  26
ATOM     25  N   UNL     1       2.219   7.734  18.236  0.00  0.00    +0.000 N 
ATOM     26  C   UNL     1       1.841   8.737  19.146  0.00  0.00    +0.000 C 
ATOM     27  O   UNL     1       1.527   8.420  20.303  0.00  0.00    +0.000 OA
ATOM     28  H   UNL     1       2.298   7.960  17.250  0.00  0.00    +0.000 HD
BRANCH  25  32
ATOM     29  C   UNL     1       3.530   3.663  19.090  0.00  0.00    +0.000 A 
ATOM     30  C   UNL     1       2.293   4.134  19.541  0.00  0.00    +0.000 A 
ATOM     31  C   UNL     1       1.826   5.445  19.230  0.00  0.00    +0.000 A 
ATOM     32  C   UNL     1       2.610   6.347  18.499  0.00  0.00    +0.000 A 
ATOM     33  C   UNL     1       3.900   5.882  18.108  0.00  0.00    +0.000 A 
ATOM     34  C   UNL     1       4.329   4.547  18.374  0.00  0.00    +0.000 A 
BRANCH  29  36
ATOM     35  C   UNL     1       3.726   1.345  18.461  0.00  0.00    +0.000 C 
ATOM     36  O   UNL     1       3.855   2.382  19.438  0.00  0.00    +0.000 OA
ENDBRANCH  29  36
BRANCH  33  37
ATOM     37  O   UNL     1       4.679   6.786  17.414  0.00  0.00    +0.000 OA
ATOM     38  C   UNL     1       5.116   6.385  16.116  0.00  0.00    +0.000 C 
ENDBRANCH  33  37
ENDBRANCH  25  32
ENDBRANCH  24  26
ENDBRANCH   1  24
TORSDOF 7
ENDMDL
MODEL 3
REMARK VINA RESULT:      -7.9      2.188      9.969
REMARK  Name = 
REMARK  11 active torsions:
REMARK  status: ('A' for Active; 'I' for Inactive)
REMARK    1  A    between atoms: C_1  and  O_2
REMARK    2  A    between atoms: O_2  and  C_3
REMARK    3  A    between atoms: C_6  and  N_7
REMARK    4  A    between atoms: C_8  and  C_10
REMARK    5  A    between atoms: C_10  and  N_11
REMARK    6  A    between atoms: C_14  and  C_15
REMARK    7  A    between atoms: C_17  and  C_18
REMARK    8  A    between atoms: C_21  and  N_22
REMARK    9  A    between atoms: C_23  and  C_24
REMARK   10  A    between atoms: C_33  and  O_34
REMARK   11  A    between atoms: O_34  and  C_35
REMARK                            x       y       z     vdW  Elec       q    Type
REMARK                         _______ _______ _______ _____ _____    ______ ____
ROOT
ATOM      1  N   UNL     1       2.048   6.984  19.775  0.00  0.00    +0.000 N 
ATOM      2  C   UNL     1       2.141   6.926  18.420  0.00  0.00    +0.000 A 
ATOM      3  O   UNL     1       1.846   7.715  17.536  0.00  0.00    +0.000 OA
ATOM      4  C   UNL     1       2.702   5.618  18.085  0.00  0.00    +0.000 A 
ATOM      5  N   UNL     1       1.787   4.687  18.070  0.00  0.00    +0.000 NA
ATOM      6  C   UNL     1       1.127   4.656  19.357  0.00  0.00    +0.000 A 
ATOM      7  C   UNL     1       0.688   3.356  19.642  0.00  0.00    +0.000 A 
ATOM      8  C   UNL     1       1.386   2.669  20.605  0.00  0.00    +0.000 A 
ATOM      9  C   UNL     1       2.296   3.393  21.378  0.00  0.00    +0.000 A 
ATOM     10  C   UNL     1       2.355   4.843  21.332  0.00  0.00    +0.000 A 
ATOM     11  C   UNL     1       1.650   5.578  20.352  0.00  0.00    +0.000 A 
ENDROOT
BRANCH   4  12
ATOM     12  C   UNL     1       4.164   5.358  18.448  0.00  0.00    +0.000 A 
ATOM     13  C   UNL     1       4.922   6.454  18.034  0.00  0.00    +0.000 A 
ATOM     14  C   UNL     1       6.300   6.394  18.036  0.00  0.00    +0.000 A 
ATOM     15  C   UNL     1       7.055   7.458  17.300  0.00  0.00    +0.000 C 
ATOM     16  C   UNL     1       6.966   5.330  18.647  0.00  0.00    +0.000 A 
ATOM     17  C   UNL     1       6.243   4.216  19.086  0.00  0.00    +0.000 A 
ATOM     18  C   UNL     1       4.871   4.149  18.893  0.00  0.00    +0.000 A 
BRANCH  18  19
ATOM     19  N   UNL     1       4.283   2.836  18.861  0.00  0.00    +0.000 N 
ATOM     20  C   UNL     1       4.575   1.604  19.371  0.00  0.00    +0.000 C 
ATOM     21  C   UNL     1       5.076   1.361  20.781  0.00  0.00    +0.000 C 
ATOM     22  O   UNL     1       4.412   0.612  18.642  0.00  0.00    +0.000 OA
ATOM     23  H   UNL     1       3.881   2.653  17.957  0.00  0.00    +0.000 HD
ENDBRANCH  18  19
ENDBRANCH   4  12
BRANCH   1  24
ATOM     24  C   UNL     1       1.982   8.383  20.274  0.00  0.00    +0.000 C 
BRANCH  24  26
ATOM     25  N   UNL     1       0.456  10.499  21.186  0.00  0.00    +0.000 N 
ATOM     26  C   UNL     1       0.612   9.113  21.009  0.00  0.00    +0.000 C 
ATOM     27  O   UNL     1      -0.236   8.341  21.481  0.00  0.00    +0.000 OA
ATOM     28  H   UNL     1       1.227  11.120  20.967  0.00  0.00    +0.000 HD
BRANCH  25  32
ATOM     29  C   UNL     1      -3.180  12.646  22.279  0.00  0.00    +0.000 A 
ATOM     30  C   UNL     1      -2.424  11.967  23.241  0.00  0.00    +0.000 A 
ATOM     31  C   UNL     1      -1.207  11.301  22.911  0.00  0.00    +0.000 A 
ATOM     32  C   UNL     1      -0.735  11.249  21.592  0.00  0.00    +0.000 A 
ATOM     33  C   UNL     1      -1.552  11.881  20.609  0.00  0.00    +0.000 A 
ATOM     34  C   UNL     1      -2.736  12.596  20.963  0.00  0.00    +0.000 A 
BRANCH  29  36
ATOM     35  C   UNL     1      -5.513  13.153  21.947  0.00  0.00    +0.000 C 
ATOM     36  O   UNL     1      -4.316  13.261  22.725  0.00  0.00    +0.000 OA
ENDBRANCH  29  36
BRANCH  33  37
ATOM     37  O   UNL     1      -1.096  11.802  19.309  0.00  0.00    +0.000 OA
ATOM     38  C   UNL     1      -1.780  10.893  18.449  0.00  0.00    +0.000 C 
ENDBRANCH  33  37
ENDBRANCH  25  32
ENDBRANCH  24  26
ENDBRANCH   1  24
TORSDOF 7
ENDMDL
MODEL 4
REMARK VINA RESULT:      -7.8      1.429      2.136
REMARK  Name = 
REMARK  11 active torsions:
REMARK  status: ('A' for Active; 'I' for Inactive)
REMARK    1  A    between atoms: C_1  and  O_2
REMARK    2  A    between atoms: O_2  and  C_3
REMARK    3  A    between atoms: C_6  and  N_7
REMARK    4  A    between atoms: C_8  and  C_10
REMARK    5  A    between atoms: C_10  and  N_11
REMARK    6  A    between atoms: C_14  and  C_15
REMARK    7  A    between atoms: C_17  and  C_18
REMARK    8  A    between atoms: C_21  and  N_22
REMARK    9  A    between atoms: C_23  and  C_24
REMARK   10  A    between atoms: C_33  and  O_34
REMARK   11  A    between atoms: O_34  and  C_35
REMARK                            x       y       z     vdW  Elec       q    Type
REMARK                         _______ _______ _______ _____ _____    ______ ____
ROOT
ATOM      1  N   UNL     1      -0.835  11.299  22.693  0.00  0.00    +0.000 N 
ATOM      2  C   UNL     1      -0.137  12.011  21.769  0.00  0.00    +0.000 A 
ATOM      3  O   UNL     1       1.031  11.986  21.415  0.00  0.00    +0.000 OA
ATOM      4  C   UNL     1      -1.072  12.959  21.165  0.00  0.00    +0.000 A 
ATOM      5  N   UNL     1      -1.214  14.032  21.894  0.00  0.00    +0.000 NA
ATOM      6  C   UNL     1      -1.649  13.645  23.218  0.00  0.00    +0.000 A 
ATOM      7  C   UNL     1      -2.441  14.656  23.780  0.00  0.00    +0.000 A 
ATOM      8  C   UNL     1      -3.788  14.404  23.868  0.00  0.00    +0.000 A 
ATOM      9  C   UNL     1      -4.215  13.097  23.626  0.00  0.00    +0.000 A 
ATOM     10  C   UNL     1      -3.276  11.996  23.505  0.00  0.00    +0.000 A 
ATOM     11  C   UNL     1      -1.884  12.223  23.411  0.00  0.00    +0.000 A 
ENDROOT
BRANCH   4  12
ATOM     12  C   UNL     1      -2.174  12.396  20.268  0.00  0.00    +0.000 A 
ATOM     13  C   UNL     1      -1.622  11.398  19.463  0.00  0.00    +0.000 A 
ATOM     14  C   UNL     1      -2.335  10.873  18.407  0.00  0.00    +0.000 A 
ATOM     15  C   UNL     1      -1.601  10.047  17.398  0.00  0.00    +0.000 C 
ATOM     16  C   UNL     1      -3.691  11.166  18.248  0.00  0.00    +0.000 A 
ATOM     17  C   UNL     1      -4.288  12.152  19.041  0.00  0.00    +0.000 A 
ATOM     18  C   UNL     1      -3.535  12.860  19.966  0.00  0.00    +0.000 A 
BRANCH  18  19
ATOM     19  N   UNL     1      -4.026  14.159  20.345  0.00  0.00    +0.000 N 
ATOM     20  C   UNL     1      -5.242  14.773  20.438  0.00  0.00    +0.000 C 
ATOM     21  C   UNL     1      -6.486  14.120  21.006  0.00  0.00    +0.000 C 
ATOM     22  O   UNL     1      -5.339  15.946  20.043  0.00  0.00    +0.000 OA
ATOM     23  H   UNL     1      -3.397  14.878  20.031  0.00  0.00    +0.000 HD
ENDBRANCH  18  19
ENDBRANCH   4  12
BRANCH   1  24
ATOM     24  C   UNL     1      -0.181  10.003  23.015  0.00  0.00    +0.000 C 
BRANCH  24  26
ATOM     25  N   UNL     1       0.754   8.490  20.900  0.00  0.00    +0.000 N 
ATOM     26  C   UNL     1       1.023   9.233  22.062  0.00  0.00    +0.000 C 
ATOM     27  O   UNL     1       2.182   9.278  22.500  0.00  0.00    +0.000 OA
ATOM     28  H   UNL     1      -0.208   8.298  20.642  0.00  0.00    +0.000 HD
BRANCH  25  32
ATOM     29  C   UNL     1       3.430   6.823  17.886  0.00  0.00    +0.000 A 
ATOM     30  C   UNL     1       2.945   8.131  17.778  0.00  0.00    +0.000 A 
ATOM     31  C   UNL     1       2.109   8.710  18.778  0.00  0.00    +0.000 A 
ATOM     32  C   UNL     1       1.688   7.975  19.896  0.00  0.00    +0.000 A 
ATOM     33  C   UNL     1       2.129   6.621  19.957  0.00  0.00    +0.000 A 
ATOM     34  C   UNL     1       3.015   6.074  18.981  0.00  0.00    +0.000 A 
BRANCH  29  36
ATOM     35  C   UNL     1       4.569   5.001  16.794  0.00  0.00    +0.000 C 
ATOM     36  O   UNL     1       4.239   6.392  16.872  0.00  0.00    +0.000 OA
ENDBRANCH  29  36
BRANCH  33  37
ATOM     37  O   UNL     1       1.687   5.894  21.045  0.00  0.00    +0.000 OA
ATOM     38  C   UNL     1       2.162   4.554  21.151  0.00  0.00    +0.000 C 
ENDBRANCH  33  37
ENDBRANCH  25  32
ENDBRANCH  24  26
ENDBRANCH   1  24
TORSDOF 7
ENDMDL
MODEL 5
REMARK VINA RESULT:      -7.8      2.243      9.911
REMARK  Name = 
REMARK  11 active torsions:
REMARK  status: ('A' for Active; 'I' for Inactive)
REMARK    1  A    between atoms: C_1  and  O_2
REMARK    2  A    between atoms: O_2  and  C_3
REMARK    3  A    between atoms: C_6  and  N_7
REMARK    4  A    between atoms: C_8  and  C_10
REMARK    5  A    between atoms: C_10  and  N_11
REMARK    6  A    between atoms: C_14  and  C_15
REMARK    7  A    between atoms: C_17  and  C_18
REMARK    8  A    between atoms: C_21  and  N_22
REMARK    9  A    between atoms: C_23  and  C_24
REMARK   10  A    between atoms: C_33  and  O_34
REMARK   11  A    between atoms: O_34  and  C_35
REMARK                            x       y       z     vdW  Elec       q    Type
REMARK                         _______ _______ _______ _____ _____    ______ ____
ROOT
ATOM      1  N   UNL     1       2.068   6.984  19.711  0.00  0.00    +0.000 N 
ATOM      2  C   UNL     1       2.175   6.908  18.358  0.00  0.00    +0.000 A 
ATOM      3  O   UNL     1       1.888   7.683  17.460  0.00  0.00    +0.000 OA
ATOM      4  C   UNL     1       2.742   5.596  18.047  0.00  0.00    +0.000 A 
ATOM      5  N   UNL     1       1.829   4.663  18.036  0.00  0.00    +0.000 NA
ATOM      6  C   UNL     1       1.156   4.649  19.316  0.00  0.00    +0.000 A 
ATOM      7  C   UNL     1       0.716   3.352  19.615  0.00  0.00    +0.000 A 
ATOM      8  C   UNL     1       1.405   2.680  20.595  0.00  0.00    +0.000 A 
ATOM      9  C   UNL     1       2.307   3.417  21.367  0.00  0.00    +0.000 A 
ATOM     10  C   UNL     1       2.363   4.866  21.301  0.00  0.00    +0.000 A 
ATOM     11  C   UNL     1       1.667   5.586  20.304  0.00  0.00    +0.000 A 
ENDROOT
BRANCH   4  12
ATOM     12  C   UNL     1       4.201   5.344  18.429  0.00  0.00    +0.000 A 
ATOM     13  C   UNL     1       4.959   6.441  18.017  0.00  0.00    +0.000 A 
ATOM     14  C   UNL     1       6.337   6.387  18.035  0.00  0.00    +0.000 A 
ATOM     15  C   UNL     1       7.096   7.449  17.303  0.00  0.00    +0.000 C 
ATOM     16  C   UNL     1       7.000   5.330  18.661  0.00  0.00    +0.000 A 
ATOM     17  C   UNL     1       6.276   4.215  19.098  0.00  0.00    +0.000 A 
ATOM     18  C   UNL     1       4.907   4.141  18.890  0.00  0.00    +0.000 A 
BRANCH  18  19
ATOM     19  N   UNL     1       4.325   2.825  18.858  0.00  0.00    +0.000 N 
ATOM     20  C   UNL     1       4.613   1.599  19.384  0.00  0.00    +0.000 C 
ATOM     21  C   UNL     1       5.091   1.370  20.804  0.00  0.00    +0.000 C 
ATOM     22  O   UNL     1       4.466   0.600  18.661  0.00  0.00    +0.000 OA
ATOM     23  H   UNL     1       3.939   2.633  17.950  0.00  0.00    +0.000 HD
ENDBRANCH  18  19
ENDBRANCH   4  12
BRANCH   1  24
ATOM     24  C   UNL     1       1.994   8.390  20.190  0.00  0.00    +0.000 C 
BRANCH  24  26
ATOM     25  N   UNL     1       0.230  10.488  19.840  0.00  0.00    +0.000 N 
ATOM     26  C   UNL     1       0.546   9.271  20.468  0.00  0.00    +0.000 C 
ATOM     27  O   UNL     1      -0.208   8.826  21.346  0.00  0.00    +0.000 OA
ATOM     28  H   UNL     1       0.925  10.946  19.261  0.00  0.00    +0.000 HD
BRANCH  25  32
ATOM     29  C   UNL     1      -3.635  12.509  19.770  0.00  0.00    +0.000 A 
ATOM     30  C   UNL     1      -2.765  12.651  20.855  0.00  0.00    +0.000 A 
ATOM     31  C   UNL     1      -1.477  12.039  20.874  0.00  0.00    +0.000 A 
ATOM     32  C   UNL     1      -1.041  11.217  19.826  0.00  0.00    +0.000 A 
ATOM     33  C   UNL     1      -1.966  11.019  18.759  0.00  0.00    +0.000 A 
ATOM     34  C   UNL     1      -3.227  11.688  18.725  0.00  0.00    +0.000 A 
BRANCH  29  36
ATOM     35  C   UNL     1      -5.987  12.433  20.291  0.00  0.00    +0.000 C 
ATOM     36  O   UNL     1      -4.832  13.162  19.863  0.00  0.00    +0.000 OA
ENDBRANCH  29  36
BRANCH  33  37
ATOM     37  O   UNL     1      -1.543  10.186  17.743  0.00  0.00    +0.000 OA
ATOM     38  C   UNL     1      -2.327  10.183  16.552  0.00  0.00    +0.000 C 
ENDBRANCH  33  37
ENDBRANCH  25  32
ENDBRANCH  24  26
ENDBRANCH   1  24
TORSDOF 7
ENDMDL
MODEL 6
REMARK VINA RESULT:      -7.7      1.595      2.978
REMARK  Name = 
REMARK  11 active torsions:
REMARK  status: ('A' for Active; 'I' for Inactive)
REMARK    1  A    between atoms: C_1  and  O_2
REMARK    2  A    between atoms: O_2  and  C_3
REMARK    3  A    between atoms: C_6  and  N_7
REMARK    4  A    between atoms: C_8  and  C_10
REMARK    5  A    between atoms: C_10  and  N_11
REMARK    6  A    between atoms: C_14  and  C_15
REMARK    7  A    between atoms: C_17  and  C_18
REMARK    8  A    between atoms: C_21  and  N_22
REMARK    9  A    between atoms: C_23  and  C_24
REMARK   10  A    between atoms: C_33  and  O_34
REMARK   11  A    between atoms: O_34  and  C_35
REMARK                            x       y       z     vdW  Elec       q    Type
REMARK                         _______ _______ _______ _____ _____    ______ ____
ROOT
ATOM      1  N   UNL     1       0.312  11.191  22.029  0.00  0.00    +0.000 N 
ATOM      2  C   UNL     1       0.845  12.145  21.220  0.00  0.00    +0.000 A 
ATOM      3  O   UNL     1       1.987  12.380  20.858  0.00  0.00    +0.000 OA
ATOM      4  C   UNL     1      -0.259  12.995  20.777  0.00  0.00    +0.000 A 
ATOM      5  N   UNL     1      -0.559  13.903  21.664  0.00  0.00    +0.000 NA
ATOM      6  C   UNL     1      -0.876  13.251  22.916  0.00  0.00    +0.000 A 
ATOM      7  C   UNL     1      -1.810  14.011  23.634  0.00  0.00    +0.000 A 
ATOM      8  C   UNL     1      -3.090  13.516  23.691  0.00  0.00    +0.000 A 
ATOM      9  C   UNL     1      -3.293  12.206  23.252  0.00  0.00    +0.000 A 
ATOM     10  C   UNL     1      -2.183  11.318  22.956  0.00  0.00    +0.000 A 
ATOM     11  C   UNL     1      -0.855  11.797  22.888  0.00  0.00    +0.000 A 
ENDROOT
BRANCH   4  12
ATOM     12  C   UNL     1      -1.279  12.389  19.812  0.00  0.00    +0.000 A 
ATOM     13  C   UNL     1      -2.532  12.932  20.096  0.00  0.00    +0.000 A 
ATOM     14  C   UNL     1      -3.671  12.403  19.528  0.00  0.00    +0.000 A 
ATOM     15  C   UNL     1      -4.997  12.806  20.095  0.00  0.00    +0.000 C 
ATOM     16  C   UNL     1      -3.584  11.462  18.500  0.00  0.00    +0.000 A 
ATOM     17  C   UNL     1      -2.345  10.899  18.176  0.00  0.00    +0.000 A 
ATOM     18  C   UNL     1      -1.206  11.250  18.887  0.00  0.00    +0.000 A 
BRANCH  18  19
ATOM     19  N   UNL     1      -0.124  10.301  18.889  0.00  0.00    +0.000 N 
ATOM     20  C   UNL     1       1.044  10.124  18.203  0.00  0.00    +0.000 C 
ATOM     21  C   UNL     1       2.004  11.243  17.853  0.00  0.00    +0.000 C 
ATOM     22  O   UNL     1       1.350   8.974  17.851  0.00  0.00    +0.000 OA
ATOM     23  H   UNL     1      -0.471   9.371  19.052  0.00  0.00    +0.000 HD
ENDBRANCH  18  19
ENDBRANCH   4  12
BRANCH   1  24
ATOM     24  C   UNL     1       1.190   9.996  22.141  0.00  0.00    +0.000 C 
BRANCH  24  26
ATOM     25  N   UNL     1       1.974   7.746  20.741  0.00  0.00    +0.000 N 
ATOM     26  C   UNL     1       0.946   8.503  21.329  0.00  0.00    +0.000 C 
ATOM     27  O   UNL     1      -0.232   8.138  21.192  0.00  0.00    +0.000 OA
ATOM     28  H   UNL     1       2.911   8.131  20.692  0.00  0.00    +0.000 HD
BRANCH  25  32
ATOM     29  C   UNL     1       2.019   3.670  19.188  0.00  0.00    +0.000 A 
ATOM     30  C   UNL     1       1.297   3.997  20.340  0.00  0.00    +0.000 A 
ATOM     31  C   UNL     1       1.230   5.333  20.835  0.00  0.00    +0.000 A 
ATOM     32  C   UNL     1       1.932   6.378  20.218  0.00  0.00    +0.000 A 
ATOM     33  C   UNL     1       2.724   6.020  19.088  0.00  0.00    +0.000 A 
ATOM     34  C   UNL     1       2.732   4.691  18.568  0.00  0.00    +0.000 A 
BRANCH  29  36
ATOM     35  C   UNL     1       3.001   1.873  17.918  0.00  0.00    +0.000 C 
ATOM     36  O   UNL     1       1.989   2.359  18.805  0.00  0.00    +0.000 OA
ENDBRANCH  29  36
BRANCH  33  37
ATOM     37  O   UNL     1       3.435   7.048  18.502  0.00  0.00    +0.000 OA
ATOM     38  C   UNL     1       4.242   6.705  17.378  0.00  0.00    +0.000 C 
ENDBRANCH  33  37
ENDBRANCH  25  32
ENDBRANCH  24  26
ENDBRANCH   1  24
TORSDOF 7
ENDMDL
MODEL 7
REMARK VINA RESULT:      -7.6      1.937      4.253
REMARK  Name = 
REMARK  11 active torsions:
REMARK  status: ('A' for Active; 'I' for Inactive)
REMARK    1  A    between atoms: C_1  and  O_2
REMARK    2  A    between atoms: O_2  and  C_3
REMARK    3  A    between atoms: C_6  and  N_7
REMARK    4  A    between atoms: C_8  and  C_10
REMARK    5  A    between atoms: C_10  and  N_11
REMARK    6  A    between atoms: C_14  and  C_15
REMARK    7  A    between atoms: C_17  and  C_18
REMARK    8  A    between atoms: C_21  and  N_22
REMARK    9  A    between atoms: C_23  and  C_24
REMARK   10  A    between atoms: C_33  and  O_34
REMARK   11  A    between atoms: O_34  and  C_35
REMARK                            x       y       z     vdW  Elec       q    Type
REMARK                         _______ _______ _______ _____ _____    ______ ____
ROOT
ATOM      1  N   UNL     1      -2.088  13.741  21.201  0.00  0.00    +0.000 N 
ATOM      2  C   UNL     1      -2.766  14.834  20.762  0.00  0.00    +0.000 A 
ATOM      3  O   UNL     1      -2.457  15.760  20.030  0.00  0.00    +0.000 OA
ATOM      4  C   UNL     1      -4.098  14.780  21.363  0.00  0.00    +0.000 A 
ATOM      5  N   UNL     1      -4.102  15.256  22.578  0.00  0.00    +0.000 NA
ATOM      6  C   UNL     1      -3.143  14.521  23.373  0.00  0.00    +0.000 A 
ATOM      7  C   UNL     1      -3.558  14.478  24.712  0.00  0.00    +0.000 A 
ATOM      8  C   UNL     1      -4.029  13.272  25.170  0.00  0.00    +0.000 A 
ATOM      9  C   UNL     1      -3.828  12.153  24.360  0.00  0.00    +0.000 A 
ATOM     10  C   UNL     1      -2.970  12.201  23.190  0.00  0.00    +0.000 A 
ATOM     11  C   UNL     1      -2.471  13.426  22.691  0.00  0.00    +0.000 A 
ENDROOT
BRANCH   4  12
ATOM     12  C   UNL     1      -5.050  13.684  20.882  0.00  0.00    +0.000 A 
ATOM     13  C   UNL     1      -6.041  13.507  21.848  0.00  0.00    +0.000 A 
ATOM     14  C   UNL     1      -6.904  12.433  21.780  0.00  0.00    +0.000 A 
ATOM     15  C   UNL     1      -7.732  12.113  22.985  0.00  0.00    +0.000 C 
ATOM     16  C   UNL     1      -6.948  11.627  20.641  0.00  0.00    +0.000 A 
ATOM     17  C   UNL     1      -5.979  11.778  19.643  0.00  0.00    +0.000 A 
ATOM     18  C   UNL     1      -4.958  12.706  19.790  0.00  0.00    +0.000 A 
BRANCH  18  19
ATOM     19  N   UNL     1      -3.748  12.463  19.050  0.00  0.00    +0.000 N 
ATOM     20  C   UNL     1      -3.367  11.681  17.998  0.00  0.00    +0.000 C 
ATOM     21  C   UNL     1      -4.193  11.477  16.744  0.00  0.00    +0.000 C 
ATOM     22  O   UNL     1      -2.269  11.105  18.061  0.00  0.00    +0.000 OA
ATOM     23  H   UNL     1      -2.952  12.476  19.664  0.00  0.00    +0.000 HD
ENDBRANCH  18  19
ENDBRANCH   4  12
BRANCH   1  24
ATOM     24  C   UNL     1      -0.947  13.394  20.312  0.00  0.00    +0.000 C 
BRANCH  24  26
ATOM     25  N   UNL     1      -0.220  10.743  20.023  0.00  0.00    +0.000 N 
ATOM     26  C   UNL     1       0.081  12.031  20.500  0.00  0.00    +0.000 C 
ATOM     27  O   UNL     1       1.104  12.203  21.179  0.00  0.00    +0.000 OA
ATOM     28  H   UNL     1      -1.137  10.559  19.629  0.00  0.00    +0.000 HD
BRANCH  25  32
ATOM     29  C   UNL     1       2.226   7.141  19.767  0.00  0.00    +0.000 A 
ATOM     30  C   UNL     1       2.222   8.087  18.737  0.00  0.00    +0.000 A 
ATOM     31  C   UNL     1       1.467   9.294  18.824  0.00  0.00    +0.000 A 
ATOM     32  C   UNL     1       0.648   9.567  19.928  0.00  0.00    +0.000 A 
ATOM     33  C   UNL     1       0.603   8.562  20.938  0.00  0.00    +0.000 A 
ATOM     34  C   UNL     1       1.411   7.387  20.865  0.00  0.00    +0.000 A 
BRANCH  29  36
ATOM     35  C   UNL     1       3.783   5.939  18.374  0.00  0.00    +0.000 C 
ATOM     36  O   UNL     1       3.006   6.036  19.572  0.00  0.00    +0.000 OA
ENDBRANCH  29  36
BRANCH  33  37
ATOM     37  O   UNL     1      -0.228   8.823  22.009  0.00  0.00    +0.000 OA
ATOM     38  C   UNL     1       0.379   9.412  23.157  0.00  0.00    +0.000 C 
ENDBRANCH  33  37
ENDBRANCH  25  32
ENDBRANCH  24  26
ENDBRANCH   1  24
TORSDOF 7
ENDMDL
MODEL 8
REMARK VINA RESULT:      -7.5      2.271      3.918
REMARK  Name = 
REMARK  11 active torsions:
REMARK  status: ('A' for Active; 'I' for Inactive)
REMARK    1  A    between atoms: C_1  and  O_2
REMARK    2  A    between atoms: O_2  and  C_3
REMARK    3  A    between atoms: C_6  and  N_7
REMARK    4  A    between atoms: C_8  and  C_10
REMARK    5  A    between atoms: C_10  and  N_11
REMARK    6  A    between atoms: C_14  and  C_15
REMARK    7  A    between atoms: C_17  and  C_18
REMARK    8  A    between atoms: C_21  and  N_22
REMARK    9  A    between atoms: C_23  and  C_24
REMARK   10  A    between atoms: C_33  and  O_34
REMARK   11  A    between atoms: O_34  and  C_35
REMARK                            x       y       z     vdW  Elec       q    Type
REMARK                         _______ _______ _______ _____ _____    ______ ____
ROOT
ATOM      1  N   UNL     1       0.661  11.218  20.598  0.00  0.00    +0.000 N 
ATOM      2  C   UNL     1      -0.412  11.108  19.771  0.00  0.00    +0.000 A 
ATOM      3  O   UNL     1      -1.086  10.156  19.412  0.00  0.00    +0.000 OA
ATOM      4  C   UNL     1      -0.707  12.451  19.272  0.00  0.00    +0.000 A 
ATOM      5  N   UNL     1       0.052  12.770  18.259  0.00  0.00    +0.000 NA
ATOM      6  C   UNL     1       1.438  12.655  18.656  0.00  0.00    +0.000 A 
ATOM      7  C   UNL     1       2.221  13.575  17.945  0.00  0.00    +0.000 A 
ATOM      8  C   UNL     1       2.686  14.659  18.648  0.00  0.00    +0.000 A 
ATOM      9  C   UNL     1       2.554  14.629  20.038  0.00  0.00    +0.000 A 
ATOM     10  C   UNL     1       2.150  13.424  20.741  0.00  0.00    +0.000 A 
ATOM     11  C   UNL     1       1.665  12.293  20.046  0.00  0.00    +0.000 A 
ENDROOT
BRANCH   4  12
ATOM     12  C   UNL     1      -1.260  13.472  20.267  0.00  0.00    +0.000 A 
ATOM     13  C   UNL     1      -2.065  12.800  21.187  0.00  0.00    +0.000 A 
ATOM     14  C   UNL     1      -2.866  13.502  22.062  0.00  0.00    +0.000 A 
ATOM     15  C   UNL     1      -3.929  12.752  22.804  0.00  0.00    +0.000 C 
ATOM     16  C   UNL     1      -2.734  14.885  22.196  0.00  0.00    +0.000 A 
ATOM     17  C   UNL     1      -1.929  15.597  21.300  0.00  0.00    +0.000 A 
ATOM     18  C   UNL     1      -1.283  14.941  20.263  0.00  0.00    +0.000 A 
BRANCH  18  19
ATOM     19  N   UNL     1      -0.935  15.732  19.111  0.00  0.00    +0.000 N 
ATOM     20  C   UNL     1      -0.498  17.004  18.874  0.00  0.00    +0.000 C 
ATOM     21  C   UNL     1       0.560  17.709  19.698  0.00  0.00    +0.000 C 
ATOM     22  O   UNL     1      -0.988  17.624  17.917  0.00  0.00    +0.000 OA
ATOM     23  H   UNL     1      -1.547  15.521  18.342  0.00  0.00    +0.000 HD
ENDBRANCH  18  19
ENDBRANCH   4  12
BRANCH   1  24
ATOM     24  C   UNL     1       0.759  10.076  21.546  0.00  0.00    +0.000 C 
BRANCH  24  26
ATOM     25  N   UNL     1       1.903   7.871  20.336  0.00  0.00    +0.000 N 
ATOM     26  C   UNL     1       0.859   8.421  21.100  0.00  0.00    +0.000 C 
ATOM     27  O   UNL     1      -0.107   7.708  21.412  0.00  0.00    +0.000 OA
ATOM     28  H   UNL     1       2.598   8.485  19.925  0.00  0.00    +0.000 HD
BRANCH  25  32
ATOM     29  C   UNL     1       2.995   3.722  19.546  0.00  0.00    +0.000 A 
ATOM     30  C   UNL     1       2.267   4.074  20.687  0.00  0.00    +0.000 A 
ATOM     31  C   UNL     1       1.858   5.417  20.937  0.00  0.00    +0.000 A 
ATOM     32  C   UNL     1       2.214   6.463  20.075  0.00  0.00    +0.000 A 
ATOM     33  C   UNL     1       3.019   6.104  18.954  0.00  0.00    +0.000 A 
ATOM     34  C   UNL     1       3.368   4.747  18.684  0.00  0.00    +0.000 A 
BRANCH  29  36
ATOM     35  C   UNL     1       3.309   1.817  18.103  0.00  0.00    +0.000 C 
ATOM     36  O   UNL     1       3.309   2.399  19.411  0.00  0.00    +0.000 OA
ENDBRANCH  29  36
BRANCH  33  37
ATOM     37  O   UNL     1       3.390   7.143  18.124  0.00  0.00    +0.000 OA
ATOM     38  C   UNL     1       4.410   6.862  17.169  0.00  0.00    +0.000 C 
ENDBRANCH  33  37
ENDBRANCH  25  32
ENDBRANCH  24  26
ENDBRANCH   1  24
TORSDOF 7
ENDMDL
MODEL 9
REMARK VINA RESULT:      -7.5      2.276      9.946
REMARK  Name = 
REMARK  11 active torsions:
REMARK  status: ('A' for Active; 'I' for Inactive)
REMARK    1  A    between atoms: C_1  and  O_2
REMARK    2  A    between atoms: O_2  and  C_3
REMARK    3  A    between atoms: C_6  and  N_7
REMARK    4  A    between atoms: C_8  and  C_10
REMARK    5  A    between atoms: C_10  and  N_11
REMARK    6  A    between atoms: C_14  and  C_15
REMARK    7  A    between atoms: C_17  and  C_18
REMARK    8  A    between atoms: C_21  and  N_22
REMARK    9  A    between atoms: C_23  and  C_24
REMARK   10  A    between atoms: C_33  and  O_34
REMARK   11  A    between atoms: O_34  and  C_35
REMARK                            x       y       z     vdW  Elec       q    Type
REMARK                         _______ _______ _______ _____ _____    ______ ____
ROOT
ATOM      1  N   UNL     1       2.022   6.860  19.709  0.00  0.00    +0.000 N 
ATOM      2  C   UNL     1       2.147   6.788  18.358  0.00  0.00    +0.000 A 
ATOM      3  O   UNL     1       1.848   7.556  17.457  0.00  0.00    +0.000 OA
ATOM      4  C   UNL     1       2.756   5.494  18.053  0.00  0.00    +0.000 A 
ATOM      5  N   UNL     1       1.871   4.535  18.030  0.00  0.00    +0.000 NA
ATOM      6  C   UNL     1       1.183   4.500  19.302  0.00  0.00    +0.000 A 
ATOM      7  C   UNL     1       0.778   3.190  19.596  0.00  0.00    +0.000 A 
ATOM      8  C   UNL     1       1.475   2.538  20.583  0.00  0.00    +0.000 A 
ATOM      9  C   UNL     1       2.345   3.300  21.366  0.00  0.00    +0.000 A 
ATOM     10  C   UNL     1       2.360   4.750  21.302  0.00  0.00    +0.000 A 
ATOM     11  C   UNL     1       1.655   5.450  20.297  0.00  0.00    +0.000 A 
ENDROOT
BRANCH   4  12
ATOM     12  C   UNL     1       4.217   5.284  18.453  0.00  0.00    +0.000 A 
ATOM     13  C   UNL     1       4.951   6.397  18.038  0.00  0.00    +0.000 A 
ATOM     14  C   UNL     1       6.329   6.380  18.071  0.00  0.00    +0.000 A 
ATOM     15  C   UNL     1       7.067   7.455  17.336  0.00  0.00    +0.000 C 
ATOM     16  C   UNL     1       7.013   5.347  18.713  0.00  0.00    +0.000 A 
ATOM     17  C   UNL     1       6.315   4.217  19.153  0.00  0.00    +0.000 A 
ATOM     18  C   UNL     1       4.950   4.105  18.932  0.00  0.00    +0.000 A 
BRANCH  18  19
ATOM     19  N   UNL     1       4.403   2.774  18.907  0.00  0.00    +0.000 N 
ATOM     20  C   UNL     1       4.713   1.562  19.455  0.00  0.00    +0.000 C 
ATOM     21  C   UNL     1       5.166   1.366  20.888  0.00  0.00    +0.000 C 
ATOM     22  O   UNL     1       4.607   0.551  18.744  0.00  0.00    +0.000 OA
ATOM     23  H   UNL     1       4.042   2.559  17.993  0.00  0.00    +0.000 HD
ENDBRANCH  18  19
ENDBRANCH   4  12
BRANCH   1  24
ATOM     24  C   UNL     1       1.901   8.263  20.188  0.00  0.00    +0.000 C 
BRANCH  24  26
ATOM     25  N   UNL     1      -0.066   9.877  19.110  0.00  0.00    +0.000 N 
ATOM     26  C   UNL     1       0.451   9.182  20.218  0.00  0.00    +0.000 C 
ATOM     27  O   UNL     1      -0.107   9.294  21.320  0.00  0.00    +0.000 OA
ATOM     28  H   UNL     1       0.482   9.938  18.259  0.00  0.00    +0.000 HD
BRANCH  25  32
ATOM     29  C   UNL     1      -3.894  11.898  18.574  0.00  0.00    +0.000 A 
ATOM     30  C   UNL     1      -3.611  10.699  17.913  0.00  0.00    +0.000 A 
ATOM     31  C   UNL     1      -2.385   9.998  18.114  0.00  0.00    +0.000 A 
ATOM     32  C   UNL     1      -1.379  10.507  18.946  0.00  0.00    +0.000 A 
ATOM     33  C   UNL     1      -1.648  11.767  19.557  0.00  0.00    +0.000 A 
ATOM     34  C   UNL     1      -2.904  12.426  19.395  0.00  0.00    +0.000 A 
BRANCH  29  36
ATOM     35  C   UNL     1      -6.244  11.609  18.127  0.00  0.00    +0.000 C 
ATOM     36  O   UNL     1      -5.111  12.462  18.313  0.00  0.00    +0.000 OA
ENDBRANCH  29  36
BRANCH  33  37
ATOM     37  O   UNL     1      -0.642  12.276  20.353  0.00  0.00    +0.000 OA
ATOM     38  C   UNL     1      -1.005  12.643  21.682  0.00  0.00    +0.000 C 
ENDBRANCH  33  37
ENDBRANCH  25  32
ENDBRANCH  24  26
ENDBRANCH   1  24
TORSDOF 7
ENDMDL
