MODEL 1
REMARK VINA RESULT:      -8.9      0.000      0.000
REMARK  Name = 
REMARK  7 active torsions:
REMARK  status: ('A' for Active; 'I' for Inactive)
REMARK    1  A    between atoms: C_2  and  C_3
REMARK    2  A    between atoms: C_9  and  C_10
REMARK    3  A    between atoms: C_13  and  N_14
REMARK    4  A    between atoms: C_19  and  O_20
REMARK    5  A    between atoms: O_20  and  C_21
REMARK    6  A    between atoms: C_21  and  C_22
REMARK    7  A    between atoms: C_22  and  C_23
REMARK                            x       y       z     vdW  Elec       q    Type
REMARK                         _______ _______ _______ _____ _____    ______ ____
ROOT
ATOM      1  C   UNL     1       1.913   7.204  19.563  0.00  0.00    +0.000 C 
ATOM      2  C   UNL     1       1.665   8.093  20.774  0.00  0.00    +0.000 C 
ATOM      3  C   UNL     1       0.699   9.206  20.311  0.00  0.00    +0.000 C 
ATOM      4  C   UNL     1       1.141   9.908  18.986  0.00  0.00    +0.000 C 
ATOM      5  C   UNL     1       1.734   8.957  17.917  0.00  0.00    +0.000 C 
ATOM      6  C   UNL     1       2.720   7.983  18.531  0.00  0.00    +0.000 C 
ENDROOT
BRANCH   1  13
ATOM      7  C   UNL     1       4.685   4.790  16.884  0.00  0.00    +0.000 A 
ATOM      8  C   UNL     1       4.534   3.419  17.061  0.00  0.00    +0.000 A 
ATOM      9  C   UNL     1       3.782   2.891  18.125  0.00  0.00    +0.000 A 
ATOM     10  C   UNL     1       3.157   3.799  18.992  0.00  0.00    +0.000 A 
ATOM     11  N   UNL     1       2.354   3.601  20.096  0.00  0.00    +0.000 N 
ATOM     12  C   UNL     1       1.860   4.795  20.559  0.00  0.00    +0.000 A 
ATOM     13  C   UNL     1       2.318   5.784  19.720  0.00  0.00    +0.000 A 
ATOM     14  C   UNL     1       3.245   5.171  18.806  0.00  0.00    +0.000 A 
ATOM     15  C   UNL     1       4.058   5.676  17.760  0.00  0.00    +0.000 A 
ATOM     16  H   UNL     1       2.108   2.692  20.465  0.00  0.00    +0.000 HD
BRANCH   7  18
ATOM     17  N   UNL     1       6.097   5.713  14.906  0.00  0.00    +0.000 NA
ATOM     18  C   UNL     1       5.469   5.306  15.793  0.00  0.00    +0.000 C 
ENDBRANCH   7  18
ENDBRANCH   1  13
BRANCH   4  19
ATOM     19  N   UNL     1       0.094  10.724  18.355  0.00  0.00    +0.000 NA
ATOM     20  C   UNL     1      -0.460  11.781  19.207  0.00  0.00    +0.000 C 
ATOM     21  C   UNL     1      -1.916  11.565  19.640  0.00  0.00    +0.000 C 
ATOM     22  C   UNL     1      -2.761  11.375  18.411  0.00  0.00    +0.000 A 
ATOM     23  C   UNL     1      -4.039  11.913  18.277  0.00  0.00    +0.000 A 
ATOM     24  C   UNL     1      -4.763  11.706  17.099  0.00  0.00    +0.000 A 
ATOM     25  C   UNL     1      -4.212  10.947  16.064  0.00  0.00    +0.000 A 
ATOM     26  C   UNL     1      -2.944  10.394  16.200  0.00  0.00    +0.000 A 
ATOM     27  C   UNL     1      -2.215  10.614  17.370  0.00  0.00    +0.000 A 
ATOM     28  C   UNL     1      -0.888   9.945  17.583  0.00  0.00    +0.000 C 
BRANCH  24  29
ATOM     29  O   UNL     1      -5.999  12.294  17.078  0.00  0.00    +0.000 OA
BRANCH  29  30
ATOM     30  C   UNL     1      -6.719  12.253  18.307  0.00  0.00    +0.000 C 
BRANCH  30  31
ATOM     31  C   UNL     1      -7.010  10.798  18.633  0.00  0.00    +0.000 C 
BRANCH  31  32
ATOM     32  C   UNL     1      -7.077  10.605  20.132  0.00  0.00    +0.000 C 
ATOM     33  F   UNL     1      -7.257   9.284  20.402  0.00  0.00    +0.000 F 
ENDBRANCH  31  32
ENDBRANCH  30  31
ENDBRANCH  29  30
ENDBRANCH  24  29
ENDBRANCH   4  19
TORSDOF 7
ENDMDL
MODEL 2
REMARK VINA RESULT:      -8.7      1.504      1.714
REMARK  Name = 
REMARK  7 active torsions:
REMARK  status: ('A' for Active; 'I' for Inactive)
REMARK    1  A    between atoms: C_2  and  C_3
REMARK    2  A    between atoms: C_9  and  C_10
REMARK    3  A    between atoms: C_13  and  N_14
REMARK    4  A    between atoms: C_19  and  O_20
REMARK    5  A    between atoms: O_20  and  C_21
REMARK    6  A    between atoms: C_21  and  C_22
REMARK    7  A    between atoms: C_22  and  C_23
REMARK                            x       y       z     vdW  Elec       q    Type
REMARK                         _______ _______ _______ _____ _____    ______ ____
ROOT
ATOM      1  C   UNL     1       1.841   7.262  19.623  0.00  0.00    +0.000 C 
ATOM      2  C   UNL     1       1.625   8.168  20.827  0.00  0.00    +0.000 C 
ATOM      3  C   UNL     1       0.655   9.280  20.373  0.00  0.00    +0.000 C 
ATOM      4  C   UNL     1       1.071   9.963  19.029  0.00  0.00    +0.000 C 
ATOM      5  C   UNL     1       1.635   8.996  17.959  0.00  0.00    +0.000 C 
ATOM      6  C   UNL     1       2.629   8.024  18.562  0.00  0.00    +0.000 C 
ENDROOT
BRANCH   1  13
ATOM      7  C   UNL     1       4.598   4.821  16.952  0.00  0.00    +0.000 A 
ATOM      8  C   UNL     1       4.443   3.452  17.140  0.00  0.00    +0.000 A 
ATOM      9  C   UNL     1       3.691   2.933  18.209  0.00  0.00    +0.000 A 
ATOM     10  C   UNL     1       3.072   3.849  19.071  0.00  0.00    +0.000 A 
ATOM     11  N   UNL     1       2.272   3.661  20.179  0.00  0.00    +0.000 N 
ATOM     12  C   UNL     1       1.783   4.861  20.635  0.00  0.00    +0.000 A 
ATOM     13  C   UNL     1       2.241   5.842  19.788  0.00  0.00    +0.000 A 
ATOM     14  C   UNL     1       3.164   5.220  18.875  0.00  0.00    +0.000 A 
ATOM     15  C   UNL     1       3.976   5.715  17.825  0.00  0.00    +0.000 A 
ATOM     16  H   UNL     1       2.023   2.756  20.554  0.00  0.00    +0.000 HD
BRANCH   7  18
ATOM     17  N   UNL     1       6.020   5.727  14.975  0.00  0.00    +0.000 NA
ATOM     18  C   UNL     1       5.380   5.327  15.856  0.00  0.00    +0.000 C 
ENDBRANCH   7  18
ENDBRANCH   1  13
BRANCH   4  19
ATOM     19  N   UNL     1       0.014  10.777  18.411  0.00  0.00    +0.000 NA
ATOM     20  C   UNL     1      -0.586  11.780  19.296  0.00  0.00    +0.000 C 
ATOM     21  C   UNL     1      -2.045  11.506  19.689  0.00  0.00    +0.000 C 
ATOM     22  C   UNL     1      -2.859  11.347  18.435  0.00  0.00    +0.000 A 
ATOM     23  C   UNL     1      -4.148  11.856  18.296  0.00  0.00    +0.000 A 
ATOM     24  C   UNL     1      -4.842  11.681  17.096  0.00  0.00    +0.000 A 
ATOM     25  C   UNL     1      -4.249  10.983  16.040  0.00  0.00    +0.000 A 
ATOM     26  C   UNL     1      -2.969  10.459  16.180  0.00  0.00    +0.000 A 
ATOM     27  C   UNL     1      -2.270  10.648  17.373  0.00  0.00    +0.000 A 
ATOM     28  C   UNL     1      -0.930  10.007  17.586  0.00  0.00    +0.000 C 
BRANCH  24  29
ATOM     29  O   UNL     1      -6.094  12.235  17.073  0.00  0.00    +0.000 OA
BRANCH  29  30
ATOM     30  C   UNL     1      -6.351  13.209  18.080  0.00  0.00    +0.000 C 
BRANCH  30  31
ATOM     31  C   UNL     1      -7.702  13.840  17.791  0.00  0.00    +0.000 C 
BRANCH  31  32
ATOM     32  C   UNL     1      -7.689  14.493  16.427  0.00  0.00    +0.000 C 
ATOM     33  F   UNL     1      -6.569  15.257  16.311  0.00  0.00    +0.000 F 
ENDBRANCH  31  32
ENDBRANCH  30  31
ENDBRANCH  29  30
ENDBRANCH  24  29
ENDBRANCH   4  19
TORSDOF 7
ENDMDL
MODEL 3
REMARK VINA RESULT:      -8.4      1.001      1.028
REMARK  Name = 
REMARK  7 active torsions:
REMARK  status: ('A' for Active; 'I' for Inactive)
REMARK    1  A    between atoms: C_2  and  C_3
REMARK    2  A    between atoms: C_9  and  C_10
REMARK    3  A    between atoms: C_13  and  N_14
REMARK    4  A    between atoms: C_19  and  O_20
REMARK    5  A    between atoms: O_20  and  C_21
REMARK    6  A    between atoms: C_21  and  C_22
REMARK    7  A    between atoms: C_22  and  C_23
REMARK                            x       y       z     vdW  Elec       q    Type
REMARK                         _______ _______ _______ _____ _____    ______ ____
ROOT
ATOM      1  C   UNL     1       1.905   7.035  19.210  0.00  0.00    +0.000 C 
ATOM      2  C   UNL     1       1.861   7.834  20.505  0.00  0.00    +0.000 C 
ATOM      3  C   UNL     1       0.910   9.025  20.256  0.00  0.00    +0.000 C 
ATOM      4  C   UNL     1       1.222   9.810  18.941  0.00  0.00    +0.000 C 
ATOM      5  C   UNL     1       1.622   8.923  17.736  0.00  0.00    +0.000 C 
ATOM      6  C   UNL     1       2.620   7.857  18.143  0.00  0.00    +0.000 C 
ENDROOT
BRANCH   1  13
ATOM      7  C   UNL     1       5.462   5.018  17.219  0.00  0.00    +0.000 A 
ATOM      8  C   UNL     1       5.273   3.650  17.054  0.00  0.00    +0.000 A 
ATOM      9  C   UNL     1       4.202   2.974  17.665  0.00  0.00    +0.000 A 
ATOM     10  C   UNL     1       3.305   3.735  18.428  0.00  0.00    +0.000 A 
ATOM     11  N   UNL     1       2.170   3.377  19.125  0.00  0.00    +0.000 N 
ATOM     12  C   UNL     1       1.533   4.488  19.621  0.00  0.00    +0.000 A 
ATOM     13  C   UNL     1       2.244   5.590  19.207  0.00  0.00    +0.000 A 
ATOM     14  C   UNL     1       3.438   5.109  18.563  0.00  0.00    +0.000 A 
ATOM     15  C   UNL     1       4.559   5.755  17.986  0.00  0.00    +0.000 A 
ATOM     16  H   UNL     1       1.819   2.431  19.195  0.00  0.00    +0.000 HD
BRANCH   7  18
ATOM     17  N   UNL     1       7.459   6.229  16.077  0.00  0.00    +0.000 NA
ATOM     18  C   UNL     1       6.572   5.686  16.591  0.00  0.00    +0.000 C 
ENDBRANCH   7  18
ENDBRANCH   1  13
BRANCH   4  19
ATOM     19  N   UNL     1       0.153  10.724  18.512  0.00  0.00    +0.000 NA
ATOM     20  C   UNL     1      -0.144  11.807  19.454  0.00  0.00    +0.000 C 
ATOM     21  C   UNL     1      -1.512  11.708  20.145  0.00  0.00    +0.000 C 
ATOM     22  C   UNL     1      -2.578  11.613  19.089  0.00  0.00    +0.000 A 
ATOM     23  C   UNL     1      -3.807  12.259  19.190  0.00  0.00    +0.000 A 
ATOM     24  C   UNL     1      -4.748  12.136  18.163  0.00  0.00    +0.000 A 
ATOM     25  C   UNL     1      -4.460  11.352  17.042  0.00  0.00    +0.000 A 
ATOM     26  C   UNL     1      -3.241  10.692  16.944  0.00  0.00    +0.000 A 
ATOM     27  C   UNL     1      -2.296  10.828  17.963  0.00  0.00    +0.000 A 
ATOM     28  C   UNL     1      -1.016  10.046  17.929  0.00  0.00    +0.000 C 
BRANCH  24  29
ATOM     29  O   UNL     1      -5.912  12.826  18.368  0.00  0.00    +0.000 OA
BRANCH  29  30
ATOM     30  C   UNL     1      -7.103  12.046  18.323  0.00  0.00    +0.000 C 
BRANCH  30  31
ATOM     31  C   UNL     1      -7.004  10.974  19.396  0.00  0.00    +0.000 C 
BRANCH  31  32
ATOM     32  C   UNL     1      -7.718  11.428  20.650  0.00  0.00    +0.000 C 
ATOM     33  F   UNL     1      -7.914  12.773  20.588  0.00  0.00    +0.000 F 
ENDBRANCH  31  32
ENDBRANCH  30  31
ENDBRANCH  29  30
ENDBRANCH  24  29
ENDBRANCH   4  19
TORSDOF 7
ENDMDL
MODEL 4
REMARK VINA RESULT:      -8.4      5.024     10.875
REMARK  Name = 
REMARK  7 active torsions:
REMARK  status: ('A' for Active; 'I' for Inactive)
REMARK    1  A    between atoms: C_2  and  C_3
REMARK    2  A    between atoms: C_9  and  C_10
REMARK    3  A    between atoms: C_13  and  N_14
REMARK    4  A    between atoms: C_19  and  O_20
REMARK    5  A    between atoms: O_20  and  C_21
REMARK    6  A    between atoms: C_21  and  C_22
REMARK    7  A    between atoms: C_22  and  C_23
REMARK                            x       y       z     vdW  Elec       q    Type
REMARK                         _______ _______ _______ _____ _____    ______ ____
ROOT
ATOM      1  C   UNL     1      -1.100  12.117  22.607  0.00  0.00    +0.000 C 
ATOM      2  C   UNL     1      -1.278  10.747  23.247  0.00  0.00    +0.000 C 
ATOM      3  C   UNL     1      -0.161   9.846  22.676  0.00  0.00    +0.000 C 
ATOM      4  C   UNL     1      -0.050   9.899  21.118  0.00  0.00    +0.000 C 
ATOM      5  C   UNL     1      -0.248  11.306  20.502  0.00  0.00    +0.000 C 
ATOM      6  C   UNL     1      -1.433  12.019  21.122  0.00  0.00    +0.000 C 
ENDROOT
BRANCH   1  13
ATOM      7  C   UNL     1      -5.383  13.116  23.768  0.00  0.00    +0.000 A 
ATOM      8  C   UNL     1      -5.570  14.477  23.987  0.00  0.00    +0.000 A 
ATOM      9  C   UNL     1      -4.485  15.367  24.068  0.00  0.00    +0.000 A 
ATOM     10  C   UNL     1      -3.198  14.840  23.890  0.00  0.00    +0.000 A 
ATOM     11  N   UNL     1      -1.958  15.443  23.895  0.00  0.00    +0.000 N 
ATOM     12  C   UNL     1      -0.979  14.546  23.546  0.00  0.00    +0.000 A 
ATOM     13  C   UNL     1      -1.596  13.348  23.271  0.00  0.00    +0.000 A 
ATOM     14  C   UNL     1      -2.986  13.497  23.615  0.00  0.00    +0.000 A 
ATOM     15  C   UNL     1      -4.093  12.612  23.598  0.00  0.00    +0.000 A 
ATOM     16  H   UNL     1      -1.804  16.429  24.063  0.00  0.00    +0.000 HD
BRANCH   7  18
ATOM     17  N   UNL     1      -7.424  11.511  23.648  0.00  0.00    +0.000 NA
ATOM     18  C   UNL     1      -6.509  12.223  23.699  0.00  0.00    +0.000 C 
ENDBRANCH   7  18
ENDBRANCH   1  13
BRANCH   4  19
ATOM     19  N   UNL     1       1.191   9.324  20.579  0.00  0.00    +0.000 NA
ATOM     20  C   UNL     1       1.641   9.911  19.313  0.00  0.00    +0.000 C 
ATOM     21  C   UNL     1       1.548   8.977  18.098  0.00  0.00    +0.000 C 
ATOM     22  C   UNL     1       2.309   7.716  18.401  0.00  0.00    +0.000 A 
ATOM     23  C   UNL     1       3.094   7.057  17.458  0.00  0.00    +0.000 A 
ATOM     24  C   UNL     1       3.784   5.895  17.814  0.00  0.00    +0.000 A 
ATOM     25  C   UNL     1       3.673   5.385  19.110  0.00  0.00    +0.000 A 
ATOM     26  C   UNL     1       2.877   6.030  20.049  0.00  0.00    +0.000 A 
ATOM     27  C   UNL     1       2.201   7.199  19.698  0.00  0.00    +0.000 A 
ATOM     28  C   UNL     1       1.256   7.856  20.662  0.00  0.00    +0.000 C 
BRANCH  24  29
ATOM     29  O   UNL     1       4.533   5.345  16.809  0.00  0.00    +0.000 OA
BRANCH  29  30
ATOM     30  C   UNL     1       5.844   4.929  17.179  0.00  0.00    +0.000 C 
BRANCH  30  31
ATOM     31  C   UNL     1       6.663   6.170  17.488  0.00  0.00    +0.000 C 
BRANCH  31  32
ATOM     32  C   UNL     1       7.606   5.897  18.639  0.00  0.00    +0.000 C 
ATOM     33  F   UNL     1       6.882   5.750  19.781  0.00  0.00    +0.000 F 
ENDBRANCH  31  32
ENDBRANCH  30  31
ENDBRANCH  29  30
ENDBRANCH  24  29
ENDBRANCH   4  19
TORSDOF 7
ENDMDL
MODEL 5
REMARK VINA RESULT:      -8.4      5.068     10.961
REMARK  Name = 
REMARK  7 active torsions:
REMARK  status: ('A' for Active; 'I' for Inactive)
REMARK    1  A    between atoms: C_2  and  C_3
REMARK    2  A    between atoms: C_9  and  C_10
REMARK    3  A    between atoms: C_13  and  N_14
REMARK    4  A    between atoms: C_19  and  O_20
REMARK    5  A    between atoms: O_20  and  C_21
REMARK    6  A    between atoms: C_21  and  C_22
REMARK    7  A    between atoms: C_22  and  C_23
REMARK                            x       y       z     vdW  Elec       q    Type
REMARK                         _______ _______ _______ _____ _____    ______ ____
ROOT
ATOM      1  C   UNL     1      -1.127  12.301  22.473  0.00  0.00    +0.000 C 
ATOM      2  C   UNL     1      -1.281  10.968  23.192  0.00  0.00    +0.000 C 
ATOM      3  C   UNL     1      -0.170  10.044  22.648  0.00  0.00    +0.000 C 
ATOM      4  C   UNL     1      -0.092  10.010  21.087  0.00  0.00    +0.000 C 
ATOM      5  C   UNL     1      -0.313  11.380  20.398  0.00  0.00    +0.000 C 
ATOM      6  C   UNL     1      -1.490  12.119  21.003  0.00  0.00    +0.000 C 
ENDROOT
BRANCH   1  13
ATOM      7  C   UNL     1      -5.381  13.316  23.724  0.00  0.00    +0.000 A 
ATOM      8  C   UNL     1      -5.580  14.684  23.866  0.00  0.00    +0.000 A 
ATOM      9  C   UNL     1      -4.506  15.592  23.854  0.00  0.00    +0.000 A 
ATOM     10  C   UNL     1      -3.219  15.072  23.662  0.00  0.00    +0.000 A 
ATOM     11  N   UNL     1      -1.988  15.689  23.587  0.00  0.00    +0.000 N 
ATOM     12  C   UNL     1      -1.008  14.784  23.258  0.00  0.00    +0.000 A 
ATOM     13  C   UNL     1      -1.617  13.564  23.079  0.00  0.00    +0.000 A 
ATOM     14  C   UNL     1      -2.996  13.717  23.462  0.00  0.00    +0.000 A 
ATOM     15  C   UNL     1      -4.090  12.819  23.538  0.00  0.00    +0.000 A 
ATOM     16  H   UNL     1      -1.843  16.685  23.688  0.00  0.00    +0.000 HD
BRANCH   7  18
ATOM     17  N   UNL     1      -7.392  11.670  23.758  0.00  0.00    +0.000 NA
ATOM     18  C   UNL     1      -6.495  12.406  23.749  0.00  0.00    +0.000 C 
ENDBRANCH   7  18
ENDBRANCH   1  13
BRANCH   4  19
ATOM     19  N   UNL     1       1.141   9.414  20.554  0.00  0.00    +0.000 NA
ATOM     20  C   UNL     1       1.572   9.947  19.258  0.00  0.00    +0.000 C 
ATOM     21  C   UNL     1       1.462   8.963  18.085  0.00  0.00    +0.000 C 
ATOM     22  C   UNL     1       2.228   7.716  18.429  0.00  0.00    +0.000 A 
ATOM     23  C   UNL     1       3.001   7.019  17.503  0.00  0.00    +0.000 A 
ATOM     24  C   UNL     1       3.697   5.873  17.897  0.00  0.00    +0.000 A 
ATOM     25  C   UNL     1       3.605   5.417  19.216  0.00  0.00    +0.000 A 
ATOM     26  C   UNL     1       2.823   6.100  20.138  0.00  0.00    +0.000 A 
ATOM     27  C   UNL     1       2.140   7.254  19.749  0.00  0.00    +0.000 A 
ATOM     28  C   UNL     1       1.209   7.951  20.697  0.00  0.00    +0.000 C 
BRANCH  24  29
ATOM     29  O   UNL     1       4.431   5.281  16.905  0.00  0.00    +0.000 OA
BRANCH  29  30
ATOM     30  C   UNL     1       5.286   6.153  16.172  0.00  0.00    +0.000 C 
BRANCH  30  31
ATOM     31  C   UNL     1       6.685   5.564  16.186  0.00  0.00    +0.000 C 
BRANCH  31  32
ATOM     32  C   UNL     1       6.951   4.826  14.892  0.00  0.00    +0.000 C 
ATOM     33  F   UNL     1       6.196   3.695  14.862  0.00  0.00    +0.000 F 
ENDBRANCH  31  32
ENDBRANCH  30  31
ENDBRANCH  29  30
ENDBRANCH  24  29
ENDBRANCH   4  19
TORSDOF 7
ENDMDL
MODEL 6
REMARK VINA RESULT:      -8.3      1.540      1.693
REMARK  Name = 
REMARK  7 active torsions:
REMARK  status: ('A' for Active; 'I' for Inactive)
REMARK    1  A    between atoms: C_2  and  C_3
REMARK    2  A    between atoms: C_9  and  C_10
REMARK    3  A    between atoms: C_13  and  N_14
REMARK    4  A    between atoms: C_19  and  O_20
REMARK    5  A    between atoms: O_20  and  C_21
REMARK    6  A    between atoms: C_21  and  C_22
REMARK    7  A    between atoms: C_22  and  C_23
REMARK                            x       y       z     vdW  Elec       q    Type
REMARK                         _______ _______ _______ _____ _____    ______ ____
ROOT
ATOM      1  C   UNL     1       1.859   7.289  19.422  0.00  0.00    +0.000 C 
ATOM      2  C   UNL     1       1.769   8.181  20.653  0.00  0.00    +0.000 C 
ATOM      3  C   UNL     1       0.773   9.309  20.307  0.00  0.00    +0.000 C 
ATOM      4  C   UNL     1       1.067  10.006  18.939  0.00  0.00    +0.000 C 
ATOM      5  C   UNL     1       1.516   9.048  17.808  0.00  0.00    +0.000 C 
ATOM      6  C   UNL     1       2.552   8.058  18.301  0.00  0.00    +0.000 C 
ENDROOT
BRANCH   1  13
ATOM      7  C   UNL     1       5.456   5.254  17.522  0.00  0.00    +0.000 A 
ATOM      8  C   UNL     1       5.320   3.871  17.476  0.00  0.00    +0.000 A 
ATOM      9  C   UNL     1       4.290   3.207  18.165  0.00  0.00    +0.000 A 
ATOM     10  C   UNL     1       3.378   3.992  18.883  0.00  0.00    +0.000 A 
ATOM     11  N   UNL     1       2.272   3.650  19.633  0.00  0.00    +0.000 N 
ATOM     12  C   UNL     1       1.600   4.773  20.050  0.00  0.00    +0.000 A 
ATOM     13  C   UNL     1       2.257   5.863  19.531  0.00  0.00    +0.000 A 
ATOM     14  C   UNL     1       3.457   5.378  18.901  0.00  0.00    +0.000 A 
ATOM     15  C   UNL     1       4.539   6.017  18.247  0.00  0.00    +0.000 A 
ATOM     16  H   UNL     1       1.962   2.700  19.790  0.00  0.00    +0.000 HD
BRANCH   7  18
ATOM     17  N   UNL     1       7.384   6.448  16.253  0.00  0.00    +0.000 NA
ATOM     18  C   UNL     1       6.525   5.909  16.816  0.00  0.00    +0.000 C 
ENDBRANCH   7  18
ENDBRANCH   1  13
BRANCH   4  19
ATOM     19  N   UNL     1      -0.034  10.839  18.434  0.00  0.00    +0.000 NA
ATOM     20  C   UNL     1      -0.457  11.912  19.339  0.00  0.00    +0.000 C 
ATOM     21  C   UNL     1      -1.853  11.730  19.952  0.00  0.00    +0.000 C 
ATOM     22  C   UNL     1      -2.847  11.549  18.839  0.00  0.00    +0.000 A 
ATOM     23  C   UNL     1      -4.121  12.112  18.858  0.00  0.00    +0.000 A 
ATOM     24  C   UNL     1      -4.989  11.913  17.782  0.00  0.00    +0.000 A 
ATOM     25  C   UNL     1      -4.585  11.135  16.692  0.00  0.00    +0.000 A 
ATOM     26  C   UNL     1      -3.322  10.558  16.676  0.00  0.00    +0.000 A 
ATOM     27  C   UNL     1      -2.449  10.770  17.744  0.00  0.00    +0.000 A 
ATOM     28  C   UNL     1      -1.120  10.076  17.797  0.00  0.00    +0.000 C 
BRANCH  24  29
ATOM     29  O   UNL     1      -6.207  12.525  17.908  0.00  0.00    +0.000 OA
BRANCH  29  30
ATOM     30  C   UNL     1      -6.482  13.545  16.953  0.00  0.00    +0.000 C 
BRANCH  30  31
ATOM     31  C   UNL     1      -7.337  14.604  17.627  0.00  0.00    +0.000 C 
BRANCH  31  32
ATOM     32  C   UNL     1      -7.000  14.684  19.100  0.00  0.00    +0.000 C 
ATOM     33  F   UNL     1      -5.854  15.400  19.254  0.00  0.00    +0.000 F 
ENDBRANCH  31  32
ENDBRANCH  30  31
ENDBRANCH  29  30
ENDBRANCH  24  29
ENDBRANCH   4  19
TORSDOF 7
ENDMDL
MODEL 7
REMARK VINA RESULT:      -8.2      4.785     10.751
REMARK  Name = 
REMARK  7 active torsions:
REMARK  status: ('A' for Active; 'I' for Inactive)
REMARK    1  A    between atoms: C_2  and  C_3
REMARK    2  A    between atoms: C_9  and  C_10
REMARK    3  A    between atoms: C_13  and  N_14
REMARK    4  A    between atoms: C_19  and  O_20
REMARK    5  A    between atoms: O_20  and  C_21
REMARK    6  A    between atoms: C_21  and  C_22
REMARK    7  A    between atoms: C_22  and  C_23
REMARK                            x       y       z     vdW  Elec       q    Type
REMARK                         _______ _______ _______ _____ _____    ______ ____
ROOT
ATOM      1  C   UNL     1      -0.725  11.687  22.109  0.00  0.00    +0.000 C 
ATOM      2  C   UNL     1      -0.972  10.481  23.006  0.00  0.00    +0.000 C 
ATOM      3  C   UNL     1       0.088   9.425  22.624  0.00  0.00    +0.000 C 
ATOM      4  C   UNL     1       0.186   9.164  21.086  0.00  0.00    +0.000 C 
ATOM      5  C   UNL     1       0.060  10.431  20.205  0.00  0.00    +0.000 C 
ATOM      6  C   UNL     1      -1.078  11.317  20.672  0.00  0.00    +0.000 C 
ENDROOT
BRANCH   1  13
ATOM      7  C   UNL     1      -4.962  13.313  22.419  0.00  0.00    +0.000 A 
ATOM      8  C   UNL     1      -4.998  14.703  22.425  0.00  0.00    +0.000 A 
ATOM      9  C   UNL     1      -3.828  15.471  22.564  0.00  0.00    +0.000 A 
ATOM     10  C   UNL     1      -2.610  14.785  22.668  0.00  0.00    +0.000 A 
ATOM     11  N   UNL     1      -1.314  15.242  22.796  0.00  0.00    +0.000 N 
ATOM     12  C   UNL     1      -0.422  14.200  22.730  0.00  0.00    +0.000 A 
ATOM     13  C   UNL     1      -1.146  13.050  22.517  0.00  0.00    +0.000 A 
ATOM     14  C   UNL     1      -2.539  13.401  22.609  0.00  0.00    +0.000 A 
ATOM     15  C   UNL     1      -3.738  12.650  22.527  0.00  0.00    +0.000 A 
ATOM     16  H   UNL     1      -1.058  16.218  22.855  0.00  0.00    +0.000 HD
BRANCH   7  18
ATOM     17  N   UNL     1      -7.155  11.937  22.187  0.00  0.00    +0.000 NA
ATOM     18  C   UNL     1      -6.174  12.549  22.285  0.00  0.00    +0.000 C 
ENDBRANCH   7  18
ENDBRANCH   1  13
BRANCH   4  19
ATOM     19  N   UNL     1       1.388   8.426  20.672  0.00  0.00    +0.000 NA
ATOM     20  C   UNL     1       1.991   8.887  19.418  0.00  0.00    +0.000 C 
ATOM     21  C   UNL     1       1.878   7.904  18.245  0.00  0.00    +0.000 C 
ATOM     22  C   UNL     1       2.465   6.585  18.664  0.00  0.00    +0.000 A 
ATOM     23  C   UNL     1       3.235   5.791  17.817  0.00  0.00    +0.000 A 
ATOM     24  C   UNL     1       3.759   4.581  18.279  0.00  0.00    +0.000 A 
ATOM     25  C   UNL     1       3.499   4.160  19.586  0.00  0.00    +0.000 A 
ATOM     26  C   UNL     1       2.717   4.940  20.429  0.00  0.00    +0.000 A 
ATOM     27  C   UNL     1       2.206   6.156  19.972  0.00  0.00    +0.000 A 
ATOM     28  C   UNL     1       1.278   6.966  20.828  0.00  0.00    +0.000 C 
BRANCH  24  29
ATOM     29  O   UNL     1       4.510   3.896  17.361  0.00  0.00    +0.000 OA
BRANCH  29  30
ATOM     30  C   UNL     1       5.789   4.454  17.077  0.00  0.00    +0.000 C 
BRANCH  30  31
ATOM     31  C   UNL     1       6.226   3.956  15.710  0.00  0.00    +0.000 C 
BRANCH  31  32
ATOM     32  C   UNL     1       5.633   4.828  14.625  0.00  0.00    +0.000 C 
ATOM     33  F   UNL     1       5.250   4.041  13.583  0.00  0.00    +0.000 F 
ENDBRANCH  31  32
ENDBRANCH  30  31
ENDBRANCH  29  30
ENDBRANCH  24  29
ENDBRANCH   4  19
TORSDOF 7
ENDMDL
MODEL 8
REMARK VINA RESULT:      -8.1      3.096      3.879
REMARK  Name = 
REMARK  7 active torsions:
REMARK  status: ('A' for Active; 'I' for Inactive)
REMARK    1  A    between atoms: C_2  and  C_3
REMARK    2  A    between atoms: C_9  and  C_10
REMARK    3  A    between atoms: C_13  and  N_14
REMARK    4  A    between atoms: C_19  and  O_20
REMARK    5  A    between atoms: O_20  and  C_21
REMARK    6  A    between atoms: C_21  and  C_22
REMARK    7  A    between atoms: C_22  and  C_23
REMARK                            x       y       z     vdW  Elec       q    Type
REMARK                         _______ _______ _______ _____ _____    ______ ____
ROOT
ATOM      1  C   UNL     1       1.971   7.032  18.940  0.00  0.00    +0.000 C 
ATOM      2  C   UNL     1       2.322   7.356  20.386  0.00  0.00    +0.000 C 
ATOM      3  C   UNL     1       1.190   8.260  20.921  0.00  0.00    +0.000 C 
ATOM      4  C   UNL     1       0.851   9.462  19.981  0.00  0.00    +0.000 C 
ATOM      5  C   UNL     1       0.873   9.127  18.469  0.00  0.00    +0.000 C 
ATOM      6  C   UNL     1       2.090   8.302  18.103  0.00  0.00    +0.000 C 
ENDROOT
BRANCH   1  13
ATOM      7  C   UNL     1       6.088   6.366  17.124  0.00  0.00    +0.000 A 
ATOM      8  C   UNL     1       6.111   5.292  16.241  0.00  0.00    +0.000 A 
ATOM      9  C   UNL     1       5.032   4.397  16.139  0.00  0.00    +0.000 A 
ATOM     10  C   UNL     1       3.908   4.641  16.941  0.00  0.00    +0.000 A 
ATOM     11  N   UNL     1       2.708   3.970  17.058  0.00  0.00    +0.000 N 
ATOM     12  C   UNL     1       1.848   4.653  17.883  0.00  0.00    +0.000 A 
ATOM     13  C   UNL     1       2.483   5.806  18.278  0.00  0.00    +0.000 A 
ATOM     14  C   UNL     1       3.835   5.736  17.790  0.00  0.00    +0.000 A 
ATOM     15  C   UNL     1       4.961   6.589  17.916  0.00  0.00    +0.000 A 
ATOM     16  H   UNL     1       2.474   3.130  16.547  0.00  0.00    +0.000 HD
BRANCH   7  18
ATOM     17  N   UNL     1       8.110   7.990  17.302  0.00  0.00    +0.000 NA
ATOM     18  C   UNL     1       7.209   7.263  17.217  0.00  0.00    +0.000 C 
ENDBRANCH   7  18
ENDBRANCH   1  13
BRANCH   4  19
ATOM     19  N   UNL     1      -0.418  10.135  20.292  0.00  0.00    +0.000 NA
ATOM     20  C   UNL     1      -0.854  11.117  19.294  0.00  0.00    +0.000 C 
ATOM     21  C   UNL     1      -0.811  12.578  19.763  0.00  0.00    +0.000 C 
ATOM     22  C   UNL     1      -1.623  12.703  21.023  0.00  0.00    +0.000 A 
ATOM     23  C   UNL     1      -2.444  13.795  21.292  0.00  0.00    +0.000 A 
ATOM     24  C   UNL     1      -3.180  13.838  22.480  0.00  0.00    +0.000 A 
ATOM     25  C   UNL     1      -3.079  12.794  23.403  0.00  0.00    +0.000 A 
ATOM     26  C   UNL     1      -2.248  11.711  23.146  0.00  0.00    +0.000 A 
ATOM     27  C   UNL     1      -1.525  11.660  21.953  0.00  0.00    +0.000 A 
ATOM     28  C   UNL     1      -0.545  10.553  21.698  0.00  0.00    +0.000 C 
BRANCH  24  29
ATOM     29  O   UNL     1      -3.961  14.953  22.628  0.00  0.00    +0.000 OA
BRANCH  29  30
ATOM     30  C   UNL     1      -4.704  15.024  23.841  0.00  0.00    +0.000 C 
BRANCH  30  31
ATOM     31  C   UNL     1      -6.181  14.959  23.492  0.00  0.00    +0.000 C 
BRANCH  31  32
ATOM     32  C   UNL     1      -6.737  13.595  23.835  0.00  0.00    +0.000 C 
ATOM     33  F   UNL     1      -7.727  13.737  24.757  0.00  0.00    +0.000 F 
ENDBRANCH  31  32
ENDBRANCH  30  31
ENDBRANCH  29  30
ENDBRANCH  24  29
ENDBRANCH   4  19
TORSDOF 7
ENDMDL
MODEL 9
REMARK VINA RESULT:      -8.0      4.132      5.405
REMARK  Name = 
REMARK  7 active torsions:
REMARK  status: ('A' for Active; 'I' for Inactive)
REMARK    1  A    between atoms: C_2  and  C_3
REMARK    2  A    between atoms: C_9  and  C_10
REMARK    3  A    between atoms: C_13  and  N_14
REMARK    4  A    between atoms: C_19  and  O_20
REMARK    5  A    between atoms: O_20  and  C_21
REMARK    6  A    between atoms: C_21  and  C_22
REMARK    7  A    between atoms: C_22  and  C_23
REMARK                            x       y       z     vdW  Elec       q    Type
REMARK                         _______ _______ _______ _____ _____    ______ ____
ROOT
ATOM      1  C   UNL     1       2.453   7.969  18.530  0.00  0.00    +0.000 C 
ATOM      2  C   UNL     1       1.523   8.923  17.793  0.00  0.00    +0.000 C 
ATOM      3  C   UNL     1       1.190  10.063  18.780  0.00  0.00    +0.000 C 
ATOM      4  C   UNL     1       0.730   9.559  20.187  0.00  0.00    +0.000 C 
ATOM      5  C   UNL     1       1.504   8.327  20.718  0.00  0.00    +0.000 C 
ATOM      6  C   UNL     1       1.673   7.274  19.641  0.00  0.00    +0.000 C 
ENDROOT
BRANCH   1  13
ATOM      7  C   UNL     1       2.257   3.448  18.073  0.00  0.00    +0.000 A 
ATOM      8  C   UNL     1       3.477   2.900  17.690  0.00  0.00    +0.000 A 
ATOM      9  C   UNL     1       4.549   3.706  17.269  0.00  0.00    +0.000 A 
ATOM     10  C   UNL     1       4.357   5.095  17.274  0.00  0.00    +0.000 A 
ATOM     11  N   UNL     1       5.202   6.133  16.940  0.00  0.00    +0.000 N 
ATOM     12  C   UNL     1       4.622   7.344  17.227  0.00  0.00    +0.000 A 
ATOM     13  C   UNL     1       3.395   7.090  17.794  0.00  0.00    +0.000 A 
ATOM     14  C   UNL     1       3.171   5.671  17.704  0.00  0.00    +0.000 A 
ATOM     15  C   UNL     1       2.088   4.833  18.068  0.00  0.00    +0.000 A 
ATOM     16  H   UNL     1       6.146   6.011  16.599  0.00  0.00    +0.000 HD
BRANCH   7  18
ATOM     17  N   UNL     1       0.302   1.917  18.840  0.00  0.00    +0.000 NA
ATOM     18  C   UNL     1       1.172   2.601  18.492  0.00  0.00    +0.000 C 
ENDBRANCH   7  18
ENDBRANCH   1  13
BRANCH   4  19
ATOM     19  N   UNL     1       0.726  10.594  21.230  0.00  0.00    +0.000 NA
ATOM     20  C   UNL     1       0.096  10.193  22.492  0.00  0.00    +0.000 C 
ATOM     21  C   UNL     1      -1.225  10.906  22.810  0.00  0.00    +0.000 C 
ATOM     22  C   UNL     1      -0.990  12.391  22.781  0.00  0.00    +0.000 A 
ATOM     23  C   UNL     1      -1.572  13.271  23.690  0.00  0.00    +0.000 A 
ATOM     24  C   UNL     1      -1.298  14.639  23.611  0.00  0.00    +0.000 A 
ATOM     25  C   UNL     1      -0.452  15.126  22.610  0.00  0.00    +0.000 A 
ATOM     26  C   UNL     1       0.118  14.254  21.691  0.00  0.00    +0.000 A 
ATOM     27  C   UNL     1      -0.144  12.886  21.780  0.00  0.00    +0.000 A 
ATOM     28  C   UNL     1       0.377  11.937  20.740  0.00  0.00    +0.000 C 
BRANCH  24  29
ATOM     29  O   UNL     1      -1.916  15.402  24.565  0.00  0.00    +0.000 OA
BRANCH  29  30
ATOM     30  C   UNL     1      -3.217  14.967  24.949  0.00  0.00    +0.000 C 
BRANCH  30  31
ATOM     31  C   UNL     1      -4.228  15.951  24.385  0.00  0.00    +0.000 C 
BRANCH  31  32
ATOM     32  C   UNL     1      -3.839  17.365  24.755  0.00  0.00    +0.000 C 
ATOM     33  F   UNL     1      -4.653  17.803  25.753  0.00  0.00    +0.000 F 
ENDBRANCH  31  32
ENDBRANCH  30  31
ENDBRANCH  29  30
ENDBRANCH  24  29
ENDBRANCH   4  19
TORSDOF 7
ENDMDL
