MODEL 1
REMARK VINA RESULT:      -7.3      0.000      0.000
REMARK  Name = 
REMARK  11 active torsions:
REMARK  status: ('A' for Active; 'I' for Inactive)
REMARK    1  A    between atoms: C_1  and  O_2
REMARK    2  A    between atoms: O_2  and  C_3
REMARK    3  A    between atoms: C_5  and  C_6
REMARK    4  A    between atoms: C_6  and  C_7
REMARK    5  A    between atoms: C_6  and  C_8
REMARK    6  A    between atoms: C_9  and  O_10
REMARK    7  A    between atoms: O_10  and  C_11
REMARK    8  A    between atoms: C_17  and  N_18
REMARK    9  A    between atoms: C_20  and  C_21
REMARK   10  A    between atoms: C_22  and  C_23
REMARK   11  A    between atoms: N_27  and  C_28
REMARK                            x       y       z     vdW  Elec       q    Type
REMARK                         _______ _______ _______ _____ _____    ______ ____
ROOT
ATOM      1  C   UNL     1       2.186   7.312  20.018  0.00  0.00    +0.000 A 
ATOM      2  C   UNL     1       1.337   8.080  20.825  0.00  0.00    +0.000 A 
ATOM      3  C   UNL     1       0.730   9.261  20.353  0.00  0.00    +0.000 A 
ATOM      4  C   UNL     1       1.072   9.717  19.070  0.00  0.00    +0.000 A 
ATOM      5  C   UNL     1       1.915   8.944  18.251  0.00  0.00    +0.000 A 
ATOM      6  C   UNL     1       2.477   7.749  18.720  0.00  0.00    +0.000 A 
ENDROOT
BRANCH   3   7
ATOM      7  C   UNL     1      -0.318   9.964  21.207  0.00  0.00    +0.000 C 
ATOM      8  C   UNL     1      -0.690   9.096  22.418  0.00  0.00    +0.000 C 
ATOM      9  C   UNL     1       0.130  11.354  21.662  0.00  0.00    +0.000 C 
ENDBRANCH   3   7
BRANCH   1  11
ATOM     10  C   UNL     1       1.849   5.083  20.723  0.00  0.00    +0.000 C 
ATOM     11  O   UNL     1       2.765   6.142  20.447  0.00  0.00    +0.000 OA
ENDBRANCH   1  11
BRANCH   6  12
ATOM     12  C   UNL     1       3.294   6.974  17.828  0.00  0.00    +0.000 C 
ATOM     13  C   UNL     1       3.981   6.292  17.120  0.00  0.00    +0.000 C 
BRANCH  13  14
ATOM     14  C   UNL     1       4.830   5.475  16.323  0.00  0.00    +0.000 A 
ATOM     15  C   UNL     1       5.655   5.838  15.281  0.00  0.00    +0.000 A 
ATOM     16  N   UNL     1       6.279   4.739  14.738  0.00  0.00    +0.000 NA
ATOM     17  C   UNL     1       5.845   3.717  15.442  0.00  0.00    +0.000 A 
ATOM     18  N   UNL     1       4.977   4.115  16.418  0.00  0.00    +0.000 N 
ATOM     19  C   UNL     1       4.323   3.252  17.369  0.00  0.00    +0.000 C 
ENDBRANCH  13  14
ENDBRANCH   6  12
BRANCH   4  20
ATOM     20  O   UNL     1       0.498  10.901  18.639  0.00  0.00    +0.000 OA
BRANCH  20  21
ATOM     21  C   UNL     1      -0.788  10.884  18.172  0.00  0.00    +0.000 A 
ATOM     22  C   UNL     1      -1.371   9.827  17.507  0.00  0.00    +0.000 A 
ATOM     23  N   UNL     1      -2.674   9.780  17.180  0.00  0.00    +0.000 NA
ATOM     24  C   UNL     1      -3.401  10.850  17.505  0.00  0.00    +0.000 A 
ATOM     25  N   UNL     1      -4.757  10.762  17.293  0.00  0.00    +0.000 N 
ATOM     26  N   UNL     1      -2.911  11.985  18.017  0.00  0.00    +0.000 NA
ATOM     27  C   UNL     1      -1.605  11.993  18.335  0.00  0.00    +0.000 A 
ATOM     28  H   UNL     1      -4.965  10.044  16.612  0.00  0.00    +0.000 HD
ATOM     29  H   UNL     1      -5.178  11.669  17.179  0.00  0.00    +0.000 HD
BRANCH  27  30
ATOM     30  N   UNL     1      -1.081  13.221  18.756  0.00  0.00    +0.000 N 
ATOM     31  H   UNL     1      -1.173  13.893  17.999  0.00  0.00    +0.000 HD
ATOM     32  H   UNL     1      -1.466  13.536  19.637  0.00  0.00    +0.000 HD
ENDBRANCH  27  30
ENDBRANCH  20  21
ENDBRANCH   4  20
TORSDOF 7
ENDMDL
MODEL 2
REMARK VINA RESULT:      -7.2      2.628      8.186
REMARK  Name = 
REMARK  11 active torsions:
REMARK  status: ('A' for Active; 'I' for Inactive)
REMARK    1  A    between atoms: C_1  and  O_2
REMARK    2  A    between atoms: O_2  and  C_3
REMARK    3  A    between atoms: C_5  and  C_6
REMARK    4  A    between atoms: C_6  and  C_7
REMARK    5  A    between atoms: C_6  and  C_8
REMARK    6  A    between atoms: C_9  and  O_10
REMARK    7  A    between atoms: O_10  and  C_11
REMARK    8  A    between atoms: C_17  and  N_18
REMARK    9  A    between atoms: C_20  and  C_21
REMARK   10  A    between atoms: C_22  and  C_23
REMARK   11  A    between atoms: N_27  and  C_28
REMARK                            x       y       z     vdW  Elec       q    Type
REMARK                         _______ _______ _______ _____ _____    ______ ____
ROOT
ATOM      1  C   UNL     1       1.217   8.012  20.277  0.00  0.00    +0.000 A 
ATOM      2  C   UNL     1       1.333   6.629  20.468  0.00  0.00    +0.000 A 
ATOM      3  C   UNL     1       2.035   5.810  19.562  0.00  0.00    +0.000 A 
ATOM      4  C   UNL     1       2.545   6.395  18.393  0.00  0.00    +0.000 A 
ATOM      5  C   UNL     1       2.442   7.785  18.200  0.00  0.00    +0.000 A 
ATOM      6  C   UNL     1       1.777   8.593  19.132  0.00  0.00    +0.000 A 
ENDROOT
BRANCH   3   7
ATOM      7  C   UNL     1       2.279   4.344  19.904  0.00  0.00    +0.000 C 
ATOM      8  C   UNL     1       2.247   4.137  21.425  0.00  0.00    +0.000 C 
ATOM      9  C   UNL     1       1.287   3.405  19.214  0.00  0.00    +0.000 C 
ENDBRANCH   3   7
BRANCH   1  11
ATOM     10  C   UNL     1       1.277   9.112  22.365  0.00  0.00    +0.000 C 
ATOM     11  O   UNL     1       0.563   8.834  21.161  0.00  0.00    +0.000 OA
ENDBRANCH   1  11
BRANCH   6  12
ATOM     12  C   UNL     1       1.741  10.012  18.912  0.00  0.00    +0.000 C 
ATOM     13  C   UNL     1       1.760  11.199  18.741  0.00  0.00    +0.000 C 
BRANCH  13  14
ATOM     14  C   UNL     1       1.812  12.613  18.583  0.00  0.00    +0.000 A 
ATOM     15  C   UNL     1       2.882  13.407  18.232  0.00  0.00    +0.000 A 
ATOM     16  N   UNL     1       2.531  14.737  18.233  0.00  0.00    +0.000 NA
ATOM     17  C   UNL     1       1.262  14.755  18.577  0.00  0.00    +0.000 A 
ATOM     18  N   UNL     1       0.783  13.494  18.786  0.00  0.00    +0.000 N 
ATOM     19  C   UNL     1      -0.566  13.156  19.167  0.00  0.00    +0.000 C 
ENDBRANCH  13  14
ENDBRANCH   6  12
BRANCH   4  20
ATOM     20  O   UNL     1       3.196   5.567  17.494  0.00  0.00    +0.000 OA
BRANCH  20  21
ATOM     21  C   UNL     1       4.532   5.326  17.662  0.00  0.00    +0.000 A 
ATOM     22  C   UNL     1       5.087   4.676  18.742  0.00  0.00    +0.000 A 
ATOM     23  N   UNL     1       6.383   4.330  18.821  0.00  0.00    +0.000 NA
ATOM     24  C   UNL     1       7.149   4.684  17.788  0.00  0.00    +0.000 A 
ATOM     25  N   UNL     1       8.446   4.225  17.794  0.00  0.00    +0.000 N 
ATOM     26  N   UNL     1       6.749   5.441  16.759  0.00  0.00    +0.000 NA
ATOM     27  C   UNL     1       5.445   5.764  16.713  0.00  0.00    +0.000 A 
ATOM     28  H   UNL     1       8.730   3.979  18.733  0.00  0.00    +0.000 HD
ATOM     29  H   UNL     1       9.053   4.810  17.245  0.00  0.00    +0.000 HD
BRANCH  27  30
ATOM     30  N   UNL     1       5.065   6.652  15.700  0.00  0.00    +0.000 N 
ATOM     31  H   UNL     1       4.421   6.177  15.073  0.00  0.00    +0.000 HD
ATOM     32  H   UNL     1       4.722   7.535  16.054  0.00  0.00    +0.000 HD
ENDBRANCH  27  30
ENDBRANCH  20  21
ENDBRANCH   4  20
TORSDOF 7
ENDMDL
MODEL 3
REMARK VINA RESULT:      -7.0      2.427      8.139
REMARK  Name = 
REMARK  11 active torsions:
REMARK  status: ('A' for Active; 'I' for Inactive)
REMARK    1  A    between atoms: C_1  and  O_2
REMARK    2  A    between atoms: O_2  and  C_3
REMARK    3  A    between atoms: C_5  and  C_6
REMARK    4  A    between atoms: C_6  and  C_7
REMARK    5  A    between atoms: C_6  and  C_8
REMARK    6  A    between atoms: C_9  and  O_10
REMARK    7  A    between atoms: O_10  and  C_11
REMARK    8  A    between atoms: C_17  and  N_18
REMARK    9  A    between atoms: C_20  and  C_21
REMARK   10  A    between atoms: C_22  and  C_23
REMARK   11  A    between atoms: N_27  and  C_28
REMARK                            x       y       z     vdW  Elec       q    Type
REMARK                         _______ _______ _______ _____ _____    ______ ____
ROOT
ATOM      1  C   UNL     1       1.421   7.637  20.599  0.00  0.00    +0.000 A 
ATOM      2  C   UNL     1       1.487   6.258  20.833  0.00  0.00    +0.000 A 
ATOM      3  C   UNL     1       1.913   5.355  19.839  0.00  0.00    +0.000 A 
ATOM      4  C   UNL     1       2.181   5.856  18.556  0.00  0.00    +0.000 A 
ATOM      5  C   UNL     1       2.127   7.241  18.317  0.00  0.00    +0.000 A 
ATOM      6  C   UNL     1       1.743   8.131  19.329  0.00  0.00    +0.000 A 
ENDROOT
BRANCH   3   7
ATOM      7  C   UNL     1       2.134   3.890  20.196  0.00  0.00    +0.000 C 
ATOM      8  C   UNL     1       2.365   3.735  21.706  0.00  0.00    +0.000 C 
ATOM      9  C   UNL     1       0.983   2.992  19.736  0.00  0.00    +0.000 C 
ENDBRANCH   3   7
BRANCH   1  11
ATOM     10  C   UNL     1      -0.368   8.608  21.797  0.00  0.00    +0.000 C 
ATOM     11  O   UNL     1       1.038   8.539  21.562  0.00  0.00    +0.000 OA
ENDBRANCH   1  11
BRANCH   6  12
ATOM     12  C   UNL     1       1.749   9.541  19.047  0.00  0.00    +0.000 C 
ATOM     13  C   UNL     1       1.745  10.725  18.861  0.00  0.00    +0.000 C 
BRANCH  13  14
ATOM     14  C   UNL     1       1.695  12.135  18.673  0.00  0.00    +0.000 A 
ATOM     15  C   UNL     1       2.694  12.992  18.267  0.00  0.00    +0.000 A 
ATOM     16  N   UNL     1       2.253  14.294  18.253  0.00  0.00    +0.000 NA
ATOM     17  C   UNL     1       0.999  14.234  18.642  0.00  0.00    +0.000 A 
ATOM     18  N   UNL     1       0.615  12.949  18.894  0.00  0.00    +0.000 N 
ATOM     19  C   UNL     1      -0.694  12.529  19.330  0.00  0.00    +0.000 C 
ENDBRANCH  13  14
ENDBRANCH   6  12
BRANCH   4  20
ATOM     20  O   UNL     1       2.558   4.948  17.581  0.00  0.00    +0.000 OA
BRANCH  20  21
ATOM     21  C   UNL     1       3.878   4.859  17.231  0.00  0.00    +0.000 A 
ATOM     22  C   UNL     1       4.639   5.902  16.751  0.00  0.00    +0.000 A 
ATOM     23  N   UNL     1       5.964   5.825  16.544  0.00  0.00    +0.000 NA
ATOM     24  C   UNL     1       6.532   4.646  16.799  0.00  0.00    +0.000 A 
ATOM     25  N   UNL     1       7.904   4.589  16.716  0.00  0.00    +0.000 N 
ATOM     26  N   UNL     1       5.870   3.530  17.127  0.00  0.00    +0.000 NA
ATOM     27  C   UNL     1       4.545   3.647  17.330  0.00  0.00    +0.000 A 
ATOM     28  H   UNL     1       8.256   5.346  16.147  0.00  0.00    +0.000 HD
ATOM     29  H   UNL     1       8.229   3.656  16.531  0.00  0.00    +0.000 HD
BRANCH  27  30
ATOM     30  N   UNL     1       3.849   2.453  17.554  0.00  0.00    +0.000 N 
ATOM     31  H   UNL     1       3.340   2.532  18.430  0.00  0.00    +0.000 HD
ATOM     32  H   UNL     1       3.279   2.172  16.768  0.00  0.00    +0.000 HD
ENDBRANCH  27  30
ENDBRANCH  20  21
ENDBRANCH   4  20
TORSDOF 7
ENDMDL
MODEL 4
REMARK VINA RESULT:      -7.0      2.483      8.033
REMARK  Name = 
REMARK  11 active torsions:
REMARK  status: ('A' for Active; 'I' for Inactive)
REMARK    1  A    between atoms: C_1  and  O_2
REMARK    2  A    between atoms: O_2  and  C_3
REMARK    3  A    between atoms: C_5  and  C_6
REMARK    4  A    between atoms: C_6  and  C_7
REMARK    5  A    between atoms: C_6  and  C_8
REMARK    6  A    between atoms: C_9  and  O_10
REMARK    7  A    between atoms: O_10  and  C_11
REMARK    8  A    between atoms: C_17  and  N_18
REMARK    9  A    between atoms: C_20  and  C_21
REMARK   10  A    between atoms: C_22  and  C_23
REMARK   11  A    between atoms: N_27  and  C_28
REMARK                            x       y       z     vdW  Elec       q    Type
REMARK                         _______ _______ _______ _____ _____    ______ ____
ROOT
ATOM      1  C   UNL     1       1.076   7.384  20.561  0.00  0.00    +0.000 A 
ATOM      2  C   UNL     1       1.264   6.016  20.797  0.00  0.00    +0.000 A 
ATOM      3  C   UNL     1       2.026   5.210  19.929  0.00  0.00    +0.000 A 
ATOM      4  C   UNL     1       2.523   5.787  18.750  0.00  0.00    +0.000 A 
ATOM      5  C   UNL     1       2.346   7.162  18.512  0.00  0.00    +0.000 A 
ATOM      6  C   UNL     1       1.622   7.960  19.407  0.00  0.00    +0.000 A 
ENDROOT
BRANCH   3   7
ATOM      7  C   UNL     1       2.345   3.772  20.321  0.00  0.00    +0.000 C 
ATOM      8  C   UNL     1       2.244   3.597  21.843  0.00  0.00    +0.000 C 
ATOM      9  C   UNL     1       1.455   2.755  19.605  0.00  0.00    +0.000 C 
ENDBRANCH   3   7
BRANCH   1  11
ATOM     10  C   UNL     1       1.150   8.929  22.345  0.00  0.00    +0.000 C 
ATOM     11  O   UNL     1       0.362   8.196  21.409  0.00  0.00    +0.000 OA
ENDBRANCH   1  11
BRANCH   6  12
ATOM     12  C   UNL     1       1.511   9.368  19.142  0.00  0.00    +0.000 C 
ATOM     13  C   UNL     1       1.456  10.551  18.953  0.00  0.00    +0.000 C 
BRANCH  13  14
ATOM     14  C   UNL     1       1.396  11.963  18.783  0.00  0.00    +0.000 A 
ATOM     15  C   UNL     1       2.380  12.827  18.356  0.00  0.00    +0.000 A 
ATOM     16  N   UNL     1       1.936  14.128  18.372  0.00  0.00    +0.000 NA
ATOM     17  C   UNL     1       0.696  14.061  18.801  0.00  0.00    +0.000 A 
ATOM     18  N   UNL     1       0.323  12.771  19.050  0.00  0.00    +0.000 N 
ATOM     19  C   UNL     1      -0.970  12.343  19.523  0.00  0.00    +0.000 C 
ENDBRANCH  13  14
ENDBRANCH   6  12
BRANCH   4  20
ATOM     20  O   UNL     1       3.234   4.969  17.888  0.00  0.00    +0.000 OA
BRANCH  20  21
ATOM     21  C   UNL     1       4.457   5.384  17.436  0.00  0.00    +0.000 A 
ATOM     22  C   UNL     1       4.656   6.234  16.370  0.00  0.00    +0.000 A 
ATOM     23  N   UNL     1       5.855   6.736  16.030  0.00  0.00    +0.000 NA
ATOM     24  C   UNL     1       6.890   6.339  16.771  0.00  0.00    +0.000 A 
ATOM     25  N   UNL     1       8.100   6.942  16.518  0.00  0.00    +0.000 N 
ATOM     26  N   UNL     1       6.835   5.408  17.732  0.00  0.00    +0.000 NA
ATOM     27  C   UNL     1       5.617   4.932  18.047  0.00  0.00    +0.000 A 
ATOM     28  H   UNL     1       8.108   7.344  15.590  0.00  0.00    +0.000 HD
ATOM     29  H   UNL     1       8.873   6.364  16.798  0.00  0.00    +0.000 HD
BRANCH  27  30
ATOM     30  N   UNL     1       5.587   3.877  18.966  0.00  0.00    +0.000 N 
ATOM     31  H   UNL     1       6.543   3.623  19.203  0.00  0.00    +0.000 HD
ATOM     32  H   UNL     1       4.998   4.064  19.766  0.00  0.00    +0.000 HD
ENDBRANCH  27  30
ENDBRANCH  20  21
ENDBRANCH   4  20
TORSDOF 7
ENDMDL
MODEL 5
REMARK VINA RESULT:      -6.9      1.892      2.988
REMARK  Name = 
REMARK  11 active torsions:
REMARK  status: ('A' for Active; 'I' for Inactive)
REMARK    1  A    between atoms: C_1  and  O_2
REMARK    2  A    between atoms: O_2  and  C_3
REMARK    3  A    between atoms: C_5  and  C_6
REMARK    4  A    between atoms: C_6  and  C_7
REMARK    5  A    between atoms: C_6  and  C_8
REMARK    6  A    between atoms: C_9  and  O_10
REMARK    7  A    between atoms: O_10  and  C_11
REMARK    8  A    between atoms: C_17  and  N_18
REMARK    9  A    between atoms: C_20  and  C_21
REMARK   10  A    between atoms: C_22  and  C_23
REMARK   11  A    between atoms: N_27  and  C_28
REMARK                            x       y       z     vdW  Elec       q    Type
REMARK                         _______ _______ _______ _____ _____    ______ ____
ROOT
ATOM      1  C   UNL     1       2.509   7.180  19.710  0.00  0.00    +0.000 A 
ATOM      2  C   UNL     1       1.606   7.880  20.519  0.00  0.00    +0.000 A 
ATOM      3  C   UNL     1       0.891   8.997  20.042  0.00  0.00    +0.000 A 
ATOM      4  C   UNL     1       1.175   9.466  18.750  0.00  0.00    +0.000 A 
ATOM      5  C   UNL     1       2.073   8.761  17.928  0.00  0.00    +0.000 A 
ATOM      6  C   UNL     1       2.744   7.626  18.403  0.00  0.00    +0.000 A 
ENDROOT
BRANCH   3   7
ATOM      7  C   UNL     1      -0.205   9.614  20.902  0.00  0.00    +0.000 C 
ATOM      8  C   UNL     1      -0.810   8.559  21.838  0.00  0.00    +0.000 C 
ATOM      9  C   UNL     1       0.286  10.822  21.704  0.00  0.00    +0.000 C 
ENDBRANCH   3   7
BRANCH   1  11
ATOM     10  C   UNL     1       2.374   4.995  20.594  0.00  0.00    +0.000 C 
ATOM     11  O   UNL     1       3.195   6.071  20.144  0.00  0.00    +0.000 OA
ENDBRANCH   1  11
BRANCH   6  12
ATOM     12  C   UNL     1       3.616   6.915  17.509  0.00  0.00    +0.000 C 
ATOM     13  C   UNL     1       4.376   6.316  16.801  0.00  0.00    +0.000 C 
BRANCH  13  14
ATOM     14  C   UNL     1       5.320   5.635  15.982  0.00  0.00    +0.000 A 
ATOM     15  C   UNL     1       5.098   4.840  14.879  0.00  0.00    +0.000 A 
ATOM     16  N   UNL     1       6.278   4.327  14.393  0.00  0.00    +0.000 NA
ATOM     17  C   UNL     1       7.210   4.805  15.187  0.00  0.00    +0.000 A 
ATOM     18  N   UNL     1       6.680   5.610  16.154  0.00  0.00    +0.000 N 
ATOM     19  C   UNL     1       7.422   6.298  17.180  0.00  0.00    +0.000 C 
ENDBRANCH  13  14
ENDBRANCH   6  12
BRANCH   4  20
ATOM     20  O   UNL     1       0.493  10.589  18.313  0.00  0.00    +0.000 OA
BRANCH  20  21
ATOM     21  C   UNL     1       1.085  11.816  18.437  0.00  0.00    +0.000 A 
ATOM     22  C   UNL     1       2.440  12.050  18.343  0.00  0.00    +0.000 A 
ATOM     23  N   UNL     1       2.985  13.278  18.332  0.00  0.00    +0.000 NA
ATOM     24  C   UNL     1       2.136  14.300  18.453  0.00  0.00    +0.000 A 
ATOM     25  N   UNL     1       2.665  15.562  18.314  0.00  0.00    +0.000 N 
ATOM     26  N   UNL     1       0.825  14.184  18.696  0.00  0.00    +0.000 NA
ATOM     27  C   UNL     1       0.315  12.940  18.696  0.00  0.00    +0.000 A 
ATOM     28  H   UNL     1       3.661  15.550  18.481  0.00  0.00    +0.000 HD
ATOM     29  H   UNL     1       2.107  16.255  18.782  0.00  0.00    +0.000 HD
BRANCH  27  30
ATOM     30  N   UNL     1      -1.030  12.826  19.068  0.00  0.00    +0.000 N 
ATOM     31  H   UNL     1      -1.340  13.716  19.447  0.00  0.00    +0.000 HD
ATOM     32  H   UNL     1      -1.617  12.463  18.330  0.00  0.00    +0.000 HD
ENDBRANCH  27  30
ENDBRANCH  20  21
ENDBRANCH   4  20
TORSDOF 7
ENDMDL
MODEL 6
REMARK VINA RESULT:      -6.8      3.058      8.651
REMARK  Name = 
REMARK  11 active torsions:
REMARK  status: ('A' for Active; 'I' for Inactive)
REMARK    1  A    between atoms: C_1  and  O_2
REMARK    2  A    between atoms: O_2  and  C_3
REMARK    3  A    between atoms: C_5  and  C_6
REMARK    4  A    between atoms: C_6  and  C_7
REMARK    5  A    between atoms: C_6  and  C_8
REMARK    6  A    between atoms: C_9  and  O_10
REMARK    7  A    between atoms: O_10  and  C_11
REMARK    8  A    between atoms: C_17  and  N_18
REMARK    9  A    between atoms: C_20  and  C_21
REMARK   10  A    between atoms: C_22  and  C_23
REMARK   11  A    between atoms: N_27  and  C_28
REMARK                            x       y       z     vdW  Elec       q    Type
REMARK                         _______ _______ _______ _____ _____    ______ ____
ROOT
ATOM      1  C   UNL     1       2.158   4.359  20.096  0.00  0.00    +0.000 A 
ATOM      2  C   UNL     1       2.833   3.153  19.872  0.00  0.00    +0.000 A 
ATOM      3  C   UNL     1       4.186   3.120  19.483  0.00  0.00    +0.000 A 
ATOM      4  C   UNL     1       4.834   4.337  19.222  0.00  0.00    +0.000 A 
ATOM      5  C   UNL     1       4.165   5.552  19.456  0.00  0.00    +0.000 A 
ATOM      6  C   UNL     1       2.831   5.569  19.885  0.00  0.00    +0.000 A 
ENDROOT
BRANCH   3   7
ATOM      7  C   UNL     1       4.921   1.785  19.421  0.00  0.00    +0.000 C 
ATOM      8  C   UNL     1       5.193   1.258  20.837  0.00  0.00    +0.000 C 
ATOM      9  C   UNL     1       4.171   0.738  18.595  0.00  0.00    +0.000 C 
ENDBRANCH   3   7
BRANCH   1  11
ATOM     10  C   UNL     1       0.003   3.405  19.959  0.00  0.00    +0.000 C 
ATOM     11  O   UNL     1       0.848   4.416  20.505  0.00  0.00    +0.000 OA
ENDBRANCH   1  11
BRANCH   6  12
ATOM     12  C   UNL     1       2.209   6.836  20.154  0.00  0.00    +0.000 C 
ATOM     13  C   UNL     1       1.724   7.901  20.414  0.00  0.00    +0.000 C 
BRANCH  13  14
ATOM     14  C   UNL     1       1.155   9.154  20.777  0.00  0.00    +0.000 A 
ATOM     15  C   UNL     1       0.751   9.597  22.018  0.00  0.00    +0.000 A 
ATOM     16  N   UNL     1       0.208  10.857  21.941  0.00  0.00    +0.000 NA
ATOM     17  C   UNL     1       0.281  11.184  20.669  0.00  0.00    +0.000 A 
ATOM     18  N   UNL     1       0.858  10.191  19.931  0.00  0.00    +0.000 N 
ATOM     19  C   UNL     1       1.096  10.225  18.510  0.00  0.00    +0.000 C 
ENDBRANCH  13  14
ENDBRANCH   6  12
BRANCH   4  20
ATOM     20  O   UNL     1       6.152   4.283  18.800  0.00  0.00    +0.000 OA
BRANCH  20  21
ATOM     21  C   UNL     1       6.761   5.433  18.379  0.00  0.00    +0.000 A 
ATOM     22  C   UNL     1       6.490   6.080  17.194  0.00  0.00    +0.000 A 
ATOM     23  N   UNL     1       7.001   7.279  16.864  0.00  0.00    +0.000 NA
ATOM     24  C   UNL     1       7.840   7.823  17.747  0.00  0.00    +0.000 A 
ATOM     25  N   UNL     1       8.269   9.103  17.483  0.00  0.00    +0.000 N 
ATOM     26  N   UNL     1       8.286   7.220  18.856  0.00  0.00    +0.000 NA
ATOM     27  C   UNL     1       7.748   6.024  19.154  0.00  0.00    +0.000 A 
ATOM     28  H   UNL     1       8.164   9.317  16.501  0.00  0.00    +0.000 HD
ATOM     29  H   UNL     1       9.149   9.302  17.928  0.00  0.00    +0.000 HD
BRANCH  27  30
ATOM     30  N   UNL     1       8.308   5.353  20.248  0.00  0.00    +0.000 N 
ATOM     31  H   UNL     1       7.575   4.835  20.723  0.00  0.00    +0.000 HD
ATOM     32  H   UNL     1       9.115   4.797  20.002  0.00  0.00    +0.000 HD
ENDBRANCH  27  30
ENDBRANCH  20  21
ENDBRANCH   4  20
TORSDOF 7
ENDMDL
MODEL 7
REMARK VINA RESULT:      -6.8      2.873      8.652
REMARK  Name = 
REMARK  11 active torsions:
REMARK  status: ('A' for Active; 'I' for Inactive)
REMARK    1  A    between atoms: C_1  and  O_2
REMARK    2  A    between atoms: O_2  and  C_3
REMARK    3  A    between atoms: C_5  and  C_6
REMARK    4  A    between atoms: C_6  and  C_7
REMARK    5  A    between atoms: C_6  and  C_8
REMARK    6  A    between atoms: C_9  and  O_10
REMARK    7  A    between atoms: O_10  and  C_11
REMARK    8  A    between atoms: C_17  and  N_18
REMARK    9  A    between atoms: C_20  and  C_21
REMARK   10  A    between atoms: C_22  and  C_23
REMARK   11  A    between atoms: N_27  and  C_28
REMARK                            x       y       z     vdW  Elec       q    Type
REMARK                         _______ _______ _______ _____ _____    ______ ____
ROOT
ATOM      1  C   UNL     1       2.043   4.785  19.787  0.00  0.00    +0.000 A 
ATOM      2  C   UNL     1       2.688   3.768  19.072  0.00  0.00    +0.000 A 
ATOM      3  C   UNL     1       3.736   4.042  18.171  0.00  0.00    +0.000 A 
ATOM      4  C   UNL     1       4.064   5.383  17.920  0.00  0.00    +0.000 A 
ATOM      5  C   UNL     1       3.428   6.409  18.642  0.00  0.00    +0.000 A 
ATOM      6  C   UNL     1       2.417   6.117  19.568  0.00  0.00    +0.000 A 
ENDROOT
BRANCH   3   7
ATOM      7  C   UNL     1       4.518   2.890  17.552  0.00  0.00    +0.000 C 
ATOM      8  C   UNL     1       3.791   1.559  17.791  0.00  0.00    +0.000 C 
ATOM      9  C   UNL     1       4.784   3.093  16.059  0.00  0.00    +0.000 C 
ENDBRANCH   3   7
BRANCH   1  11
ATOM     10  C   UNL     1       1.111   3.270  21.339  0.00  0.00    +0.000 C 
ATOM     11  O   UNL     1       1.041   4.540  20.693  0.00  0.00    +0.000 OA
ENDBRANCH   1  11
BRANCH   6  12
ATOM     12  C   UNL     1       1.832   7.197  20.314  0.00  0.00    +0.000 C 
ATOM     13  C   UNL     1       1.298   8.075  20.933  0.00  0.00    +0.000 C 
BRANCH  13  14
ATOM     14  C   UNL     1       0.622   9.115  21.631  0.00  0.00    +0.000 A 
ATOM     15  C   UNL     1       0.536   9.333  22.989  0.00  0.00    +0.000 A 
ATOM     16  N   UNL     1      -0.252  10.427  23.264  0.00  0.00    +0.000 NA
ATOM     17  C   UNL     1      -0.639  10.873  22.090  0.00  0.00    +0.000 A 
ATOM     18  N   UNL     1      -0.125  10.119  21.074  0.00  0.00    +0.000 N 
ATOM     19  C   UNL     1      -0.345  10.337  19.666  0.00  0.00    +0.000 C 
ENDBRANCH  13  14
ENDBRANCH   6  12
BRANCH   4  20
ATOM     20  O   UNL     1       5.068   5.635  17.000  0.00  0.00    +0.000 OA
BRANCH  20  21
ATOM     21  C   UNL     1       6.126   6.418  17.369  0.00  0.00    +0.000 A 
ATOM     22  C   UNL     1       6.313   7.727  16.980  0.00  0.00    +0.000 A 
ATOM     23  N   UNL     1       7.285   8.518  17.464  0.00  0.00    +0.000 NA
ATOM     24  C   UNL     1       8.116   7.957  18.344  0.00  0.00    +0.000 A 
ATOM     25  N   UNL     1       9.034   8.788  18.943  0.00  0.00    +0.000 N 
ATOM     26  N   UNL     1       8.118   6.662  18.681  0.00  0.00    +0.000 NA
ATOM     27  C   UNL     1       7.127   5.903  18.180  0.00  0.00    +0.000 A 
ATOM     28  H   UNL     1       9.175   9.620  18.387  0.00  0.00    +0.000 HD
ATOM     29  H   UNL     1       9.841   8.283  19.267  0.00  0.00    +0.000 HD
BRANCH  27  30
ATOM     30  N   UNL     1       7.210   4.530  18.443  0.00  0.00    +0.000 N 
ATOM     31  H   UNL     1       7.109   4.383  19.444  0.00  0.00    +0.000 HD
ATOM     32  H   UNL     1       6.579   3.979  17.878  0.00  0.00    +0.000 HD
ENDBRANCH  27  30
ENDBRANCH  20  21
ENDBRANCH   4  20
TORSDOF 7
ENDMDL
MODEL 8
REMARK VINA RESULT:      -6.7      2.664      8.700
REMARK  Name = 
REMARK  11 active torsions:
REMARK  status: ('A' for Active; 'I' for Inactive)
REMARK    1  A    between atoms: C_1  and  O_2
REMARK    2  A    between atoms: O_2  and  C_3
REMARK    3  A    between atoms: C_5  and  C_6
REMARK    4  A    between atoms: C_6  and  C_7
REMARK    5  A    between atoms: C_6  and  C_8
REMARK    6  A    between atoms: C_9  and  O_10
REMARK    7  A    between atoms: O_10  and  C_11
REMARK    8  A    between atoms: C_17  and  N_18
REMARK    9  A    between atoms: C_20  and  C_21
REMARK   10  A    between atoms: C_22  and  C_23
REMARK   11  A    between atoms: N_27  and  C_28
REMARK                            x       y       z     vdW  Elec       q    Type
REMARK                         _______ _______ _______ _____ _____    ______ ____
ROOT
ATOM      1  C   UNL     1       2.056   4.518  19.989  0.00  0.00    +0.000 A 
ATOM      2  C   UNL     1       2.729   3.310  19.766  0.00  0.00    +0.000 A 
ATOM      3  C   UNL     1       4.104   3.271  19.461  0.00  0.00    +0.000 A 
ATOM      4  C   UNL     1       4.781   4.487  19.283  0.00  0.00    +0.000 A 
ATOM      5  C   UNL     1       4.114   5.703  19.515  0.00  0.00    +0.000 A 
ATOM      6  C   UNL     1       2.757   5.724  19.861  0.00  0.00    +0.000 A 
ENDROOT
BRANCH   3   7
ATOM      7  C   UNL     1       4.824   1.929  19.400  0.00  0.00    +0.000 C 
ATOM      8  C   UNL     1       5.065   1.386  20.816  0.00  0.00    +0.000 C 
ATOM      9  C   UNL     1       4.077   0.897  18.551  0.00  0.00    +0.000 C 
ENDBRANCH   3   7
BRANCH   1  11
ATOM     10  C   UNL     1      -0.026   3.406  20.012  0.00  0.00    +0.000 C 
ATOM     11  O   UNL     1       0.724   4.580  20.317  0.00  0.00    +0.000 OA
ENDBRANCH   1  11
BRANCH   6  12
ATOM     12  C   UNL     1       2.134   6.991  20.134  0.00  0.00    +0.000 C 
ATOM     13  C   UNL     1       1.576   8.022  20.384  0.00  0.00    +0.000 C 
BRANCH  13  14
ATOM     14  C   UNL     1       0.867   9.224  20.666  0.00  0.00    +0.000 A 
ATOM     15  C   UNL     1       0.533   9.768  21.887  0.00  0.00    +0.000 A 
ATOM     16  N   UNL     1      -0.197  10.922  21.731  0.00  0.00    +0.000 NA
ATOM     17  C   UNL     1      -0.307  11.084  20.431  0.00  0.00    +0.000 A 
ATOM     18  N   UNL     1       0.331  10.089  19.748  0.00  0.00    +0.000 N 
ATOM     19  C   UNL     1       0.413   9.967  18.314  0.00  0.00    +0.000 C 
ENDBRANCH  13  14
ENDBRANCH   6  12
BRANCH   4  20
ATOM     20  O   UNL     1       6.122   4.428  18.942  0.00  0.00    +0.000 OA
BRANCH  20  21
ATOM     21  C   UNL     1       6.484   4.607  17.635  0.00  0.00    +0.000 A 
ATOM     22  C   UNL     1       6.188   3.737  16.609  0.00  0.00    +0.000 A 
ATOM     23  N   UNL     1       6.433   3.999  15.314  0.00  0.00    +0.000 NA
ATOM     24  C   UNL     1       7.027   5.164  15.052  0.00  0.00    +0.000 A 
ATOM     25  N   UNL     1       7.167   5.502  13.726  0.00  0.00    +0.000 N 
ATOM     26  N   UNL     1       7.489   6.015  15.976  0.00  0.00    +0.000 NA
ATOM     27  C   UNL     1       7.221   5.721  17.261  0.00  0.00    +0.000 A 
ATOM     28  H   UNL     1       7.113   4.678  13.142  0.00  0.00    +0.000 HD
ATOM     29  H   UNL     1       7.927   6.145  13.582  0.00  0.00    +0.000 HD
BRANCH  27  30
ATOM     30  N   UNL     1       7.811   6.553  18.219  0.00  0.00    +0.000 N 
ATOM     31  H   UNL     1       8.759   6.770  17.924  0.00  0.00    +0.000 HD
ATOM     32  H   UNL     1       7.250   7.366  18.439  0.00  0.00    +0.000 HD
ENDBRANCH  27  30
ENDBRANCH  20  21
ENDBRANCH   4  20
TORSDOF 7
ENDMDL
MODEL 9
REMARK VINA RESULT:      -6.6      1.694      2.805
REMARK  Name = 
REMARK  11 active torsions:
REMARK  status: ('A' for Active; 'I' for Inactive)
REMARK    1  A    between atoms: C_1  and  O_2
REMARK    2  A    between atoms: O_2  and  C_3
REMARK    3  A    between atoms: C_5  and  C_6
REMARK    4  A    between atoms: C_6  and  C_7
REMARK    5  A    between atoms: C_6  and  C_8
REMARK    6  A    between atoms: C_9  and  O_10
REMARK    7  A    between atoms: O_10  and  C_11
REMARK    8  A    between atoms: C_17  and  N_18
REMARK    9  A    between atoms: C_20  and  C_21
REMARK   10  A    between atoms: C_22  and  C_23
REMARK   11  A    between atoms: N_27  and  C_28
REMARK                            x       y       z     vdW  Elec       q    Type
REMARK                         _______ _______ _______ _____ _____    ______ ____
ROOT
ATOM      1  C   UNL     1       2.189   7.394  20.048  0.00  0.00    +0.000 A 
ATOM      2  C   UNL     1       1.325   8.154  20.846  0.00  0.00    +0.000 A 
ATOM      3  C   UNL     1       0.640   9.277  20.339  0.00  0.00    +0.000 A 
ATOM      4  C   UNL     1       0.918   9.688  19.026  0.00  0.00    +0.000 A 
ATOM      5  C   UNL     1       1.776   8.923  18.217  0.00  0.00    +0.000 A 
ATOM      6  C   UNL     1       2.416   7.784  18.723  0.00  0.00    +0.000 A 
ENDROOT
BRANCH   3   7
ATOM      7  C   UNL     1      -0.418   9.964  21.194  0.00  0.00    +0.000 C 
ATOM      8  C   UNL     1      -0.881   9.033  22.324  0.00  0.00    +0.000 C 
ATOM      9  C   UNL     1       0.062  11.300  21.765  0.00  0.00    +0.000 C 
ENDBRANCH   3   7
BRANCH   1  11
ATOM     10  C   UNL     1       2.007   5.150  20.760  0.00  0.00    +0.000 C 
ATOM     11  O   UNL     1       2.843   6.278  20.512  0.00  0.00    +0.000 OA
ENDBRANCH   1  11
BRANCH   6  12
ATOM     12  C   UNL     1       3.247   7.010  17.841  0.00  0.00    +0.000 C 
ATOM     13  C   UNL     1       3.980   6.385  17.128  0.00  0.00    +0.000 C 
BRANCH  13  14
ATOM     14  C   UNL     1       4.883   5.688  16.276  0.00  0.00    +0.000 A 
ATOM     15  C   UNL     1       5.717   6.189  15.301  0.00  0.00    +0.000 A 
ATOM     16  N   UNL     1       6.400   5.177  14.667  0.00  0.00    +0.000 NA
ATOM     17  C   UNL     1       5.991   4.072  15.250  0.00  0.00    +0.000 A 
ATOM     18  N   UNL     1       5.084   4.332  16.236  0.00  0.00    +0.000 N 
ATOM     19  C   UNL     1       4.444   3.351  17.075  0.00  0.00    +0.000 C 
ENDBRANCH  13  14
ENDBRANCH   6  12
BRANCH   4  20
ATOM     20  O   UNL     1       0.267  10.818  18.560  0.00  0.00    +0.000 OA
BRANCH  20  21
ATOM     21  C   UNL     1       0.907  12.026  18.621  0.00  0.00    +0.000 A 
ATOM     22  C   UNL     1       2.274  12.193  18.656  0.00  0.00    +0.000 A 
ATOM     23  N   UNL     1       2.882  13.389  18.578  0.00  0.00    +0.000 NA
ATOM     24  C   UNL     1       2.080  14.452  18.496  0.00  0.00    +0.000 A 
ATOM     25  N   UNL     1       2.685  15.668  18.286  0.00  0.00    +0.000 N 
ATOM     26  N   UNL     1       0.745  14.417  18.601  0.00  0.00    +0.000 NA
ATOM     27  C   UNL     1       0.173  13.202  18.673  0.00  0.00    +0.000 A 
ATOM     28  H   UNL     1       3.657  15.634  18.564  0.00  0.00    +0.000 HD
ATOM     29  H   UNL     1       2.118  16.431  18.614  0.00  0.00    +0.000 HD
BRANCH  27  30
ATOM     30  N   UNL     1      -1.207  13.185  18.902  0.00  0.00    +0.000 N 
ATOM     31  H   UNL     1      -1.653  13.834  18.260  0.00  0.00    +0.000 HD
ATOM     32  H   UNL     1      -1.601  12.253  18.888  0.00  0.00    +0.000 HD
ENDBRANCH  27  30
ENDBRANCH  20  21
ENDBRANCH   4  20
TORSDOF 7
ENDMDL
