MODEL 1
REMARK VINA RESULT:      -7.6      0.000      0.000
REMARK  Name = 
REMARK  5 active torsions:
REMARK  status: ('A' for Active; 'I' for Inactive)
REMARK    1  A    between atoms: C_2  and  C_10
REMARK    2  A    between atoms: N_3  and  C_4
REMARK    3  A    between atoms: C_4  and  C_5
REMARK    4  A    between atoms: N_13  and  S_14
REMARK    5  A    between atoms: S_14  and  C_17
REMARK                            x       y       z     vdW  Elec       q    Type
REMARK                         _______ _______ _______ _____ _____    ______ ____
ROOT
ATOM      1  C   UNL     1       7.941   5.776  18.174  0.00  0.00    +0.000 C 
ATOM      2  C   UNL     1       7.582   4.650  17.202  0.00  0.00    +0.000 C 
ATOM      3  C   UNL     1       6.077   4.410  17.085  0.00  0.00    +0.000 C 
ATOM      4  N   UNL     1       5.383   4.368  18.404  0.00  0.00    +0.000 NA
ATOM      5  C   UNL     1       5.793   5.395  19.390  0.00  0.00    +0.000 C 
ATOM      6  C   UNL     1       7.307   5.439  19.525  0.00  0.00    +0.000 C 
ENDROOT
BRANCH   1   8
ATOM      7  O   UNL     1       6.511   7.324  16.957  0.00  0.00    +0.000 OA
ATOM      8  C   UNL     1       7.491   7.155  17.675  0.00  0.00    +0.000 C 
ATOM      9  N   UNL     1       8.276   8.187  18.132  0.00  0.00    +0.000 N 
ATOM     10  H   UNL     1       9.111   7.987  18.666  0.00  0.00    +0.000 HD
BRANCH   9  11
ATOM     11  C   UNL     1       7.957   9.584  17.938  0.00  0.00    +0.000 C 
BRANCH  11  12
ATOM     12  C   UNL     1       9.087  10.418  18.470  0.00  0.00    +0.000 A 
ATOM     13  C   UNL     1      10.074  11.071  17.756  0.00  0.00    +0.000 A 
ATOM     14  C   UNL     1      10.999  11.758  18.597  0.00  0.00    +0.000 A 
ATOM     15  C   UNL     1      10.694  11.602  19.930  0.00  0.00    +0.000 A 
ATOM     16  S   UNL     1       9.311  10.624  20.162  0.00  0.00    +0.000 S 
ENDBRANCH  11  12
ENDBRANCH   9  11
ENDBRANCH   1   8
BRANCH   4  17
ATOM     17  S   UNL     1       3.670   4.203  18.272  0.00  0.00    +0.000 S 
ATOM     18  O   UNL     1       3.346   4.014  16.871  0.00  0.00    +0.000 OA
ATOM     19  O   UNL     1       3.217   3.276  19.283  0.00  0.00    +0.000 OA
BRANCH  17  20
ATOM     20  C   UNL     1       2.953   5.796  18.674  0.00  0.00    +0.000 A 
ATOM     21  C   UNL     1       2.912   6.987  17.964  0.00  0.00    +0.000 A 
ATOM     22  C   UNL     1       2.299   8.043  18.702  0.00  0.00    +0.000 A 
ATOM     23  C   UNL     1       1.878   7.602  19.931  0.00  0.00    +0.000 A 
ATOM     24 BR   UNL     1       1.016   8.700  21.181  0.00  0.00    +0.000 Br
ATOM     25  S   UNL     1       2.206   5.965  20.208  0.00  0.00    +0.000 S 
ENDBRANCH  17  20
ENDBRANCH   4  17
TORSDOF 5
ENDMDL
MODEL 2
REMARK VINA RESULT:      -7.5      1.191      1.379
REMARK  Name = 
REMARK  5 active torsions:
REMARK  status: ('A' for Active; 'I' for Inactive)
REMARK    1  A    between atoms: C_2  and  C_10
REMARK    2  A    between atoms: N_3  and  C_4
REMARK    3  A    between atoms: C_4  and  C_5
REMARK    4  A    between atoms: N_13  and  S_14
REMARK    5  A    between atoms: S_14  and  C_17
REMARK                            x       y       z     vdW  Elec       q    Type
REMARK                         _______ _______ _______ _____ _____    ______ ____
ROOT
ATOM      1  C   UNL     1       7.837   5.740  18.006  0.00  0.00    +0.000 C 
ATOM      2  C   UNL     1       7.382   4.556  17.150  0.00  0.00    +0.000 C 
ATOM      3  C   UNL     1       5.869   4.341  17.171  0.00  0.00    +0.000 C 
ATOM      4  N   UNL     1       5.284   4.409  18.541  0.00  0.00    +0.000 NA
ATOM      5  C   UNL     1       5.788   5.495  19.413  0.00  0.00    +0.000 C 
ATOM      6  C   UNL     1       7.309   5.514  19.424  0.00  0.00    +0.000 C 
ENDROOT
BRANCH   1   8
ATOM      7  O   UNL     1       6.443   7.204  16.651  0.00  0.00    +0.000 OA
ATOM      8  C   UNL     1       7.371   7.090  17.446  0.00  0.00    +0.000 C 
ATOM      9  N   UNL     1       8.075   8.163  17.940  0.00  0.00    +0.000 N 
ATOM     10  H   UNL     1       8.873   8.008  18.540  0.00  0.00    +0.000 HD
BRANCH   9  11
ATOM     11  C   UNL     1       7.714   9.541  17.692  0.00  0.00    +0.000 C 
BRANCH  11  12
ATOM     12  C   UNL     1       8.692  10.433  18.403  0.00  0.00    +0.000 A 
ATOM     13  C   UNL     1       9.435  10.152  19.534  0.00  0.00    +0.000 A 
ATOM     14  C   UNL     1      10.252  11.248  19.942  0.00  0.00    +0.000 A 
ATOM     15  C   UNL     1      10.102  12.336  19.113  0.00  0.00    +0.000 A 
ATOM     16  S   UNL     1       8.975  12.040  17.862  0.00  0.00    +0.000 S 
ENDBRANCH  11  12
ENDBRANCH   9  11
ENDBRANCH   1   8
BRANCH   4  17
ATOM     17  S   UNL     1       3.563   4.272  18.558  0.00  0.00    +0.000 S 
ATOM     18  O   UNL     1       3.120   4.037  17.197  0.00  0.00    +0.000 OA
ATOM     19  O   UNL     1       3.181   3.394  19.638  0.00  0.00    +0.000 OA
BRANCH  17  20
ATOM     20  C   UNL     1       2.908   5.894  18.954  0.00  0.00    +0.000 A 
ATOM     21  C   UNL     1       2.303   6.382  20.102  0.00  0.00    +0.000 A 
ATOM     22  C   UNL     1       1.856   7.728  19.955  0.00  0.00    +0.000 A 
ATOM     23  C   UNL     1       2.165   8.215  18.710  0.00  0.00    +0.000 A 
ATOM     24 BR   UNL     1       1.748   9.952  18.148  0.00  0.00    +0.000 Br
ATOM     25  S   UNL     1       2.967   7.092  17.729  0.00  0.00    +0.000 S 
ENDBRANCH  17  20
ENDBRANCH   4  17
TORSDOF 5
ENDMDL
MODEL 3
REMARK VINA RESULT:      -7.4      4.847      6.803
REMARK  Name = 
REMARK  5 active torsions:
REMARK  status: ('A' for Active; 'I' for Inactive)
REMARK    1  A    between atoms: C_2  and  C_10
REMARK    2  A    between atoms: N_3  and  C_4
REMARK    3  A    between atoms: C_4  and  C_5
REMARK    4  A    between atoms: N_13  and  S_14
REMARK    5  A    between atoms: S_14  and  C_17
REMARK                            x       y       z     vdW  Elec       q    Type
REMARK                         _______ _______ _______ _____ _____    ______ ____
ROOT
ATOM      1  C   UNL     1       1.939   3.625  19.485  0.00  0.00    +0.000 C 
ATOM      2  C   UNL     1       3.111   2.651  19.626  0.00  0.00    +0.000 C 
ATOM      3  C   UNL     1       4.467   3.287  19.320  0.00  0.00    +0.000 C 
ATOM      4  N   UNL     1       4.462   4.114  18.080  0.00  0.00    +0.000 NA
ATOM      5  C   UNL     1       3.285   4.992  17.885  0.00  0.00    +0.000 C 
ATOM      6  C   UNL     1       1.993   4.210  18.072  0.00  0.00    +0.000 C 
ENDROOT
BRANCH   1   8
ATOM      7  O   UNL     1       2.388   4.565  21.685  0.00  0.00    +0.000 OA
ATOM      8  C   UNL     1       1.958   4.732  20.548  0.00  0.00    +0.000 C 
ATOM      9  N   UNL     1       1.470   5.935  20.096  0.00  0.00    +0.000 N 
ATOM     10  H   UNL     1       1.067   6.000  19.172  0.00  0.00    +0.000 HD
BRANCH   9  11
ATOM     11  C   UNL     1       1.540   7.164  20.855  0.00  0.00    +0.000 C 
BRANCH  11  12
ATOM     12  C   UNL     1       1.482   8.325  19.904  0.00  0.00    +0.000 A 
ATOM     13  C   UNL     1       2.007   8.408  18.628  0.00  0.00    +0.000 A 
ATOM     14  C   UNL     1       1.775   9.677  18.019  0.00  0.00    +0.000 A 
ATOM     15  C   UNL     1       1.086  10.527  18.852  0.00  0.00    +0.000 A 
ATOM     16  S   UNL     1       0.734   9.803  20.361  0.00  0.00    +0.000 S 
ENDBRANCH  11  12
ENDBRANCH   9  11
ENDBRANCH   1   8
BRANCH   4  17
ATOM     17  S   UNL     1       5.961   4.920  17.788  0.00  0.00    +0.000 S 
ATOM     18  O   UNL     1       5.732   6.348  17.908  0.00  0.00    +0.000 OA
ATOM     19  O   UNL     1       6.996   4.256  18.545  0.00  0.00    +0.000 OA
BRANCH  17  20
ATOM     20  C   UNL     1       6.357   4.687  16.055  0.00  0.00    +0.000 A 
ATOM     21  C   UNL     1       7.319   5.277  15.248  0.00  0.00    +0.000 A 
ATOM     22  C   UNL     1       7.231   4.849  13.890  0.00  0.00    +0.000 A 
ATOM     23  C   UNL     1       6.223   3.933  13.729  0.00  0.00    +0.000 A 
ATOM     24 BR   UNL     1       5.808   3.135  12.086  0.00  0.00    +0.000 Br
ATOM     25  S   UNL     1       5.390   3.589  15.162  0.00  0.00    +0.000 S 
ENDBRANCH  17  20
ENDBRANCH   4  17
TORSDOF 5
ENDMDL
MODEL 4
REMARK VINA RESULT:      -7.2      0.906      1.014
REMARK  Name = 
REMARK  5 active torsions:
REMARK  status: ('A' for Active; 'I' for Inactive)
REMARK    1  A    between atoms: C_2  and  C_10
REMARK    2  A    between atoms: N_3  and  C_4
REMARK    3  A    between atoms: C_4  and  C_5
REMARK    4  A    between atoms: N_13  and  S_14
REMARK    5  A    between atoms: S_14  and  C_17
REMARK                            x       y       z     vdW  Elec       q    Type
REMARK                         _______ _______ _______ _____ _____    ______ ____
ROOT
ATOM      1  C   UNL     1       7.663   5.600  17.213  0.00  0.00    +0.000 C 
ATOM      2  C   UNL     1       7.037   4.532  16.314  0.00  0.00    +0.000 C 
ATOM      3  C   UNL     1       5.568   4.258  16.635  0.00  0.00    +0.000 C 
ATOM      4  N   UNL     1       5.302   4.108  18.095  0.00  0.00    +0.000 NA
ATOM      5  C   UNL     1       5.982   5.078  18.984  0.00  0.00    +0.000 C 
ATOM      6  C   UNL     1       7.467   5.155  18.663  0.00  0.00    +0.000 C 
ENDROOT
BRANCH   1   8
ATOM      7  O   UNL     1       6.002   7.186  16.409  0.00  0.00    +0.000 OA
ATOM      8  C   UNL     1       7.075   6.996  16.973  0.00  0.00    +0.000 C 
ATOM      9  N   UNL     1       7.853   8.013  17.473  0.00  0.00    +0.000 N 
ATOM     10  H   UNL     1       8.760   7.806  17.869  0.00  0.00    +0.000 HD
BRANCH   9  11
ATOM     11  C   UNL     1       7.433   9.397  17.519  0.00  0.00    +0.000 C 
BRANCH  11  12
ATOM     12  C   UNL     1       8.474  10.196  18.248  0.00  0.00    +0.000 A 
ATOM     13  C   UNL     1       9.244   9.808  19.329  0.00  0.00    +0.000 A 
ATOM     14  C   UNL     1      10.124  10.838  19.776  0.00  0.00    +0.000 A 
ATOM     15  C   UNL     1       9.993  11.984  19.027  0.00  0.00    +0.000 A 
ATOM     16  S   UNL     1       8.810  11.821  17.804  0.00  0.00    +0.000 S 
ENDBRANCH  11  12
ENDBRANCH   9  11
ENDBRANCH   1   8
BRANCH   4  17
ATOM     17  S   UNL     1       3.630   3.904  18.469  0.00  0.00    +0.000 S 
ATOM     18  O   UNL     1       2.945   3.505  17.254  0.00  0.00    +0.000 OA
ATOM     19  O   UNL     1       3.520   3.132  19.685  0.00  0.00    +0.000 OA
BRANCH  17  20
ATOM     20  C   UNL     1       2.966   5.531  18.829  0.00  0.00    +0.000 A 
ATOM     21  C   UNL     1       2.977   6.707  18.094  0.00  0.00    +0.000 A 
ATOM     22  C   UNL     1       2.394   7.799  18.803  0.00  0.00    +0.000 A 
ATOM     23  C   UNL     1       1.942   7.400  20.034  0.00  0.00    +0.000 A 
ATOM     24 BR   UNL     1       1.106   8.553  21.251  0.00  0.00    +0.000 Br
ATOM     25  S   UNL     1       2.207   5.757  20.349  0.00  0.00    +0.000 S 
ENDBRANCH  17  20
ENDBRANCH   4  17
TORSDOF 5
ENDMDL
MODEL 5
REMARK VINA RESULT:      -7.0      4.834      7.022
REMARK  Name = 
REMARK  5 active torsions:
REMARK  status: ('A' for Active; 'I' for Inactive)
REMARK    1  A    between atoms: C_2  and  C_10
REMARK    2  A    between atoms: N_3  and  C_4
REMARK    3  A    between atoms: C_4  and  C_5
REMARK    4  A    between atoms: N_13  and  S_14
REMARK    5  A    between atoms: S_14  and  C_17
REMARK                            x       y       z     vdW  Elec       q    Type
REMARK                         _______ _______ _______ _____ _____    ______ ____
ROOT
ATOM      1  C   UNL     1       1.739   4.152  19.337  0.00  0.00    +0.000 C 
ATOM      2  C   UNL     1       2.771   3.024  19.405  0.00  0.00    +0.000 C 
ATOM      3  C   UNL     1       4.202   3.498  19.154  0.00  0.00    +0.000 C 
ATOM      4  N   UNL     1       4.322   4.411  17.981  0.00  0.00    +0.000 NA
ATOM      5  C   UNL     1       3.272   5.448  17.852  0.00  0.00    +0.000 C 
ATOM      6  C   UNL     1       1.887   4.831  17.975  0.00  0.00    +0.000 C 
ENDROOT
BRANCH   1   8
ATOM      7  O   UNL     1       2.392   4.880  21.566  0.00  0.00    +0.000 OA
ATOM      8  C   UNL     1       1.888   5.161  20.483  0.00  0.00    +0.000 C 
ATOM      9  N   UNL     1       1.427   6.418  20.171  0.00  0.00    +0.000 N 
ATOM     10  H   UNL     1       0.960   6.579  19.289  0.00  0.00    +0.000 HD
BRANCH   9  11
ATOM     11  C   UNL     1       1.611   7.574  21.021  0.00  0.00    +0.000 C 
BRANCH  11  12
ATOM     12  C   UNL     1       1.090   8.788  20.307  0.00  0.00    +0.000 A 
ATOM     13  C   UNL     1       0.203   9.738  20.777  0.00  0.00    +0.000 A 
ATOM     14  C   UNL     1      -0.082  10.750  19.813  0.00  0.00    +0.000 A 
ATOM     15  C   UNL     1       0.590  10.537  18.632  0.00  0.00    +0.000 A 
ATOM     16  S   UNL     1       1.546   9.121  18.684  0.00  0.00    +0.000 S 
ENDBRANCH  11  12
ENDBRANCH   9  11
ENDBRANCH   1   8
BRANCH   4  17
ATOM     17  S   UNL     1       5.917   5.033  17.758  0.00  0.00    +0.000 S 
ATOM     18  O   UNL     1       5.856   6.477  17.880  0.00  0.00    +0.000 OA
ATOM     19  O   UNL     1       6.834   4.247  18.550  0.00  0.00    +0.000 OA
BRANCH  17  20
ATOM     20  C   UNL     1       6.354   4.760  16.040  0.00  0.00    +0.000 A 
ATOM     21  C   UNL     1       7.351   5.313  15.250  0.00  0.00    +0.000 A 
ATOM     22  C   UNL     1       7.289   4.864  13.898  0.00  0.00    +0.000 A 
ATOM     23  C   UNL     1       6.265   3.968  13.724  0.00  0.00    +0.000 A 
ATOM     24 BR   UNL     1       5.875   3.150  12.085  0.00  0.00    +0.000 Br
ATOM     25  S   UNL     1       5.386   3.668  15.141  0.00  0.00    +0.000 S 
ENDBRANCH  17  20
ENDBRANCH   4  17
TORSDOF 5
ENDMDL
MODEL 6
REMARK VINA RESULT:      -6.9      3.445      6.222
REMARK  Name = 
REMARK  5 active torsions:
REMARK  status: ('A' for Active; 'I' for Inactive)
REMARK    1  A    between atoms: C_2  and  C_10
REMARK    2  A    between atoms: N_3  and  C_4
REMARK    3  A    between atoms: C_4  and  C_5
REMARK    4  A    between atoms: N_13  and  S_14
REMARK    5  A    between atoms: S_14  and  C_17
REMARK                            x       y       z     vdW  Elec       q    Type
REMARK                         _______ _______ _______ _____ _____    ______ ____
ROOT
ATOM      1  C   UNL     1       2.657   2.705  20.150  0.00  0.00    +0.000 C 
ATOM      2  C   UNL     1       4.142   2.974  20.404  0.00  0.00    +0.000 C 
ATOM      3  C   UNL     1       4.813   3.764  19.281  0.00  0.00    +0.000 C 
ATOM      4  N   UNL     1       4.473   3.258  17.920  0.00  0.00    +0.000 NA
ATOM      5  C   UNL     1       3.053   2.903  17.693  0.00  0.00    +0.000 C 
ATOM      6  C   UNL     1       2.540   1.995  18.801  0.00  0.00    +0.000 C 
ENDROOT
BRANCH   1   8
ATOM      7  O   UNL     1       0.619   4.010  19.889  0.00  0.00    +0.000 OA
ATOM      8  C   UNL     1       1.810   3.984  20.183  0.00  0.00    +0.000 C 
ATOM      9  N   UNL     1       2.507   5.094  20.600  0.00  0.00    +0.000 N 
ATOM     10  H   UNL     1       3.502   5.031  20.765  0.00  0.00    +0.000 HD
BRANCH   9  11
ATOM     11  C   UNL     1       1.889   6.373  20.872  0.00  0.00    +0.000 C 
BRANCH  11  12
ATOM     12  C   UNL     1       2.068   7.262  19.675  0.00  0.00    +0.000 A 
ATOM     13  C   UNL     1       2.852   7.041  18.559  0.00  0.00    +0.000 A 
ATOM     14  C   UNL     1       2.791   8.115  17.622  0.00  0.00    +0.000 A 
ATOM     15  C   UNL     1       1.967   9.128  18.055  0.00  0.00    +0.000 A 
ATOM     16  S   UNL     1       1.284   8.789  19.586  0.00  0.00    +0.000 S 
ENDBRANCH  11  12
ENDBRANCH   9  11
ENDBRANCH   1   8
BRANCH   4  17
ATOM     17  S   UNL     1       5.144   4.211  16.647  0.00  0.00    +0.000 S 
ATOM     18  O   UNL     1       5.921   3.333  15.792  0.00  0.00    +0.000 OA
ATOM     19  O   UNL     1       4.107   5.061  16.111  0.00  0.00    +0.000 OA
BRANCH  17  20
ATOM     20  C   UNL     1       6.369   5.293  17.386  0.00  0.00    +0.000 A 
ATOM     21  C   UNL     1       7.336   5.056  18.350  0.00  0.00    +0.000 A 
ATOM     22  C   UNL     1       8.054   6.237  18.706  0.00  0.00    +0.000 A 
ATOM     23  C   UNL     1       7.618   7.314  17.978  0.00  0.00    +0.000 A 
ATOM     24 BR   UNL     1       8.329   9.038  18.158  0.00  0.00    +0.000 Br
ATOM     25  S   UNL     1       6.374   6.934  16.893  0.00  0.00    +0.000 S 
ENDBRANCH  17  20
ENDBRANCH   4  17
TORSDOF 5
ENDMDL
MODEL 7
REMARK VINA RESULT:      -6.6      5.138      6.843
REMARK  Name = 
REMARK  5 active torsions:
REMARK  status: ('A' for Active; 'I' for Inactive)
REMARK    1  A    between atoms: C_2  and  C_10
REMARK    2  A    between atoms: N_3  and  C_4
REMARK    3  A    between atoms: C_4  and  C_5
REMARK    4  A    between atoms: N_13  and  S_14
REMARK    5  A    between atoms: S_14  and  C_17
REMARK                            x       y       z     vdW  Elec       q    Type
REMARK                         _______ _______ _______ _____ _____    ______ ____
ROOT
ATOM      1  C   UNL     1       1.903   3.357  19.784  0.00  0.00    +0.000 C 
ATOM      2  C   UNL     1       3.132   2.456  19.924  0.00  0.00    +0.000 C 
ATOM      3  C   UNL     1       4.435   3.144  19.517  0.00  0.00    +0.000 C 
ATOM      4  N   UNL     1       4.329   3.893  18.233  0.00  0.00    +0.000 NA
ATOM      5  C   UNL     1       3.097   4.694  18.045  0.00  0.00    +0.000 C 
ATOM      6  C   UNL     1       1.860   3.858  18.339  0.00  0.00    +0.000 C 
ENDROOT
BRANCH   1   8
ATOM      7  O   UNL     1       2.252   4.408  21.951  0.00  0.00    +0.000 OA
ATOM      8  C   UNL     1       1.908   4.525  20.780  0.00  0.00    +0.000 C 
ATOM      9  N   UNL     1       1.515   5.720  20.225  0.00  0.00    +0.000 N 
ATOM     10  H   UNL     1       1.178   5.748  19.273  0.00  0.00    +0.000 HD
BRANCH   9  11
ATOM     11  C   UNL     1       1.598   6.989  20.914  0.00  0.00    +0.000 C 
BRANCH  11  12
ATOM     12  C   UNL     1       1.546   8.095  19.900  0.00  0.00    +0.000 A 
ATOM     13  C   UNL     1       2.134   8.133  18.650  0.00  0.00    +0.000 A 
ATOM     14  C   UNL     1       1.886   9.358  17.962  0.00  0.00    +0.000 A 
ATOM     15  C   UNL     1       1.122  10.222  18.712  0.00  0.00    +0.000 A 
ATOM     16  S   UNL     1       0.719   9.564  20.238  0.00  0.00    +0.000 S 
ENDBRANCH  11  12
ENDBRANCH   9  11
ENDBRANCH   1   8
BRANCH   4  17
ATOM     17  S   UNL     1       5.766   4.758  17.823  0.00  0.00    +0.000 S 
ATOM     18  O   UNL     1       5.514   6.171  18.036  0.00  0.00    +0.000 OA
ATOM     19  O   UNL     1       6.894   4.093  18.433  0.00  0.00    +0.000 OA
BRANCH  17  20
ATOM     20  C   UNL     1       5.980   4.617  16.048  0.00  0.00    +0.000 A 
ATOM     21  C   UNL     1       5.258   3.919  15.092  0.00  0.00    +0.000 A 
ATOM     22  C   UNL     1       5.833   4.023  13.790  0.00  0.00    +0.000 A 
ATOM     23  C   UNL     1       6.951   4.817  13.809  0.00  0.00    +0.000 A 
ATOM     24 BR   UNL     1       7.973   5.197  12.286  0.00  0.00    +0.000 Br
ATOM     25  S   UNL     1       7.319   5.425  15.346  0.00  0.00    +0.000 S 
ENDBRANCH  17  20
ENDBRANCH   4  17
TORSDOF 5
ENDMDL
MODEL 8
REMARK VINA RESULT:      -6.4      4.575      6.898
REMARK  Name = 
REMARK  5 active torsions:
REMARK  status: ('A' for Active; 'I' for Inactive)
REMARK    1  A    between atoms: C_2  and  C_10
REMARK    2  A    between atoms: N_3  and  C_4
REMARK    3  A    between atoms: C_4  and  C_5
REMARK    4  A    between atoms: N_13  and  S_14
REMARK    5  A    between atoms: S_14  and  C_17
REMARK                            x       y       z     vdW  Elec       q    Type
REMARK                         _______ _______ _______ _____ _____    ______ ____
ROOT
ATOM      1  C   UNL     1       1.005   4.710  20.777  0.00  0.00    +0.000 C 
ATOM      2  C   UNL     1       1.854   3.827  21.694  0.00  0.00    +0.000 C 
ATOM      3  C   UNL     1       3.088   3.248  21.003  0.00  0.00    +0.000 C 
ATOM      4  N   UNL     1       2.797   2.683  19.655  0.00  0.00    +0.000 NA
ATOM      5  C   UNL     1       1.897   3.484  18.792  0.00  0.00    +0.000 C 
ATOM      6  C   UNL     1       0.636   3.877  19.548  0.00  0.00    +0.000 C 
ENDROOT
BRANCH   1   8
ATOM      7  O   UNL     1       2.574   6.064  19.500  0.00  0.00    +0.000 OA
ATOM      8  C   UNL     1       1.718   6.008  20.378  0.00  0.00    +0.000 C 
ATOM      9  N   UNL     1       1.288   7.109  21.080  0.00  0.00    +0.000 N 
ATOM     10  H   UNL     1       0.629   6.997  21.838  0.00  0.00    +0.000 HD
BRANCH   9  11
ATOM     11  C   UNL     1       1.686   8.465  20.769  0.00  0.00    +0.000 C 
BRANCH  11  12
ATOM     12  C   UNL     1       0.668   9.411  21.338  0.00  0.00    +0.000 A 
ATOM     13  C   UNL     1       0.006  10.439  20.694  0.00  0.00    +0.000 A 
ATOM     14  C   UNL     1      -0.884  11.146  21.555  0.00  0.00    +0.000 A 
ATOM     15  C   UNL     1      -0.869  10.640  22.835  0.00  0.00    +0.000 A 
ATOM     16  S   UNL     1       0.221   9.333  22.996  0.00  0.00    +0.000 S 
ENDBRANCH  11  12
ENDBRANCH   9  11
ENDBRANCH   1   8
BRANCH   4  17
ATOM     17  S   UNL     1       4.205   2.124  18.827  0.00  0.00    +0.000 S 
ATOM     18  O   UNL     1       5.214   1.813  19.823  0.00  0.00    +0.000 OA
ATOM     19  O   UNL     1       3.803   1.157  17.833  0.00  0.00    +0.000 OA
BRANCH  17  20
ATOM     20  C   UNL     1       4.888   3.525  17.940  0.00  0.00    +0.000 A 
ATOM     21  C   UNL     1       4.809   3.890  16.604  0.00  0.00    +0.000 A 
ATOM     22  C   UNL     1       5.577   5.054  16.309  0.00  0.00    +0.000 A 
ATOM     23  C   UNL     1       6.186   5.540  17.438  0.00  0.00    +0.000 A 
ATOM     24 BR   UNL     1       7.273   7.066  17.450  0.00  0.00    +0.000 Br
ATOM     25  S   UNL     1       5.857   4.627  18.826  0.00  0.00    +0.000 S 
ENDBRANCH  17  20
ENDBRANCH   4  17
TORSDOF 5
ENDMDL
MODEL 9
REMARK VINA RESULT:      -6.3      5.020      6.829
REMARK  Name = 
REMARK  5 active torsions:
REMARK  status: ('A' for Active; 'I' for Inactive)
REMARK    1  A    between atoms: C_2  and  C_10
REMARK    2  A    between atoms: N_3  and  C_4
REMARK    3  A    between atoms: C_4  and  C_5
REMARK    4  A    between atoms: N_13  and  S_14
REMARK    5  A    between atoms: S_14  and  C_17
REMARK                            x       y       z     vdW  Elec       q    Type
REMARK                         _______ _______ _______ _____ _____    ______ ____
ROOT
ATOM      1  C   UNL     1       3.301   3.080  19.245  0.00  0.00    +0.000 C 
ATOM      2  C   UNL     1       4.717   3.435  19.706  0.00  0.00    +0.000 C 
ATOM      3  C   UNL     1       5.365   4.540  18.872  0.00  0.00    +0.000 C 
ATOM      4  N   UNL     1       5.195   4.346  17.403  0.00  0.00    +0.000 NA
ATOM      5  C   UNL     1       3.853   3.908  16.954  0.00  0.00    +0.000 C 
ATOM      6  C   UNL     1       3.378   2.710  17.763  0.00  0.00    +0.000 C 
ENDROOT
BRANCH   1   8
ATOM      7  O   UNL     1       1.139   4.186  19.085  0.00  0.00    +0.000 OA
ATOM      8  C   UNL     1       2.298   4.216  19.486  0.00  0.00    +0.000 C 
ATOM      9  N   UNL     1       2.815   5.260  20.216  0.00  0.00    +0.000 N 
ATOM     10  H   UNL     1       3.795   5.265  20.464  0.00  0.00    +0.000 HD
BRANCH   9  11
ATOM     11  C   UNL     1       2.021   6.362  20.712  0.00  0.00    +0.000 C 
BRANCH  11  12
ATOM     12  C   UNL     1       1.991   7.445  19.671  0.00  0.00    +0.000 A 
ATOM     13  C   UNL     1       2.574   7.438  18.418  0.00  0.00    +0.000 A 
ATOM     14  C   UNL     1       2.353   8.651  17.701  0.00  0.00    +0.000 A 
ATOM     15  C   UNL     1       1.613   9.551  18.433  0.00  0.00    +0.000 A 
ATOM     16  S   UNL     1       1.202   8.940  19.976  0.00  0.00    +0.000 S 
ENDBRANCH  11  12
ENDBRANCH   9  11
ENDBRANCH   1   8
BRANCH   4  17
ATOM     17  S   UNL     1       5.833   5.645  16.463  0.00  0.00    +0.000 S 
ATOM     18  O   UNL     1       4.738   6.538  16.133  0.00  0.00    +0.000 OA
ATOM     19  O   UNL     1       7.035   6.128  17.099  0.00  0.00    +0.000 OA
BRANCH  17  20
ATOM     20  C   UNL     1       6.325   4.959  14.880  0.00  0.00    +0.000 A 
ATOM     21  C   UNL     1       7.331   5.323  13.998  0.00  0.00    +0.000 A 
ATOM     22  C   UNL     1       7.318   4.544  12.803  0.00  0.00    +0.000 A 
ATOM     23  C   UNL     1       6.321   3.604  12.841  0.00  0.00    +0.000 A 
ATOM     24 BR   UNL     1       5.997   2.385  11.455  0.00  0.00    +0.000 Br
ATOM     25  S   UNL     1       5.409   3.646  14.267  0.00  0.00    +0.000 S 
ENDBRANCH  17  20
ENDBRANCH   4  17
TORSDOF 5
ENDMDL
