MODEL 1
REMARK VINA RESULT:      -6.8      0.000      0.000
REMARK  Name = 
REMARK  7 active torsions:
REMARK  status: ('A' for Active; 'I' for Inactive)
REMARK    1  A    between atoms: C_2  and  C_16
REMARK    2  A    between atoms: N_3  and  C_4
REMARK    3  A    between atoms: C_4  and  N_6
REMARK    4  A    between atoms: N_6  and  C_7
REMARK    5  A    between atoms: C_7  and  C_8
REMARK    6  A    between atoms: C_8  and  S_9
REMARK    7  A    between atoms: S_9  and  C_10
REMARK                            x       y       z     vdW  Elec       q    Type
REMARK                         _______ _______ _______ _____ _____    ______ ____
ROOT
ATOM      1  C   UNL     1       7.422   6.893  17.540  0.00  0.00    +0.000 C 
ATOM      2  S   UNL     1       7.736   8.530  17.662  0.00  0.00    +0.000 S 
ENDROOT
BRANCH   1   5
ATOM      3  O   UNL     1       7.915   4.130  16.666  0.00  0.00    +0.000 OA
ATOM      4  C   UNL     1       7.513   5.015  15.912  0.00  0.00    +0.000 C 
ATOM      5  N   UNL     1       7.371   6.347  16.277  0.00  0.00    +0.000 N 
ATOM      6  H   UNL     1       7.003   6.999  15.598  0.00  0.00    +0.000 HD
BRANCH   4   7
ATOM      7  C   UNL     1       7.140   4.682  14.521  0.00  0.00    +0.000 A 
ATOM      8  C   UNL     1       7.822   5.169  13.404  0.00  0.00    +0.000 A 
ATOM      9  C   UNL     1       7.378   4.818  12.131  0.00  0.00    +0.000 A 
ATOM     10  C   UNL     1       6.271   3.990  12.020  0.00  0.00    +0.000 A 
ATOM     11  N   UNL     1       5.597   3.496  13.082  0.00  0.00    +0.000 NA
ATOM     12  C   UNL     1       6.052   3.844  14.310  0.00  0.00    +0.000 A 
ENDBRANCH   4   7
ENDBRANCH   1   5
BRANCH   1  13
ATOM     13  N   UNL     1       7.146   6.042  18.570  0.00  0.00    +0.000 N 
ATOM     14  H   UNL     1       7.955   5.600  19.007  0.00  0.00    +0.000 HD
BRANCH  13  15
ATOM     15  C   UNL     1       5.825   5.756  19.119  0.00  0.00    +0.000 C 
BRANCH  15  16
ATOM     16  C   UNL     1       4.773   5.543  18.027  0.00  0.00    +0.000 C 
BRANCH  16  17
ATOM     17  S   UNL     1       3.186   6.215  18.636  0.00  0.00    +0.000 S 
BRANCH  17  18
ATOM     18  C   UNL     1       2.362   4.791  19.321  0.00  0.00    +0.000 A 
ATOM     19  C   UNL     1       2.429   4.633  20.712  0.00  0.00    +0.000 A 
ATOM     20  C   UNL     1       1.770   3.579  21.348  0.00  0.00    +0.000 A 
ATOM     21  C   UNL     1       1.028   2.672  20.598  0.00  0.00    +0.000 A 
ATOM     22  C   UNL     1       0.944   2.824  19.215  0.00  0.00    +0.000 A 
ATOM     23  C   UNL     1       1.604   3.880  18.578  0.00  0.00    +0.000 A 
ENDBRANCH  17  18
ENDBRANCH  16  17
ENDBRANCH  15  16
ENDBRANCH  13  15
ENDBRANCH   1  13
TORSDOF 7
ENDMDL
MODEL 2
REMARK VINA RESULT:      -6.7      3.629      7.024
REMARK  Name = 
REMARK  7 active torsions:
REMARK  status: ('A' for Active; 'I' for Inactive)
REMARK    1  A    between atoms: C_2  and  C_16
REMARK    2  A    between atoms: N_3  and  C_4
REMARK    3  A    between atoms: C_4  and  N_6
REMARK    4  A    between atoms: N_6  and  C_7
REMARK    5  A    between atoms: C_7  and  C_8
REMARK    6  A    between atoms: C_8  and  S_9
REMARK    7  A    between atoms: S_9  and  C_10
REMARK                            x       y       z     vdW  Elec       q    Type
REMARK                         _______ _______ _______ _____ _____    ______ ____
ROOT
ATOM      1  C   UNL     1       2.458   3.650  19.556  0.00  0.00    +0.000 C 
ATOM      2  S   UNL     1       2.556   2.887  21.040  0.00  0.00    +0.000 S 
ENDROOT
BRANCH   1   5
ATOM      3  O   UNL     1       4.244   5.984  19.601  0.00  0.00    +0.000 OA
ATOM      4  C   UNL     1       3.023   6.070  19.472  0.00  0.00    +0.000 C 
ATOM      5  N   UNL     1       2.152   4.992  19.550  0.00  0.00    +0.000 N 
ATOM      6  H   UNL     1       1.167   5.154  19.398  0.00  0.00    +0.000 HD
BRANCH   4   7
ATOM      7  C   UNL     1       2.404   7.386  19.207  0.00  0.00    +0.000 A 
ATOM      8  C   UNL     1       1.649   8.083  20.152  0.00  0.00    +0.000 A 
ATOM      9  C   UNL     1       1.083   9.307  19.801  0.00  0.00    +0.000 A 
ATOM     10  C   UNL     1       1.295   9.791  18.518  0.00  0.00    +0.000 A 
ATOM     11  N   UNL     1       2.029   9.144  17.587  0.00  0.00    +0.000 NA
ATOM     12  C   UNL     1       2.576   7.959  17.954  0.00  0.00    +0.000 A 
ENDBRANCH   4   7
ENDBRANCH   1   5
BRANCH   1  13
ATOM     13  N   UNL     1       2.588   3.061  18.332  0.00  0.00    +0.000 N 
ATOM     14  H   UNL     1       1.720   2.743  17.900  0.00  0.00    +0.000 HD
BRANCH  13  15
ATOM     15  C   UNL     1       3.830   2.897  17.585  0.00  0.00    +0.000 C 
BRANCH  15  16
ATOM     16  C   UNL     1       4.101   4.070  16.638  0.00  0.00    +0.000 C 
BRANCH  16  17
ATOM     17  S   UNL     1       5.816   3.916  16.028  0.00  0.00    +0.000 S 
BRANCH  17  18
ATOM     18  C   UNL     1       6.728   5.068  17.040  0.00  0.00    +0.000 A 
ATOM     19  C   UNL     1       6.777   6.395  16.593  0.00  0.00    +0.000 A 
ATOM     20  C   UNL     1       7.422   7.381  17.343  0.00  0.00    +0.000 A 
ATOM     21  C   UNL     1       8.018   7.050  18.556  0.00  0.00    +0.000 A 
ATOM     22  C   UNL     1       7.966   5.735  19.017  0.00  0.00    +0.000 A 
ATOM     23  C   UNL     1       7.321   4.748  18.265  0.00  0.00    +0.000 A 
ENDBRANCH  17  18
ENDBRANCH  16  17
ENDBRANCH  15  16
ENDBRANCH  13  15
ENDBRANCH   1  13
TORSDOF 7
ENDMDL
MODEL 3
REMARK VINA RESULT:      -6.7      2.995      4.454
REMARK  Name = 
REMARK  7 active torsions:
REMARK  status: ('A' for Active; 'I' for Inactive)
REMARK    1  A    between atoms: C_2  and  C_16
REMARK    2  A    between atoms: N_3  and  C_4
REMARK    3  A    between atoms: C_4  and  N_6
REMARK    4  A    between atoms: N_6  and  C_7
REMARK    5  A    between atoms: C_7  and  C_8
REMARK    6  A    between atoms: C_8  and  S_9
REMARK    7  A    between atoms: S_9  and  C_10
REMARK                            x       y       z     vdW  Elec       q    Type
REMARK                         _______ _______ _______ _____ _____    ______ ____
ROOT
ATOM      1  C   UNL     1       3.030   3.005  17.935  0.00  0.00    +0.000 C 
ATOM      2  S   UNL     1       3.474   1.542  18.609  0.00  0.00    +0.000 S 
ENDROOT
BRANCH   1   5
ATOM      3  O   UNL     1       5.177   5.011  18.027  0.00  0.00    +0.000 OA
ATOM      4  C   UNL     1       4.888   4.377  17.013  0.00  0.00    +0.000 C 
ATOM      5  N   UNL     1       3.815   3.501  16.919  0.00  0.00    +0.000 N 
ATOM      6  H   UNL     1       3.674   3.000  16.053  0.00  0.00    +0.000 HD
BRANCH   4   7
ATOM      7  C   UNL     1       5.714   4.522  15.796  0.00  0.00    +0.000 A 
ATOM      8  C   UNL     1       5.402   3.913  14.579  0.00  0.00    +0.000 A 
ATOM      9  C   UNL     1       6.257   4.088  13.492  0.00  0.00    +0.000 A 
ATOM     10  C   UNL     1       7.392   4.869  13.661  0.00  0.00    +0.000 A 
ATOM     11  N   UNL     1       7.714   5.478  14.824  0.00  0.00    +0.000 NA
ATOM     12  C   UNL     1       6.863   5.300  15.863  0.00  0.00    +0.000 A 
ENDBRANCH   4   7
ENDBRANCH   1   5
BRANCH   1  13
ATOM     13  N   UNL     1       1.995   3.800  18.333  0.00  0.00    +0.000 N 
ATOM     14  H   UNL     1       1.833   4.632  17.764  0.00  0.00    +0.000 HD
BRANCH  13  15
ATOM     15  C   UNL     1       1.089   3.539  19.445  0.00  0.00    +0.000 C 
BRANCH  15  16
ATOM     16  C   UNL     1       1.191   4.602  20.543  0.00  0.00    +0.000 C 
BRANCH  16  17
ATOM     17  S   UNL     1       2.752   5.518  20.295  0.00  0.00    +0.000 S 
BRANCH  17  18
ATOM     18  C   UNL     1       2.227   7.052  19.553  0.00  0.00    +0.000 A 
ATOM     19  C   UNL     1       1.558   7.958  20.388  0.00  0.00    +0.000 A 
ATOM     20  C   UNL     1       1.154   9.207  19.913  0.00  0.00    +0.000 A 
ATOM     21  C   UNL     1       1.424   9.569  18.597  0.00  0.00    +0.000 A 
ATOM     22  C   UNL     1       2.099   8.681  17.760  0.00  0.00    +0.000 A 
ATOM     23  C   UNL     1       2.503   7.430  18.235  0.00  0.00    +0.000 A 
ENDBRANCH  17  18
ENDBRANCH  16  17
ENDBRANCH  15  16
ENDBRANCH  13  15
ENDBRANCH   1  13
TORSDOF 7
ENDMDL
MODEL 4
REMARK VINA RESULT:      -6.6      2.593      3.834
REMARK  Name = 
REMARK  7 active torsions:
REMARK  status: ('A' for Active; 'I' for Inactive)
REMARK    1  A    between atoms: C_2  and  C_16
REMARK    2  A    between atoms: N_3  and  C_4
REMARK    3  A    between atoms: C_4  and  N_6
REMARK    4  A    between atoms: N_6  and  C_7
REMARK    5  A    between atoms: C_7  and  C_8
REMARK    6  A    between atoms: C_8  and  S_9
REMARK    7  A    between atoms: S_9  and  C_10
REMARK                            x       y       z     vdW  Elec       q    Type
REMARK                         _______ _______ _______ _____ _____    ______ ____
ROOT
ATOM      1  C   UNL     1       2.596   7.582  18.174  0.00  0.00    +0.000 C 
ATOM      2  S   UNL     1       2.161   9.173  17.908  0.00  0.00    +0.000 S 
ENDROOT
BRANCH   1   5
ATOM      3  O   UNL     1       4.646   5.611  18.921  0.00  0.00    +0.000 OA
ATOM      4  C   UNL     1       4.534   6.072  17.785  0.00  0.00    +0.000 C 
ATOM      5  N   UNL     1       3.642   7.077  17.434  0.00  0.00    +0.000 N 
ATOM      6  H   UNL     1       3.598   7.369  16.468  0.00  0.00    +0.000 HD
BRANCH   4   7
ATOM      7  C   UNL     1       5.378   5.546  16.692  0.00  0.00    +0.000 A 
ATOM      8  C   UNL     1       4.965   4.537  15.820  0.00  0.00    +0.000 A 
ATOM      9  C   UNL     1       5.843   4.089  14.835  0.00  0.00    +0.000 A 
ATOM     10  C   UNL     1       7.101   4.668  14.755  0.00  0.00    +0.000 A 
ATOM     11  N   UNL     1       7.525   5.652  15.579  0.00  0.00    +0.000 NA
ATOM     12  C   UNL     1       6.651   6.077  16.523  0.00  0.00    +0.000 A 
ENDBRANCH   4   7
ENDBRANCH   1   5
BRANCH   1  13
ATOM     13  N   UNL     1       1.976   6.701  19.011  0.00  0.00    +0.000 N 
ATOM     14  H   UNL     1       1.619   5.851  18.573  0.00  0.00    +0.000 HD
BRANCH  13  15
ATOM     15  C   UNL     1       1.829   6.845  20.455  0.00  0.00    +0.000 C 
BRANCH  15  16
ATOM     16  C   UNL     1       2.040   5.523  21.198  0.00  0.00    +0.000 C 
BRANCH  16  17
ATOM     17  S   UNL     1       0.950   4.269  20.438  0.00  0.00    +0.000 S 
BRANCH  17  18
ATOM     18  C   UNL     1       2.079   3.206  19.559  0.00  0.00    +0.000 A 
ATOM     19  C   UNL     1       1.792   2.960  18.210  0.00  0.00    +0.000 A 
ATOM     20  C   UNL     1       2.645   2.183  17.424  0.00  0.00    +0.000 A 
ATOM     21  C   UNL     1       3.804   1.648  17.979  0.00  0.00    +0.000 A 
ATOM     22  C   UNL     1       4.107   1.895  19.318  0.00  0.00    +0.000 A 
ATOM     23  C   UNL     1       3.251   2.673  20.105  0.00  0.00    +0.000 A 
ENDBRANCH  17  18
ENDBRANCH  16  17
ENDBRANCH  15  16
ENDBRANCH  13  15
ENDBRANCH   1  13
TORSDOF 7
ENDMDL
MODEL 5
REMARK VINA RESULT:      -6.6      2.181      2.903
REMARK  Name = 
REMARK  7 active torsions:
REMARK  status: ('A' for Active; 'I' for Inactive)
REMARK    1  A    between atoms: C_2  and  C_16
REMARK    2  A    between atoms: N_3  and  C_4
REMARK    3  A    between atoms: C_4  and  N_6
REMARK    4  A    between atoms: N_6  and  C_7
REMARK    5  A    between atoms: C_7  and  C_8
REMARK    6  A    between atoms: C_8  and  S_9
REMARK    7  A    between atoms: S_9  and  C_10
REMARK                            x       y       z     vdW  Elec       q    Type
REMARK                         _______ _______ _______ _____ _____    ______ ____
ROOT
ATOM      1  C   UNL     1       5.541   3.923  18.219  0.00  0.00    +0.000 C 
ATOM      2  S   UNL     1       5.988   5.318  19.022  0.00  0.00    +0.000 S 
ENDROOT
BRANCH   1   5
ATOM      3  O   UNL     1       4.917   5.879  16.115  0.00  0.00    +0.000 OA
ATOM      4  C   UNL     1       5.560   4.850  15.910  0.00  0.00    +0.000 C 
ATOM      5  N   UNL     1       5.779   3.864  16.864  0.00  0.00    +0.000 N 
ATOM      6  H   UNL     1       6.348   3.068  16.615  0.00  0.00    +0.000 HD
BRANCH   4   7
ATOM      7  C   UNL     1       6.162   4.611  14.582  0.00  0.00    +0.000 A 
ATOM      8  C   UNL     1       7.317   5.256  14.135  0.00  0.00    +0.000 A 
ATOM      9  C   UNL     1       7.795   4.983  12.855  0.00  0.00    +0.000 A 
ATOM     10  C   UNL     1       7.104   4.072  12.070  0.00  0.00    +0.000 A 
ATOM     11  N   UNL     1       5.990   3.425  12.479  0.00  0.00    +0.000 NA
ATOM     12  C   UNL     1       5.548   3.701  13.730  0.00  0.00    +0.000 A 
ENDBRANCH   4   7
ENDBRANCH   1   5
BRANCH   1  13
ATOM     13  N   UNL     1       4.900   2.846  18.760  0.00  0.00    +0.000 N 
ATOM     14  H   UNL     1       5.195   2.584  19.701  0.00  0.00    +0.000 HD
BRANCH  13  15
ATOM     15  C   UNL     1       3.819   2.089  18.140  0.00  0.00    +0.000 C 
BRANCH  15  16
ATOM     16  C   UNL     1       2.697   1.757  19.128  0.00  0.00    +0.000 C 
BRANCH  16  17
ATOM     17  S   UNL     1       1.203   2.672  18.610  0.00  0.00    +0.000 S 
BRANCH  17  18
ATOM     18  C   UNL     1       1.611   4.374  18.951  0.00  0.00    +0.000 A 
ATOM     19  C   UNL     1       1.525   4.786  20.287  0.00  0.00    +0.000 A 
ATOM     20  C   UNL     1       1.875   6.085  20.662  0.00  0.00    +0.000 A 
ATOM     21  C   UNL     1       2.326   6.986  19.701  0.00  0.00    +0.000 A 
ATOM     22  C   UNL     1       2.427   6.584  18.370  0.00  0.00    +0.000 A 
ATOM     23  C   UNL     1       2.075   5.283  17.995  0.00  0.00    +0.000 A 
ENDBRANCH  17  18
ENDBRANCH  16  17
ENDBRANCH  15  16
ENDBRANCH  13  15
ENDBRANCH   1  13
TORSDOF 7
ENDMDL
MODEL 6
REMARK VINA RESULT:      -6.6      3.133      4.644
REMARK  Name = 
REMARK  7 active torsions:
REMARK  status: ('A' for Active; 'I' for Inactive)
REMARK    1  A    between atoms: C_2  and  C_16
REMARK    2  A    between atoms: N_3  and  C_4
REMARK    3  A    between atoms: C_4  and  N_6
REMARK    4  A    between atoms: N_6  and  C_7
REMARK    5  A    between atoms: C_7  and  C_8
REMARK    6  A    between atoms: C_8  and  S_9
REMARK    7  A    between atoms: S_9  and  C_10
REMARK                            x       y       z     vdW  Elec       q    Type
REMARK                         _______ _______ _______ _____ _____    ______ ____
ROOT
ATOM      1  C   UNL     1       3.837   2.234  19.033  0.00  0.00    +0.000 C 
ATOM      2  S   UNL     1       4.708   1.878  20.413  0.00  0.00    +0.000 S 
ENDROOT
BRANCH   1   5
ATOM      3  O   UNL     1       3.065   4.235  17.022  0.00  0.00    +0.000 OA
ATOM      4  C   UNL     1       4.181   3.718  17.067  0.00  0.00    +0.000 C 
ATOM      5  N   UNL     1       4.535   2.699  17.942  0.00  0.00    +0.000 N 
ATOM      6  H   UNL     1       5.486   2.359  17.928  0.00  0.00    +0.000 HD
BRANCH   4   7
ATOM      7  C   UNL     1       5.245   4.188  16.155  0.00  0.00    +0.000 A 
ATOM      8  C   UNL     1       5.327   3.812  14.813  0.00  0.00    +0.000 A 
ATOM      9  C   UNL     1       6.383   4.288  14.038  0.00  0.00    +0.000 A 
ATOM     10  C   UNL     1       7.317   5.124  14.632  0.00  0.00    +0.000 A 
ATOM     11  N   UNL     1       7.257   5.512  15.925  0.00  0.00    +0.000 NA
ATOM     12  C   UNL     1       6.217   5.044  16.656  0.00  0.00    +0.000 A 
ENDBRANCH   4   7
ENDBRANCH   1   5
BRANCH   1  13
ATOM     13  N   UNL     1       2.481   2.170  18.891  0.00  0.00    +0.000 N 
ATOM     14  H   UNL     1       2.147   1.782  18.007  0.00  0.00    +0.000 HD
BRANCH  13  15
ATOM     15  C   UNL     1       1.492   2.552  19.892  0.00  0.00    +0.000 C 
BRANCH  15  16
ATOM     16  C   UNL     1       1.070   4.018  19.766  0.00  0.00    +0.000 C 
BRANCH  16  17
ATOM     17  S   UNL     1       2.225   5.025  20.761  0.00  0.00    +0.000 S 
BRANCH  17  18
ATOM     18  C   UNL     1       1.975   6.681  20.150  0.00  0.00    +0.000 A 
ATOM     19  C   UNL     1       2.420   6.944  18.847  0.00  0.00    +0.000 A 
ATOM     20  C   UNL     1       2.222   8.195  18.260  0.00  0.00    +0.000 A 
ATOM     21  C   UNL     1       1.567   9.198  18.969  0.00  0.00    +0.000 A 
ATOM     22  C   UNL     1       1.110   8.945  20.262  0.00  0.00    +0.000 A 
ATOM     23  C   UNL     1       1.309   7.691  20.849  0.00  0.00    +0.000 A 
ENDBRANCH  17  18
ENDBRANCH  16  17
ENDBRANCH  15  16
ENDBRANCH  13  15
ENDBRANCH   1  13
TORSDOF 7
ENDMDL
MODEL 7
REMARK VINA RESULT:      -6.6      0.540      1.152
REMARK  Name = 
REMARK  7 active torsions:
REMARK  status: ('A' for Active; 'I' for Inactive)
REMARK    1  A    between atoms: C_2  and  C_16
REMARK    2  A    between atoms: N_3  and  C_4
REMARK    3  A    between atoms: C_4  and  N_6
REMARK    4  A    between atoms: N_6  and  C_7
REMARK    5  A    between atoms: C_7  and  C_8
REMARK    6  A    between atoms: C_8  and  S_9
REMARK    7  A    between atoms: S_9  and  C_10
REMARK                            x       y       z     vdW  Elec       q    Type
REMARK                         _______ _______ _______ _____ _____    ______ ____
ROOT
ATOM      1  C   UNL     1       7.340   6.863  17.564  0.00  0.00    +0.000 C 
ATOM      2  S   UNL     1       7.788   8.468  17.700  0.00  0.00    +0.000 S 
ENDROOT
BRANCH   1   5
ATOM      3  O   UNL     1       8.046   4.163  16.640  0.00  0.00    +0.000 OA
ATOM      4  C   UNL     1       7.531   5.012  15.914  0.00  0.00    +0.000 C 
ATOM      5  N   UNL     1       7.284   6.323  16.299  0.00  0.00    +0.000 N 
ATOM      6  H   UNL     1       6.826   6.942  15.644  0.00  0.00    +0.000 HD
BRANCH   4   7
ATOM      7  C   UNL     1       7.128   4.655  14.538  0.00  0.00    +0.000 A 
ATOM      8  C   UNL     1       7.818   5.080  13.400  0.00  0.00    +0.000 A 
ATOM      9  C   UNL     1       7.345   4.711  12.142  0.00  0.00    +0.000 A 
ATOM     10  C   UNL     1       6.203   3.929  12.067  0.00  0.00    +0.000 A 
ATOM     11  N   UNL     1       5.521   3.494  13.150  0.00  0.00    +0.000 NA
ATOM     12  C   UNL     1       6.004   3.859  14.362  0.00  0.00    +0.000 A 
ENDBRANCH   4   7
ENDBRANCH   1   5
BRANCH   1  13
ATOM     13  N   UNL     1       6.960   6.039  18.583  0.00  0.00    +0.000 N 
ATOM     14  H   UNL     1       7.644   5.916  19.330  0.00  0.00    +0.000 HD
BRANCH  13  15
ATOM     15  C   UNL     1       5.668   5.374  18.715  0.00  0.00    +0.000 C 
BRANCH  15  16
ATOM     16  C   UNL     1       4.546   6.348  19.086  0.00  0.00    +0.000 C 
BRANCH  16  17
ATOM     17  S   UNL     1       3.151   6.060  17.942  0.00  0.00    +0.000 S 
BRANCH  17  18
ATOM     18  C   UNL     1       2.179   4.815  18.768  0.00  0.00    +0.000 A 
ATOM     19  C   UNL     1       1.795   3.706  18.002  0.00  0.00    +0.000 A 
ATOM     20  C   UNL     1       1.078   2.653  18.573  0.00  0.00    +0.000 A 
ATOM     21  C   UNL     1       0.742   2.694  19.923  0.00  0.00    +0.000 A 
ATOM     22  C   UNL     1       1.128   3.787  20.699  0.00  0.00    +0.000 A 
ATOM     23  C   UNL     1       1.846   4.841  20.126  0.00  0.00    +0.000 A 
ENDBRANCH  17  18
ENDBRANCH  16  17
ENDBRANCH  15  16
ENDBRANCH  13  15
ENDBRANCH   1  13
TORSDOF 7
ENDMDL
MODEL 8
REMARK VINA RESULT:      -6.6      2.749      3.388
REMARK  Name = 
REMARK  7 active torsions:
REMARK  status: ('A' for Active; 'I' for Inactive)
REMARK    1  A    between atoms: C_2  and  C_16
REMARK    2  A    between atoms: N_3  and  C_4
REMARK    3  A    between atoms: C_4  and  N_6
REMARK    4  A    between atoms: N_6  and  C_7
REMARK    5  A    between atoms: C_7  and  C_8
REMARK    6  A    between atoms: C_8  and  S_9
REMARK    7  A    between atoms: S_9  and  C_10
REMARK                            x       y       z     vdW  Elec       q    Type
REMARK                         _______ _______ _______ _____ _____    ______ ____
ROOT
ATOM      1  C   UNL     1       6.702   4.705  18.117  0.00  0.00    +0.000 C 
ATOM      2  S   UNL     1       7.590   6.055  18.543  0.00  0.00    +0.000 S 
ENDROOT
BRANCH   1   5
ATOM      3  O   UNL     1       5.014   5.805  15.976  0.00  0.00    +0.000 OA
ATOM      4  C   UNL     1       5.908   4.983  15.776  0.00  0.00    +0.000 C 
ATOM      5  N   UNL     1       6.648   4.375  16.781  0.00  0.00    +0.000 N 
ATOM      6  H   UNL     1       7.385   3.736  16.520  0.00  0.00    +0.000 HD
BRANCH   4   7
ATOM      7  C   UNL     1       6.254   4.596  14.393  0.00  0.00    +0.000 A 
ATOM      8  C   UNL     1       5.521   3.669  13.648  0.00  0.00    +0.000 A 
ATOM      9  C   UNL     1       5.941   3.349  12.358  0.00  0.00    +0.000 A 
ATOM     10  C   UNL     1       7.076   3.970  11.858  0.00  0.00    +0.000 A 
ATOM     11  N   UNL     1       7.799   4.878  12.551  0.00  0.00    +0.000 NA
ATOM     12  C   UNL     1       7.367   5.179  13.800  0.00  0.00    +0.000 A 
ENDBRANCH   4   7
ENDBRANCH   1   5
BRANCH   1  13
ATOM     13  N   UNL     1       5.964   3.922  18.956  0.00  0.00    +0.000 N 
ATOM     14  H   UNL     1       6.476   3.175  19.427  0.00  0.00    +0.000 HD
BRANCH  13  15
ATOM     15  C   UNL     1       4.550   4.090  19.268  0.00  0.00    +0.000 C 
BRANCH  15  16
ATOM     16  C   UNL     1       4.111   5.556  19.218  0.00  0.00    +0.000 C 
BRANCH  16  17
ATOM     17  S   UNL     1       2.522   5.699  20.109  0.00  0.00    +0.000 S 
BRANCH  17  18
ATOM     18  C   UNL     1       1.954   7.338  19.696  0.00  0.00    +0.000 A 
ATOM     19  C   UNL     1       1.302   8.052  20.710  0.00  0.00    +0.000 A 
ATOM     20  C   UNL     1       0.867   9.362  20.500  0.00  0.00    +0.000 A 
ATOM     21  C   UNL     1       1.088   9.977  19.271  0.00  0.00    +0.000 A 
ATOM     22  C   UNL     1       1.746   9.281  18.258  0.00  0.00    +0.000 A 
ATOM     23  C   UNL     1       2.180   7.969  18.468  0.00  0.00    +0.000 A 
ENDBRANCH  17  18
ENDBRANCH  16  17
ENDBRANCH  15  16
ENDBRANCH  13  15
ENDBRANCH   1  13
TORSDOF 7
ENDMDL
MODEL 9
REMARK VINA RESULT:      -6.5      2.140      2.716
REMARK  Name = 
REMARK  7 active torsions:
REMARK  status: ('A' for Active; 'I' for Inactive)
REMARK    1  A    between atoms: C_2  and  C_16
REMARK    2  A    between atoms: N_3  and  C_4
REMARK    3  A    between atoms: C_4  and  N_6
REMARK    4  A    between atoms: N_6  and  C_7
REMARK    5  A    between atoms: C_7  and  C_8
REMARK    6  A    between atoms: C_8  and  S_9
REMARK    7  A    between atoms: S_9  and  C_10
REMARK                            x       y       z     vdW  Elec       q    Type
REMARK                         _______ _______ _______ _____ _____    ______ ____
ROOT
ATOM      1  C   UNL     1       4.386   4.084  17.519  0.00  0.00    +0.000 C 
ATOM      2  S   UNL     1       3.893   2.526  17.872  0.00  0.00    +0.000 S 
ENDROOT
BRANCH   1   5
ATOM      3  O   UNL     1       7.155   4.717  16.762  0.00  0.00    +0.000 OA
ATOM      4  C   UNL     1       6.261   4.513  15.942  0.00  0.00    +0.000 C 
ATOM      5  N   UNL     1       4.927   4.314  16.275  0.00  0.00    +0.000 N 
ATOM      6  H   UNL     1       4.267   4.121  15.534  0.00  0.00    +0.000 HD
BRANCH   4   7
ATOM      7  C   UNL     1       6.583   4.462  14.501  0.00  0.00    +0.000 A 
ATOM      8  C   UNL     1       5.988   3.564  13.612  0.00  0.00    +0.000 A 
ATOM      9  C   UNL     1       6.376   3.574  12.274  0.00  0.00    +0.000 A 
ATOM     10  C   UNL     1       7.343   4.485  11.872  0.00  0.00    +0.000 A 
ATOM     11  N   UNL     1       7.928   5.372  12.707  0.00  0.00    +0.000 NA
ATOM     12  C   UNL     1       7.529   5.348  14.001  0.00  0.00    +0.000 A 
ENDBRANCH   4   7
ENDBRANCH   1   5
BRANCH   1  13
ATOM     13  N   UNL     1       4.365   5.152  18.368  0.00  0.00    +0.000 N 
ATOM     14  H   UNL     1       4.675   4.964  19.322  0.00  0.00    +0.000 HD
BRANCH  13  15
ATOM     15  C   UNL     1       3.994   6.519  18.021  0.00  0.00    +0.000 C 
BRANCH  15  16
ATOM     16  C   UNL     1       2.505   6.795  18.246  0.00  0.00    +0.000 C 
BRANCH  16  17
ATOM     17  S   UNL     1       2.201   6.811  20.048  0.00  0.00    +0.000 S 
BRANCH  17  18
ATOM     18  C   UNL     1       1.885   5.100  20.437  0.00  0.00    +0.000 A 
ATOM     19  C   UNL     1       1.039   4.402  19.564  0.00  0.00    +0.000 A 
ATOM     20  C   UNL     1       0.773   3.045  19.755  0.00  0.00    +0.000 A 
ATOM     21  C   UNL     1       1.359   2.366  20.820  0.00  0.00    +0.000 A 
ATOM     22  C   UNL     1       2.211   3.047  21.688  0.00  0.00    +0.000 A 
ATOM     23  C   UNL     1       2.477   4.407  21.497  0.00  0.00    +0.000 A 
ENDBRANCH  17  18
ENDBRANCH  16  17
ENDBRANCH  15  16
ENDBRANCH  13  15
ENDBRANCH   1  13
TORSDOF 7
ENDMDL
