MODEL 1
REMARK VINA RESULT:      -8.7      0.000      0.000
REMARK  Name = 
REMARK  9 active torsions:
REMARK  status: ('A' for Active; 'I' for Inactive)
REMARK    1  A    between atoms: C_1  and  C_2
REMARK    2  A    between atoms: C_2  and  C_3
REMARK    3  A    between atoms: C_3  and  C_4
REMARK    4  A    between atoms: C_4  and  C_5
REMARK    5  A    between atoms: C_4  and  C_20
REMARK    6  A    between atoms: C_5  and  N_6
REMARK    7  A    between atoms: C_7  and  C_9
REMARK    8  A    between atoms: C_20  and  N_21
REMARK    9  A    between atoms: N_21  and  C_22
REMARK                            x       y       z     vdW  Elec       q    Type
REMARK                         _______ _______ _______ _____ _____    ______ ____
ROOT
ATOM      1  C   UNL     1       6.362   6.605  17.504  0.00  0.00    +0.000 C 
ENDROOT
BRANCH   1   2
ATOM      2  C   UNL     1       7.408   7.710  17.202  0.00  0.00    +0.000 C 
BRANCH   2   4
ATOM      3  C   UNL     1       8.617   9.580  18.386  0.00  0.00    +0.000 C 
ATOM      4  C   UNL     1       8.305   8.089  18.386  0.00  0.00    +0.000 C 
ENDBRANCH   2   4
ENDBRANCH   1   2
BRANCH   1   5
ATOM      5  C   UNL     1       5.029   6.887  16.782  0.00  0.00    +0.000 C 
BRANCH   5   6
ATOM      6  N   UNL     1       4.110   7.697  17.560  0.00  0.00    +0.000 N 
ATOM      7  C   UNL     1       2.885   7.248  17.994  0.00  0.00    +0.000 C 
ATOM      8  O   UNL     1       2.491   6.100  17.811  0.00  0.00    +0.000 OA
ATOM      9  H   UNL     1       4.393   8.639  17.782  0.00  0.00    +0.000 HD
BRANCH   7  10
ATOM     10  C   UNL     1       2.095   8.229  18.711  0.00  0.00    +0.000 A 
ATOM     11  C   UNL     1       1.501   9.409  18.297  0.00  0.00    +0.000 A 
ATOM     12  C   UNL     1       0.755   9.951  19.380  0.00  0.00    +0.000 A 
ATOM     13  C   UNL     1      -0.091  11.063  19.560  0.00  0.00    +0.000 A 
ATOM     14 CL   UNL     1      -0.321  12.074  18.200  0.00  0.00    +0.000 Cl
ATOM     15  C   UNL     1      -0.724  11.306  20.775  0.00  0.00    +0.000 A 
ATOM     16  C   UNL     1      -0.497  10.439  21.837  0.00  0.00    +0.000 A 
ATOM     17 CL   UNL     1      -1.293  10.727  23.339  0.00  0.00    +0.000 Cl
ATOM     18  C   UNL     1       0.352   9.329  21.718  0.00  0.00    +0.000 A 
ATOM     19  C   UNL     1       0.955   9.102  20.471  0.00  0.00    +0.000 A 
ATOM     20  N   UNL     1       1.789   8.092  20.049  0.00  0.00    +0.000 N 
ATOM     21  H   UNL     1       2.108   7.318  20.618  0.00  0.00    +0.000 HD
ENDBRANCH   7  10
ENDBRANCH   5   6
ENDBRANCH   1   5
BRANCH   1  22
ATOM     22  C   UNL     1       6.904   5.220  17.085  0.00  0.00    +0.000 C 
BRANCH  22  23
ATOM     23  N   UNL     1       6.473   4.177  18.000  0.00  0.00    +0.000 N 
ATOM     24  H   UNL     1       7.118   3.982  18.763  0.00  0.00    +0.000 HD
BRANCH  23  25
ATOM     25  C   UNL     1       5.163   3.846  18.299  0.00  0.00    +0.000 A 
ATOM     26  C   UNL     1       4.435   3.201  17.366  0.00  0.00    +0.000 A 
ATOM     27  C   UNL     1       3.037   2.799  17.638  0.00  0.00    +0.000 A 
ATOM     28  O   UNL     1       2.361   2.267  16.764  0.00  0.00    +0.000 OA
ATOM     29  C   UNL     1       2.510   3.041  18.997  0.00  0.00    +0.000 A 
ATOM     30  C   UNL     1       1.240   2.583  19.359  0.00  0.00    +0.000 A 
ATOM     31  C   UNL     1       0.778   2.799  20.656  0.00  0.00    +0.000 A 
ATOM     32  C   UNL     1       1.576   3.486  21.572  0.00  0.00    +0.000 A 
ATOM     33  C   UNL     1       2.843   3.953  21.198  0.00  0.00    +0.000 A 
ATOM     34  C   UNL     1       3.329   3.720  19.908  0.00  0.00    +0.000 A 
ATOM     35  N   UNL     1       4.604   4.150  19.519  0.00  0.00    +0.000 N 
ATOM     36  H   UNL     1       5.197   4.598  20.201  0.00  0.00    +0.000 HD
ENDBRANCH  23  25
ENDBRANCH  22  23
ENDBRANCH   1  22
TORSDOF 8
ENDMDL
MODEL 2
REMARK VINA RESULT:      -8.4      2.449      5.582
REMARK  Name = 
REMARK  9 active torsions:
REMARK  status: ('A' for Active; 'I' for Inactive)
REMARK    1  A    between atoms: C_1  and  C_2
REMARK    2  A    between atoms: C_2  and  C_3
REMARK    3  A    between atoms: C_3  and  C_4
REMARK    4  A    between atoms: C_4  and  C_5
REMARK    5  A    between atoms: C_4  and  C_20
REMARK    6  A    between atoms: C_5  and  N_6
REMARK    7  A    between atoms: C_7  and  C_9
REMARK    8  A    between atoms: C_20  and  N_21
REMARK    9  A    between atoms: N_21  and  C_22
REMARK                            x       y       z     vdW  Elec       q    Type
REMARK                         _______ _______ _______ _____ _____    ______ ____
ROOT
ATOM      1  C   UNL     1       3.394   3.690  19.551  0.00  0.00    +0.000 C 
ENDROOT
BRANCH   1   2
ATOM      2  C   UNL     1       3.314   2.748  20.780  0.00  0.00    +0.000 C 
BRANCH   2   4
ATOM      3  C   UNL     1       0.868   3.345  20.626  0.00  0.00    +0.000 C 
ATOM      4  C   UNL     1       1.960   2.742  21.500  0.00  0.00    +0.000 C 
ENDBRANCH   2   4
ENDBRANCH   1   2
BRANCH   1   5
ATOM      5  C   UNL     1       4.151   4.990  19.894  0.00  0.00    +0.000 C 
BRANCH   5   6
ATOM      6  N   UNL     1       3.276   6.113  20.167  0.00  0.00    +0.000 N 
ATOM      7  C   UNL     1       2.587   6.793  19.189  0.00  0.00    +0.000 C 
ATOM      8  O   UNL     1       2.609   6.466  18.007  0.00  0.00    +0.000 OA
ATOM      9  H   UNL     1       3.180   6.408  21.127  0.00  0.00    +0.000 HD
BRANCH   7  10
ATOM     10  C   UNL     1       1.808   7.920  19.664  0.00  0.00    +0.000 A 
ATOM     11  C   UNL     1       1.216   8.174  20.890  0.00  0.00    +0.000 A 
ATOM     12  C   UNL     1       0.646   9.478  20.861  0.00  0.00    +0.000 A 
ATOM     13  C   UNL     1      -0.016  10.305  21.788  0.00  0.00    +0.000 A 
ATOM     14 CL   UNL     1      -0.250   9.659  23.355  0.00  0.00    +0.000 Cl
ATOM     15  C   UNL     1      -0.431  11.590  21.451  0.00  0.00    +0.000 A 
ATOM     16  C   UNL     1      -0.202  12.053  20.161  0.00  0.00    +0.000 A 
ATOM     17 CL   UNL     1      -0.699  13.651  19.744  0.00  0.00    +0.000 Cl
ATOM     18  C   UNL     1       0.434  11.263  19.193  0.00  0.00    +0.000 A 
ATOM     19  C   UNL     1       0.860   9.982  19.576  0.00  0.00    +0.000 A 
ATOM     20  N   UNL     1       1.533   9.012  18.868  0.00  0.00    +0.000 N 
ATOM     21  H   UNL     1       1.836   9.092  17.905  0.00  0.00    +0.000 HD
ENDBRANCH   7  10
ENDBRANCH   5   6
ENDBRANCH   1   5
BRANCH   1  22
ATOM     22  C   UNL     1       4.086   2.976  18.368  0.00  0.00    +0.000 C 
BRANCH  22  23
ATOM     23  N   UNL     1       3.819   3.648  17.107  0.00  0.00    +0.000 N 
ATOM     24  H   UNL     1       2.947   4.172  17.077  0.00  0.00    +0.000 HD
BRANCH  23  25
ATOM     25  C   UNL     1       4.768   4.122  16.220  0.00  0.00    +0.000 A 
ATOM     26  C   UNL     1       5.699   4.984  16.675  0.00  0.00    +0.000 A 
ATOM     27  C   UNL     1       6.755   5.505  15.778  0.00  0.00    +0.000 A 
ATOM     28  O   UNL     1       7.562   6.335  16.183  0.00  0.00    +0.000 OA
ATOM     29  C   UNL     1       6.808   4.968  14.403  0.00  0.00    +0.000 A 
ATOM     30  C   UNL     1       7.846   5.326  13.538  0.00  0.00    +0.000 A 
ATOM     31  C   UNL     1       7.887   4.783  12.256  0.00  0.00    +0.000 A 
ATOM     32  C   UNL     1       6.885   3.906  11.840  0.00  0.00    +0.000 A 
ATOM     33  C   UNL     1       5.841   3.560  12.708  0.00  0.00    +0.000 A 
ATOM     34  C   UNL     1       5.801   4.078  14.006  0.00  0.00    +0.000 A 
ATOM     35  N   UNL     1       4.784   3.724  14.902  0.00  0.00    +0.000 N 
ATOM     36  H   UNL     1       4.093   3.049  14.615  0.00  0.00    +0.000 HD
ENDBRANCH  23  25
ENDBRANCH  22  23
ENDBRANCH   1  22
TORSDOF 8
ENDMDL
MODEL 3
REMARK VINA RESULT:      -8.3      2.844      5.636
REMARK  Name = 
REMARK  9 active torsions:
REMARK  status: ('A' for Active; 'I' for Inactive)
REMARK    1  A    between atoms: C_1  and  C_2
REMARK    2  A    between atoms: C_2  and  C_3
REMARK    3  A    between atoms: C_3  and  C_4
REMARK    4  A    between atoms: C_4  and  C_5
REMARK    5  A    between atoms: C_4  and  C_20
REMARK    6  A    between atoms: C_5  and  N_6
REMARK    7  A    between atoms: C_7  and  C_9
REMARK    8  A    between atoms: C_20  and  N_21
REMARK    9  A    between atoms: N_21  and  C_22
REMARK                            x       y       z     vdW  Elec       q    Type
REMARK                         _______ _______ _______ _____ _____    ______ ____
ROOT
ATOM      1  C   UNL     1       2.822   5.171  18.815  0.00  0.00    +0.000 C 
ENDROOT
BRANCH   1   2
ATOM      2  C   UNL     1       1.908   5.134  20.067  0.00  0.00    +0.000 C 
BRANCH   2   4
ATOM      3  C   UNL     1       1.423   2.919  21.172  0.00  0.00    +0.000 C 
ATOM      4  C   UNL     1       0.957   3.934  20.135  0.00  0.00    +0.000 C 
ENDBRANCH   2   4
ENDBRANCH   1   2
BRANCH   1   5
ATOM      5  C   UNL     1       3.092   6.621  18.364  0.00  0.00    +0.000 C 
BRANCH   5   6
ATOM      6  N   UNL     1       1.932   7.485  18.474  0.00  0.00    +0.000 N 
ATOM      7  C   UNL     1       1.915   8.790  18.038  0.00  0.00    +0.000 C 
ATOM      8  O   UNL     1       2.864   9.315  17.463  0.00  0.00    +0.000 OA
ATOM      9  H   UNL     1       1.103   7.100  18.900  0.00  0.00    +0.000 HD
BRANCH   7  10
ATOM     10  C   UNL     1       0.676   9.499  18.288  0.00  0.00    +0.000 A 
ATOM     11  C   UNL     1       0.286  10.326  19.328  0.00  0.00    +0.000 A 
ATOM     12  C   UNL     1      -1.007  10.846  19.039  0.00  0.00    +0.000 A 
ATOM     13  C   UNL     1      -1.884  11.759  19.657  0.00  0.00    +0.000 A 
ATOM     14 CL   UNL     1      -1.352  12.448  21.130  0.00  0.00    +0.000 Cl
ATOM     15  C   UNL     1      -3.104  12.099  19.082  0.00  0.00    +0.000 A 
ATOM     16  C   UNL     1      -3.469  11.505  17.880  0.00  0.00    +0.000 A 
ATOM     17 CL   UNL     1      -4.974  11.936  17.156  0.00  0.00    +0.000 Cl
ATOM     18  C   UNL     1      -2.644  10.575  17.233  0.00  0.00    +0.000 A 
ATOM     19  C   UNL     1      -1.410  10.274  17.831  0.00  0.00    +0.000 A 
ATOM     20  N   UNL     1      -0.392   9.444  17.417  0.00  0.00    +0.000 N 
ATOM     21  H   UNL     1      -0.391   8.897  16.565  0.00  0.00    +0.000 HD
ENDBRANCH   7  10
ENDBRANCH   5   6
ENDBRANCH   1   5
BRANCH   1  22
ATOM     22  C   UNL     1       4.160   4.453  19.102  0.00  0.00    +0.000 C 
BRANCH  22  23
ATOM     23  N   UNL     1       4.601   3.665  17.962  0.00  0.00    +0.000 N 
ATOM     24  H   UNL     1       4.008   2.870  17.737  0.00  0.00    +0.000 HD
BRANCH  23  25
ATOM     25  C   UNL     1       5.317   4.135  16.876  0.00  0.00    +0.000 A 
ATOM     26  C   UNL     1       6.260   5.074  17.086  0.00  0.00    +0.000 A 
ATOM     27  C   UNL     1       7.075   5.597  15.967  0.00  0.00    +0.000 A 
ATOM     28  O   UNL     1       7.890   6.494  16.155  0.00  0.00    +0.000 OA
ATOM     29  C   UNL     1       6.884   4.979  14.638  0.00  0.00    +0.000 A 
ATOM     30  C   UNL     1       7.699   5.340  13.562  0.00  0.00    +0.000 A 
ATOM     31  C   UNL     1       7.516   4.722  12.327  0.00  0.00    +0.000 A 
ATOM     32  C   UNL     1       6.512   3.766  12.170  0.00  0.00    +0.000 A 
ATOM     33  C   UNL     1       5.691   3.417  13.250  0.00  0.00    +0.000 A 
ATOM     34  C   UNL     1       5.880   4.011  14.502  0.00  0.00    +0.000 A 
ATOM     35  N   UNL     1       5.092   3.658  15.605  0.00  0.00    +0.000 N 
ATOM     36  H   UNL     1       4.404   2.929  15.500  0.00  0.00    +0.000 HD
ENDBRANCH  23  25
ENDBRANCH  22  23
ENDBRANCH   1  22
TORSDOF 8
ENDMDL
MODEL 4
REMARK VINA RESULT:      -8.3      1.526      5.014
REMARK  Name = 
REMARK  9 active torsions:
REMARK  status: ('A' for Active; 'I' for Inactive)
REMARK    1  A    between atoms: C_1  and  C_2
REMARK    2  A    between atoms: C_2  and  C_3
REMARK    3  A    between atoms: C_3  and  C_4
REMARK    4  A    between atoms: C_4  and  C_5
REMARK    5  A    between atoms: C_4  and  C_20
REMARK    6  A    between atoms: C_5  and  N_6
REMARK    7  A    between atoms: C_7  and  C_9
REMARK    8  A    between atoms: C_20  and  N_21
REMARK    9  A    between atoms: N_21  and  C_22
REMARK                            x       y       z     vdW  Elec       q    Type
REMARK                         _______ _______ _______ _____ _____    ______ ____
ROOT
ATOM      1  C   UNL     1       3.154   3.323  19.780  0.00  0.00    +0.000 C 
ENDROOT
BRANCH   1   2
ATOM      2  C   UNL     1       2.598   2.737  21.104  0.00  0.00    +0.000 C 
BRANCH   2   4
ATOM      3  C   UNL     1       0.404   3.237  19.963  0.00  0.00    +0.000 C 
ATOM      4  C   UNL     1       1.080   2.865  21.277  0.00  0.00    +0.000 C 
ENDBRANCH   2   4
ENDBRANCH   1   2
BRANCH   1   5
ATOM      5  C   UNL     1       3.888   4.657  20.027  0.00  0.00    +0.000 C 
BRANCH   5   6
ATOM      6  N   UNL     1       2.994   5.771  20.277  0.00  0.00    +0.000 N 
ATOM      7  C   UNL     1       2.754   6.771  19.363  0.00  0.00    +0.000 C 
ATOM      8  O   UNL     1       3.232   6.772  18.233  0.00  0.00    +0.000 OA
ATOM      9  H   UNL     1       2.535   5.808  21.174  0.00  0.00    +0.000 HD
BRANCH   7  10
ATOM     10  C   UNL     1       1.869   7.822  19.827  0.00  0.00    +0.000 A 
ATOM     11  C   UNL     1       1.301   8.062  21.067  0.00  0.00    +0.000 A 
ATOM     12  C   UNL     1       0.583   9.289  21.012  0.00  0.00    +0.000 A 
ATOM     13  C   UNL     1      -0.132  10.076  21.935  0.00  0.00    +0.000 A 
ATOM     14 CL   UNL     1      -0.227   9.479  23.534  0.00  0.00    +0.000 Cl
ATOM     15  C   UNL     1      -0.706  11.289  21.565  0.00  0.00    +0.000 A 
ATOM     16  C   UNL     1      -0.584  11.717  20.249  0.00  0.00    +0.000 A 
ATOM     17 CL   UNL     1      -1.280  13.227  19.791  0.00  0.00    +0.000 Cl
ATOM     18  C   UNL     1       0.099  10.962  19.285  0.00  0.00    +0.000 A 
ATOM     19  C   UNL     1       0.686   9.756  19.699  0.00  0.00    +0.000 A 
ATOM     20  N   UNL     1       1.438   8.839  19.001  0.00  0.00    +0.000 N 
ATOM     21  H   UNL     1       1.691   8.909  18.024  0.00  0.00    +0.000 HD
ENDBRANCH   7  10
ENDBRANCH   5   6
ENDBRANCH   1   5
BRANCH   1  22
ATOM     22  C   UNL     1       4.110   2.315  19.104  0.00  0.00    +0.000 C 
BRANCH  22  23
ATOM     23  N   UNL     1       4.523   2.770  17.786  0.00  0.00    +0.000 N 
ATOM     24  H   UNL     1       3.919   2.474  17.022  0.00  0.00    +0.000 HD
BRANCH  23  25
ATOM     25  C   UNL     1       5.223   3.930  17.508  0.00  0.00    +0.000 A 
ATOM     26  C   UNL     1       4.885   4.638  16.412  0.00  0.00    +0.000 A 
ATOM     27  C   UNL     1       5.582   5.900  16.077  0.00  0.00    +0.000 A 
ATOM     28  O   UNL     1       5.309   6.507  15.047  0.00  0.00    +0.000 OA
ATOM     29  C   UNL     1       6.585   6.400  17.039  0.00  0.00    +0.000 A 
ATOM     30  C   UNL     1       7.198   7.642  16.846  0.00  0.00    +0.000 A 
ATOM     31  C   UNL     1       8.120   8.103  17.783  0.00  0.00    +0.000 A 
ATOM     32  C   UNL     1       8.438   7.316  18.891  0.00  0.00    +0.000 A 
ATOM     33  C   UNL     1       7.829   6.067  19.071  0.00  0.00    +0.000 A 
ATOM     34  C   UNL     1       6.883   5.604  18.152  0.00  0.00    +0.000 A 
ATOM     35  N   UNL     1       6.238   4.372  18.326  0.00  0.00    +0.000 N 
ATOM     36  H   UNL     1       6.432   3.832  19.155  0.00  0.00    +0.000 HD
ENDBRANCH  23  25
ENDBRANCH  22  23
ENDBRANCH   1  22
TORSDOF 8
ENDMDL
MODEL 5
REMARK VINA RESULT:      -8.3      2.454      5.536
REMARK  Name = 
REMARK  9 active torsions:
REMARK  status: ('A' for Active; 'I' for Inactive)
REMARK    1  A    between atoms: C_1  and  C_2
REMARK    2  A    between atoms: C_2  and  C_3
REMARK    3  A    between atoms: C_3  and  C_4
REMARK    4  A    between atoms: C_4  and  C_5
REMARK    5  A    between atoms: C_4  and  C_20
REMARK    6  A    between atoms: C_5  and  N_6
REMARK    7  A    between atoms: C_7  and  C_9
REMARK    8  A    between atoms: C_20  and  N_21
REMARK    9  A    between atoms: N_21  and  C_22
REMARK                            x       y       z     vdW  Elec       q    Type
REMARK                         _______ _______ _______ _____ _____    ______ ____
ROOT
ATOM      1  C   UNL     1       2.070   4.999  18.758  0.00  0.00    +0.000 C 
ENDROOT
BRANCH   1   2
ATOM      2  C   UNL     1       1.359   4.582  20.072  0.00  0.00    +0.000 C 
BRANCH   2   4
ATOM      3  C   UNL     1       1.569   2.616  21.637  0.00  0.00    +0.000 C 
ATOM      4  C   UNL     1       1.157   3.072  20.244  0.00  0.00    +0.000 C 
ENDBRANCH   2   4
ENDBRANCH   1   2
BRANCH   1   5
ATOM      5  C   UNL     1       2.964   6.236  18.977  0.00  0.00    +0.000 C 
BRANCH   5   6
ATOM      6  N   UNL     1       2.219   7.437  19.303  0.00  0.00    +0.000 N 
ATOM      7  C   UNL     1       2.050   8.486  18.429  0.00  0.00    +0.000 C 
ATOM      8  O   UNL     1       2.466   8.466  17.274  0.00  0.00    +0.000 OA
ATOM      9  H   UNL     1       1.815   7.499  20.225  0.00  0.00    +0.000 HD
BRANCH   7  10
ATOM     10  C   UNL     1       1.318   9.616  18.966  0.00  0.00    +0.000 A 
ATOM     11  C   UNL     1       0.647   9.788  20.165  0.00  0.00    +0.000 A 
ATOM     12  C   UNL     1       0.178  11.129  20.239  0.00  0.00    +0.000 A 
ATOM     13  C   UNL     1      -0.497  11.906  21.201  0.00  0.00    +0.000 A 
ATOM     14 CL   UNL     1      -0.905  11.120  22.665  0.00  0.00    +0.000 Cl
ATOM     15  C   UNL     1      -0.788  13.247  20.979  0.00  0.00    +0.000 A 
ATOM     16  C   UNL     1      -0.420  13.823  19.768  0.00  0.00    +0.000 A 
ATOM     17 CL   UNL     1      -0.765  15.491  19.494  0.00  0.00    +0.000 Cl
ATOM     18  C   UNL     1       0.234  13.090  18.768  0.00  0.00    +0.000 A 
ATOM     19  C   UNL     1       0.532  11.745  19.037  0.00  0.00    +0.000 A 
ATOM     20  N   UNL     1       1.190  10.804  18.278  0.00  0.00    +0.000 N 
ATOM     21  H   UNL     1       1.576  10.959  17.355  0.00  0.00    +0.000 HD
ENDBRANCH   7  10
ENDBRANCH   5   6
ENDBRANCH   1   5
BRANCH   1  22
ATOM     22  C   UNL     1       2.917   3.829  18.208  0.00  0.00    +0.000 C 
BRANCH  22  23
ATOM     23  N   UNL     1       4.336   4.147  18.214  0.00  0.00    +0.000 N 
ATOM     24  H   UNL     1       4.875   3.688  18.946  0.00  0.00    +0.000 HD
BRANCH  23  25
ATOM     25  C   UNL     1       5.097   4.491  17.112  0.00  0.00    +0.000 A 
ATOM     26  C   UNL     1       6.093   5.386  17.273  0.00  0.00    +0.000 A 
ATOM     27  C   UNL     1       6.957   5.774  16.136  0.00  0.00    +0.000 A 
ATOM     28  O   UNL     1       7.821   6.632  16.275  0.00  0.00    +0.000 OA
ATOM     29  C   UNL     1       6.751   5.071  14.853  0.00  0.00    +0.000 A 
ATOM     30  C   UNL     1       7.605   5.302  13.770  0.00  0.00    +0.000 A 
ATOM     31  C   UNL     1       7.405   4.606  12.580  0.00  0.00    +0.000 A 
ATOM     32  C   UNL     1       6.347   3.702  12.473  0.00  0.00    +0.000 A 
ATOM     33  C   UNL     1       5.488   3.484  13.558  0.00  0.00    +0.000 A 
ATOM     34  C   UNL     1       5.692   4.158  14.766  0.00  0.00    +0.000 A 
ATOM     35  N   UNL     1       4.865   3.935  15.875  0.00  0.00    +0.000 N 
ATOM     36  H   UNL     1       4.136   3.242  15.809  0.00  0.00    +0.000 HD
ENDBRANCH  23  25
ENDBRANCH  22  23
ENDBRANCH   1  22
TORSDOF 8
ENDMDL
MODEL 6
REMARK VINA RESULT:      -8.2      2.325      5.349
REMARK  Name = 
REMARK  9 active torsions:
REMARK  status: ('A' for Active; 'I' for Inactive)
REMARK    1  A    between atoms: C_1  and  C_2
REMARK    2  A    between atoms: C_2  and  C_3
REMARK    3  A    between atoms: C_3  and  C_4
REMARK    4  A    between atoms: C_4  and  C_5
REMARK    5  A    between atoms: C_4  and  C_20
REMARK    6  A    between atoms: C_5  and  N_6
REMARK    7  A    between atoms: C_7  and  C_9
REMARK    8  A    between atoms: C_20  and  N_21
REMARK    9  A    between atoms: N_21  and  C_22
REMARK                            x       y       z     vdW  Elec       q    Type
REMARK                         _______ _______ _______ _____ _____    ______ ____
ROOT
ATOM      1  C   UNL     1       1.761   4.420  18.597  0.00  0.00    +0.000 C 
ENDROOT
BRANCH   1   2
ATOM      2  C   UNL     1       0.968   3.434  19.494  0.00  0.00    +0.000 C 
BRANCH   2   4
ATOM      3  C   UNL     1       1.638   2.599  21.778  0.00  0.00    +0.000 C 
ATOM      4  C   UNL     1       1.831   2.437  20.275  0.00  0.00    +0.000 C 
ENDBRANCH   2   4
ENDBRANCH   1   2
BRANCH   1   5
ATOM      5  C   UNL     1       2.647   5.356  19.445  0.00  0.00    +0.000 C 
BRANCH   5   6
ATOM      6  N   UNL     1       2.019   6.629  19.746  0.00  0.00    +0.000 N 
ATOM      7  C   UNL     1       2.163   7.750  18.962  0.00  0.00    +0.000 C 
ATOM      8  O   UNL     1       2.788   7.750  17.906  0.00  0.00    +0.000 OA
ATOM      9  H   UNL     1       1.455   6.684  20.581  0.00  0.00    +0.000 HD
BRANCH   7  10
ATOM     10  C   UNL     1       1.497   8.935  19.465  0.00  0.00    +0.000 A 
ATOM     11  C   UNL     1       1.150  10.124  18.846  0.00  0.00    +0.000 A 
ATOM     12  C   UNL     1       0.422  10.926  19.770  0.00  0.00    +0.000 A 
ATOM     13  C   UNL     1      -0.232  12.172  19.720  0.00  0.00    +0.000 A 
ATOM     14 CL   UNL     1      -0.175  13.004  18.227  0.00  0.00    +0.000 Cl
ATOM     15  C   UNL     1      -0.910  12.681  20.823  0.00  0.00    +0.000 A 
ATOM     16  C   UNL     1      -0.921  11.948  22.003  0.00  0.00    +0.000 A 
ATOM     17 CL   UNL     1      -1.775  12.568  23.368  0.00  0.00    +0.000 Cl
ATOM     18  C   UNL     1      -0.269  10.712  22.113  0.00  0.00    +0.000 A 
ATOM     19  C   UNL     1       0.386  10.218  20.973  0.00  0.00    +0.000 A 
ATOM     20  N   UNL     1       1.066   9.039  20.771  0.00  0.00    +0.000 N 
ATOM     21  H   UNL     1       1.200   8.312  21.463  0.00  0.00    +0.000 HD
ENDBRANCH   7  10
ENDBRANCH   5   6
ENDBRANCH   1   5
BRANCH   1  22
ATOM     22  C   UNL     1       2.636   3.644  17.586  0.00  0.00    +0.000 C 
BRANCH  22  23
ATOM     23  N   UNL     1       4.044   3.971  17.736  0.00  0.00    +0.000 N 
ATOM     24  H   UNL     1       4.519   3.483  18.493  0.00  0.00    +0.000 HD
BRANCH  23  25
ATOM     25  C   UNL     1       4.900   4.367  16.724  0.00  0.00    +0.000 A 
ATOM     26  C   UNL     1       5.868   5.259  17.014  0.00  0.00    +0.000 A 
ATOM     27  C   UNL     1       6.829   5.701  15.979  0.00  0.00    +0.000 A 
ATOM     28  O   UNL     1       7.669   6.557  16.234  0.00  0.00    +0.000 OA
ATOM     29  C   UNL     1       6.748   5.055  14.653  0.00  0.00    +0.000 A 
ATOM     30  C   UNL     1       7.695   5.338  13.664  0.00  0.00    +0.000 A 
ATOM     31  C   UNL     1       7.611   4.694  12.432  0.00  0.00    +0.000 A 
ATOM     32  C   UNL     1       6.575   3.790  12.189  0.00  0.00    +0.000 A 
ATOM     33  C   UNL     1       5.623   3.520  13.180  0.00  0.00    +0.000 A 
ATOM     34  C   UNL     1       5.710   4.140  14.430  0.00  0.00    +0.000 A 
ATOM     35  N   UNL     1       4.787   3.865  15.448  0.00  0.00    +0.000 N 
ATOM     36  H   UNL     1       4.074   3.172  15.285  0.00  0.00    +0.000 HD
ENDBRANCH  23  25
ENDBRANCH  22  23
ENDBRANCH   1  22
TORSDOF 8
ENDMDL
MODEL 7
REMARK VINA RESULT:      -8.0      3.298      6.898
REMARK  Name = 
REMARK  9 active torsions:
REMARK  status: ('A' for Active; 'I' for Inactive)
REMARK    1  A    between atoms: C_1  and  C_2
REMARK    2  A    between atoms: C_2  and  C_3
REMARK    3  A    between atoms: C_3  and  C_4
REMARK    4  A    between atoms: C_4  and  C_5
REMARK    5  A    between atoms: C_4  and  C_20
REMARK    6  A    between atoms: C_5  and  N_6
REMARK    7  A    between atoms: C_7  and  C_9
REMARK    8  A    between atoms: C_20  and  N_21
REMARK    9  A    between atoms: N_21  and  C_22
REMARK                            x       y       z     vdW  Elec       q    Type
REMARK                         _______ _______ _______ _____ _____    ______ ____
ROOT
ATOM      1  C   UNL     1       5.295   4.635  18.480  0.00  0.00    +0.000 C 
ENDROOT
BRANCH   1   2
ATOM      2  C   UNL     1       4.717   4.969  17.080  0.00  0.00    +0.000 C 
BRANCH   2   4
ATOM      3  C   UNL     1       2.958   3.164  17.167  0.00  0.00    +0.000 C 
ATOM      4  C   UNL     1       4.081   3.784  16.346  0.00  0.00    +0.000 C 
ENDBRANCH   2   4
ENDBRANCH   1   2
BRANCH   1   5
ATOM      5  C   UNL     1       6.827   4.806  18.506  0.00  0.00    +0.000 C 
BRANCH   5   6
ATOM      6  N   UNL     1       7.252   6.186  18.648  0.00  0.00    +0.000 N 
ATOM      7  C   UNL     1       7.653   6.968  17.590  0.00  0.00    +0.000 C 
ATOM      8  O   UNL     1       7.626   6.582  16.425  0.00  0.00    +0.000 OA
ATOM      9  H   UNL     1       7.257   6.579  19.577  0.00  0.00    +0.000 HD
BRANCH   7  10
ATOM     10  C   UNL     1       8.089   8.303  17.950  0.00  0.00    +0.000 A 
ATOM     11  C   UNL     1       7.849   9.535  17.365  0.00  0.00    +0.000 A 
ATOM     12  C   UNL     1       8.436  10.548  18.174  0.00  0.00    +0.000 A 
ATOM     13  C   UNL     1       8.481  11.955  18.146  0.00  0.00    +0.000 A 
ATOM     14 CL   UNL     1       7.673  12.718  16.847  0.00  0.00    +0.000 Cl
ATOM     15  C   UNL     1       9.127  12.682  19.141  0.00  0.00    +0.000 A 
ATOM     16  C   UNL     1       9.758  11.996  20.172  0.00  0.00    +0.000 A 
ATOM     17 CL   UNL     1      10.547  12.894  21.416  0.00  0.00    +0.000 Cl
ATOM     18  C   UNL     1       9.762  10.596  20.237  0.00  0.00    +0.000 A 
ATOM     19  C   UNL     1       9.080   9.896  19.229  0.00  0.00    +0.000 A 
ATOM     20  N   UNL     1       8.881   8.546  19.052  0.00  0.00    +0.000 N 
ATOM     21  H   UNL     1       9.223   7.817  19.666  0.00  0.00    +0.000 HD
ENDBRANCH   7  10
ENDBRANCH   5   6
ENDBRANCH   1   5
BRANCH   1  22
ATOM     22  C   UNL     1       4.648   5.532  19.559  0.00  0.00    +0.000 C 
BRANCH  22  23
ATOM     23  N   UNL     1       3.235   5.749  19.298  0.00  0.00    +0.000 N 
ATOM     24  H   UNL     1       2.642   4.934  19.443  0.00  0.00    +0.000 HD
BRANCH  23  25
ATOM     25  C   UNL     1       2.555   6.946  19.437  0.00  0.00    +0.000 A 
ATOM     26  C   UNL     1       2.434   7.744  18.359  0.00  0.00    +0.000 A 
ATOM     27  C   UNL     1       1.696   9.025  18.441  0.00  0.00    +0.000 A 
ATOM     28  O   UNL     1       1.640   9.774  17.472  0.00  0.00    +0.000 OA
ATOM     29  C   UNL     1       1.019   9.341  19.715  0.00  0.00    +0.000 A 
ATOM     30  C   UNL     1       0.209  10.475  19.828  0.00  0.00    +0.000 A 
ATOM     31  C   UNL     1      -0.440  10.735  21.033  0.00  0.00    +0.000 A 
ATOM     32  C   UNL     1      -0.262   9.876  22.118  0.00  0.00    +0.000 A 
ATOM     33  C   UNL     1       0.561   8.748  22.002  0.00  0.00    +0.000 A 
ATOM     34  C   UNL     1       1.198   8.461  20.791  0.00  0.00    +0.000 A 
ATOM     35  N   UNL     1       2.001   7.324  20.639  0.00  0.00    +0.000 N 
ATOM     36  H   UNL     1       2.084   6.679  21.410  0.00  0.00    +0.000 HD
ENDBRANCH  23  25
ENDBRANCH  22  23
ENDBRANCH   1  22
TORSDOF 8
ENDMDL
MODEL 8
REMARK VINA RESULT:      -8.0      4.181      9.051
REMARK  Name = 
REMARK  9 active torsions:
REMARK  status: ('A' for Active; 'I' for Inactive)
REMARK    1  A    between atoms: C_1  and  C_2
REMARK    2  A    between atoms: C_2  and  C_3
REMARK    3  A    between atoms: C_3  and  C_4
REMARK    4  A    between atoms: C_4  and  C_5
REMARK    5  A    between atoms: C_4  and  C_20
REMARK    6  A    between atoms: C_5  and  N_6
REMARK    7  A    between atoms: C_7  and  C_9
REMARK    8  A    between atoms: C_20  and  N_21
REMARK    9  A    between atoms: N_21  and  C_22
REMARK                            x       y       z     vdW  Elec       q    Type
REMARK                         _______ _______ _______ _____ _____    ______ ____
ROOT
ATOM      1  C   UNL     1       2.802   5.469  20.021  0.00  0.00    +0.000 C 
ENDROOT
BRANCH   1   2
ATOM      2  C   UNL     1       2.035   4.434  19.158  0.00  0.00    +0.000 C 
BRANCH   2   4
ATOM      3  C   UNL     1       1.428   3.141  21.237  0.00  0.00    +0.000 C 
ATOM      4  C   UNL     1       0.931   3.669  19.897  0.00  0.00    +0.000 C 
ENDBRANCH   2   4
ENDBRANCH   1   2
BRANCH   1   5
ATOM      5  C   UNL     1       4.325   5.351  19.812  0.00  0.00    +0.000 C 
BRANCH   5   6
ATOM      6  N   UNL     1       4.702   5.132  18.428  0.00  0.00    +0.000 N 
ATOM      7  C   UNL     1       5.993   4.880  18.025  0.00  0.00    +0.000 C 
ATOM      8  O   UNL     1       6.926   4.756  18.812  0.00  0.00    +0.000 OA
ATOM      9  H   UNL     1       3.973   5.179  17.733  0.00  0.00    +0.000 HD
BRANCH   7  10
ATOM     10  C   UNL     1       6.168   4.743  16.592  0.00  0.00    +0.000 A 
ATOM     11  C   UNL     1       7.097   5.295  15.726  0.00  0.00    +0.000 A 
ATOM     12  C   UNL     1       6.884   4.759  14.425  0.00  0.00    +0.000 A 
ATOM     13  C   UNL     1       7.520   4.877  13.173  0.00  0.00    +0.000 A 
ATOM     14 CL   UNL     1       8.880   5.910  13.104  0.00  0.00    +0.000 Cl
ATOM     15  C   UNL     1       7.077   4.166  12.063  0.00  0.00    +0.000 A 
ATOM     16  C   UNL     1       5.968   3.338  12.193  0.00  0.00    +0.000 A 
ATOM     17 CL   UNL     1       5.425   2.443  10.823  0.00  0.00    +0.000 Cl
ATOM     18  C   UNL     1       5.285   3.200  13.410  0.00  0.00    +0.000 A 
ATOM     19  C   UNL     1       5.775   3.914  14.515  0.00  0.00    +0.000 A 
ATOM     20  N   UNL     1       5.346   3.948  15.822  0.00  0.00    +0.000 N 
ATOM     21  H   UNL     1       4.563   3.427  16.196  0.00  0.00    +0.000 HD
ENDBRANCH   7  10
ENDBRANCH   5   6
ENDBRANCH   1   5
BRANCH   1  22
ATOM     22  C   UNL     1       2.335   6.903  19.685  0.00  0.00    +0.000 C 
BRANCH  22  23
ATOM     23  N   UNL     1       1.973   7.643  20.882  0.00  0.00    +0.000 N 
ATOM     24  H   UNL     1       2.694   7.676  21.600  0.00  0.00    +0.000 HD
BRANCH  23  25
ATOM     25  C   UNL     1       1.094   8.710  20.945  0.00  0.00    +0.000 A 
ATOM     26  C   UNL     1       0.772   9.206  22.156  0.00  0.00    +0.000 A 
ATOM     27  C   UNL     1      -0.143  10.362  22.284  0.00  0.00    +0.000 A 
ATOM     28  O   UNL     1      -0.478  10.771  23.391  0.00  0.00    +0.000 OA
ATOM     29  C   UNL     1      -0.605  11.008  21.039  0.00  0.00    +0.000 A 
ATOM     30  C   UNL     1      -1.376  12.173  21.085  0.00  0.00    +0.000 A 
ATOM     31  C   UNL     1      -1.775  12.777  19.895  0.00  0.00    +0.000 A 
ATOM     32  C   UNL     1      -1.420  12.205  18.672  0.00  0.00    +0.000 A 
ATOM     33  C   UNL     1      -0.657  11.031  18.633  0.00  0.00    +0.000 A 
ATOM     34  C   UNL     1      -0.229  10.428  19.820  0.00  0.00    +0.000 A 
ATOM     35  N   UNL     1       0.560   9.270  19.808  0.00  0.00    +0.000 N 
ATOM     36  H   UNL     1       0.858   8.892  18.922  0.00  0.00    +0.000 HD
ENDBRANCH  23  25
ENDBRANCH  22  23
ENDBRANCH   1  22
TORSDOF 8
ENDMDL
MODEL 9
REMARK VINA RESULT:      -7.9      2.121      5.122
REMARK  Name = 
REMARK  9 active torsions:
REMARK  status: ('A' for Active; 'I' for Inactive)
REMARK    1  A    between atoms: C_1  and  C_2
REMARK    2  A    between atoms: C_2  and  C_3
REMARK    3  A    between atoms: C_3  and  C_4
REMARK    4  A    between atoms: C_4  and  C_5
REMARK    5  A    between atoms: C_4  and  C_20
REMARK    6  A    between atoms: C_5  and  N_6
REMARK    7  A    between atoms: C_7  and  C_9
REMARK    8  A    between atoms: C_20  and  N_21
REMARK    9  A    between atoms: N_21  and  C_22
REMARK                            x       y       z     vdW  Elec       q    Type
REMARK                         _______ _______ _______ _____ _____    ______ ____
ROOT
ATOM      1  C   UNL     1       2.867   3.181  19.128  0.00  0.00    +0.000 C 
ENDROOT
BRANCH   1   2
ATOM      2  C   UNL     1       3.137   3.966  20.439  0.00  0.00    +0.000 C 
BRANCH   2   4
ATOM      3  C   UNL     1       1.535   2.453  21.666  0.00  0.00    +0.000 C 
ATOM      4  C   UNL     1       2.014   3.887  21.479  0.00  0.00    +0.000 C 
ENDBRANCH   2   4
ENDBRANCH   1   2
BRANCH   1   5
ATOM      5  C   UNL     1       2.260   4.097  18.045  0.00  0.00    +0.000 C 
BRANCH   5   6
ATOM      6  N   UNL     1       1.818   5.380  18.557  0.00  0.00    +0.000 N 
ATOM      7  C   UNL     1       2.599   6.512  18.543  0.00  0.00    +0.000 C 
ATOM      8  O   UNL     1       3.717   6.546  18.039  0.00  0.00    +0.000 OA
ATOM      9  H   UNL     1       0.889   5.431  18.948  0.00  0.00    +0.000 HD
BRANCH   7  10
ATOM     10  C   UNL     1       1.991   7.681  19.149  0.00  0.00    +0.000 A 
ATOM     11  C   UNL     1       1.775   8.959  18.663  0.00  0.00    +0.000 A 
ATOM     12  C   UNL     1       1.049   9.702  19.635  0.00  0.00    +0.000 A 
ATOM     13  C   UNL     1       0.494  10.995  19.703  0.00  0.00    +0.000 A 
ATOM     14 CL   UNL     1       0.713  11.991  18.330  0.00  0.00    +0.000 Cl
ATOM     15  C   UNL     1      -0.217  11.423  20.818  0.00  0.00    +0.000 A 
ATOM     16  C   UNL     1      -0.362  10.559  21.896  0.00  0.00    +0.000 A 
ATOM     17 CL   UNL     1      -1.257  11.080  23.275  0.00  0.00    +0.000 Cl
ATOM     18  C   UNL     1       0.188   9.269  21.890  0.00  0.00    +0.000 A 
ATOM     19  C   UNL     1       0.879   8.862  20.738  0.00  0.00    +0.000 A 
ATOM     20  N   UNL     1       1.481   7.663  20.431  0.00  0.00    +0.000 N 
ATOM     21  H   UNL     1       1.514   6.851  21.034  0.00  0.00    +0.000 HD
ENDBRANCH   7  10
ENDBRANCH   5   6
ENDBRANCH   1   5
BRANCH   1  22
ATOM     22  C   UNL     1       4.172   2.542  18.604  0.00  0.00    +0.000 C 
BRANCH  22  23
ATOM     23  N   UNL     1       5.249   3.515  18.522  0.00  0.00    +0.000 N 
ATOM     24  H   UNL     1       5.924   3.471  19.283  0.00  0.00    +0.000 HD
BRANCH  23  25
ATOM     25  C   UNL     1       5.773   4.055  17.361  0.00  0.00    +0.000 A 
ATOM     26  C   UNL     1       6.567   5.139  17.458  0.00  0.00    +0.000 A 
ATOM     27  C   UNL     1       7.176   5.746  16.253  0.00  0.00    +0.000 A 
ATOM     28  O   UNL     1       7.849   6.767  16.342  0.00  0.00    +0.000 OA
ATOM     29  C   UNL     1       6.961   5.060  14.963  0.00  0.00    +0.000 A 
ATOM     30  C   UNL     1       7.600   5.509  13.803  0.00  0.00    +0.000 A 
ATOM     31  C   UNL     1       7.402   4.827  12.605  0.00  0.00    +0.000 A 
ATOM     32  C   UNL     1       6.556   3.718  12.567  0.00  0.00    +0.000 A 
ATOM     33  C   UNL     1       5.909   3.280  13.730  0.00  0.00    +0.000 A 
ATOM     34  C   UNL     1       6.119   3.940  14.945  0.00  0.00    +0.000 A 
ATOM     35  N   UNL     1       5.508   3.505  16.128  0.00  0.00    +0.000 N 
ATOM     36  H   UNL     1       4.940   2.672  16.106  0.00  0.00    +0.000 HD
ENDBRANCH  23  25
ENDBRANCH  22  23
ENDBRANCH   1  22
TORSDOF 8
ENDMDL
