MODEL 1
REMARK VINA RESULT:      -8.1      0.000      0.000
REMARK  Name = 
REMARK  10 active torsions:
REMARK  status: ('A' for Active; 'I' for Inactive)
REMARK    1  A    between atoms: C_1  and  C_2
REMARK    2  A    between atoms: C_2  and  O_3
REMARK    3  A    between atoms: O_3  and  C_4
REMARK    4  A    between atoms: C_4  and  C_6
REMARK    5  A    between atoms: C_9  and  N_10
REMARK    6  A    between atoms: C_11  and  C_13
REMARK    7  A    between atoms: C_13  and  C_14
REMARK    8  A    between atoms: N_17  and  C_18
REMARK    9  A    between atoms: C_21  and  C_22
REMARK   10  A    between atoms: N_27  and  C_28
REMARK                            x       y       z     vdW  Elec       q    Type
REMARK                         _______ _______ _______ _____ _____    ______ ____
ROOT
ATOM      1  C   UNL     1       0.160  10.621  18.887  0.00  0.00    +0.000 C 
ATOM      2  C   UNL     1      -1.321  10.396  18.602  0.00  0.00    +0.000 C 
ATOM      3  O   UNL     1      -1.784   9.312  18.273  0.00  0.00    +0.000 OA
ATOM      4  N   UNL     1      -1.957  11.614  18.711  0.00  0.00    +0.000 N 
ATOM      5  C   UNL     1      -1.111  12.506  19.340  0.00  0.00    +0.000 C 
ATOM      6  O   UNL     1      -1.381  13.640  19.694  0.00  0.00    +0.000 OA
ATOM      7  N   UNL     1       0.083  11.845  19.672  0.00  0.00    +0.000 N 
ENDROOT
BRANCH   4   8
ATOM      8  C   UNL     1      -3.341  11.865  18.484  0.00  0.00    +0.000 A 
ATOM      9  C   UNL     1      -4.182  12.352  19.495  0.00  0.00    +0.000 A 
ATOM     10  C   UNL     1      -5.526  12.660  19.236  0.00  0.00    +0.000 A 
ATOM     11  C   UNL     1      -6.070  12.469  17.965  0.00  0.00    +0.000 A 
ATOM     12  C   UNL     1      -7.506  12.783  17.672  0.00  0.00    +0.000 C 
ATOM     13  C   UNL     1      -5.251  11.965  16.957  0.00  0.00    +0.000 A 
ATOM     14  C   UNL     1      -3.909  11.668  17.216  0.00  0.00    +0.000 A 
ENDBRANCH   4   8
BRANCH   7  15
ATOM     15  C   UNL     1       0.758  12.006  20.980  0.00  0.00    +0.000 C 
ATOM     16  C   UNL     1       1.019  13.447  21.451  0.00  0.00    +0.000 C 
ATOM     17  C   UNL     1      -0.129  14.159  22.167  0.00  0.00    +0.000 C 
ATOM     18  C   UNL     1      -0.975  13.281  23.087  0.00  0.00    +0.000 C 
ATOM     19  C   UNL     1      -1.200  11.850  22.615  0.00  0.00    +0.000 C 
ATOM     20  C   UNL     1       0.075  11.200  22.095  0.00  0.00    +0.000 C 
ENDBRANCH   7  15
BRANCH   1  21
ATOM     21  C   UNL     1       0.852   9.395  19.465  0.00  0.00    +0.000 C 
BRANCH  21  23
ATOM     22  N   UNL     1       2.285   7.573  18.764  0.00  0.00    +0.000 N 
ATOM     23  C   UNL     1       1.764   8.806  18.412  0.00  0.00    +0.000 C 
ATOM     24  O   UNL     1       1.968   9.420  17.371  0.00  0.00    +0.000 OA
ATOM     25  H   UNL     1       1.874   7.106  19.562  0.00  0.00    +0.000 HD
BRANCH  22  29
ATOM     26  C   UNL     1       4.922   5.177  16.503  0.00  0.00    +0.000 A 
ATOM     27  C   UNL     1       5.117   6.560  16.554  0.00  0.00    +0.000 A 
ATOM     28  C   UNL     1       4.257   7.364  17.300  0.00  0.00    +0.000 A 
ATOM     29  C   UNL     1       3.189   6.807  18.002  0.00  0.00    +0.000 A 
ATOM     30  C   UNL     1       2.997   5.421  17.958  0.00  0.00    +0.000 A 
ATOM     31  C   UNL     1       3.854   4.607  17.207  0.00  0.00    +0.000 A 
BRANCH  26  32
ATOM     32  C   UNL     1       5.844   4.389  15.645  0.00  0.00    +0.000 C 
ATOM     33  O   UNL     1       6.907   3.940  16.039  0.00  0.00    +0.000 OA
BRANCH  32  34
ATOM     34  O   UNL     1       5.376   4.339  14.375  0.00  0.00    +0.000 OA
BRANCH  34  36
ATOM     35  C   UNL     1       5.581   3.218  12.277  0.00  0.00    +0.000 C 
ATOM     36  C   UNL     1       6.335   3.907  13.400  0.00  0.00    +0.000 C 
ENDBRANCH  34  36
ENDBRANCH  32  34
ENDBRANCH  26  32
ENDBRANCH  22  29
ENDBRANCH  21  23
ENDBRANCH   1  21
TORSDOF 8
ENDMDL
MODEL 2
REMARK VINA RESULT:      -8.0      2.320      9.588
REMARK  Name = 
REMARK  10 active torsions:
REMARK  status: ('A' for Active; 'I' for Inactive)
REMARK    1  A    between atoms: C_1  and  C_2
REMARK    2  A    between atoms: C_2  and  O_3
REMARK    3  A    between atoms: O_3  and  C_4
REMARK    4  A    between atoms: C_4  and  C_6
REMARK    5  A    between atoms: C_9  and  N_10
REMARK    6  A    between atoms: C_11  and  C_13
REMARK    7  A    between atoms: C_13  and  C_14
REMARK    8  A    between atoms: N_17  and  C_18
REMARK    9  A    between atoms: C_21  and  C_22
REMARK   10  A    between atoms: N_27  and  C_28
REMARK                            x       y       z     vdW  Elec       q    Type
REMARK                         _______ _______ _______ _____ _____    ______ ____
ROOT
ATOM      1  C   UNL     1       0.745  10.068  19.007  0.00  0.00    +0.000 C 
ATOM      2  C   UNL     1       1.709   9.263  18.143  0.00  0.00    +0.000 C 
ATOM      3  O   UNL     1       2.137   9.660  17.067  0.00  0.00    +0.000 OA
ATOM      4  N   UNL     1       1.907   8.046  18.760  0.00  0.00    +0.000 N 
ATOM      5  C   UNL     1       1.438   8.121  20.057  0.00  0.00    +0.000 C 
ATOM      6  O   UNL     1       1.546   7.269  20.921  0.00  0.00    +0.000 OA
ATOM      7  N   UNL     1       0.957   9.419  20.294  0.00  0.00    +0.000 N 
ENDROOT
BRANCH   4   8
ATOM      8  C   UNL     1       2.706   6.973  18.270  0.00  0.00    +0.000 A 
ATOM      9  C   UNL     1       2.215   5.662  18.181  0.00  0.00    +0.000 A 
ATOM     10  C   UNL     1       2.990   4.631  17.632  0.00  0.00    +0.000 A 
ATOM     11  C   UNL     1       4.285   4.878  17.175  0.00  0.00    +0.000 A 
ATOM     12  C   UNL     1       5.133   3.788  16.593  0.00  0.00    +0.000 C 
ATOM     13  C   UNL     1       4.794   6.171  17.277  0.00  0.00    +0.000 A 
ATOM     14  C   UNL     1       4.015   7.200  17.818  0.00  0.00    +0.000 A 
ENDBRANCH   4   8
BRANCH   7  15
ATOM     15  C   UNL     1       1.240  10.171  21.537  0.00  0.00    +0.000 C 
ATOM     16  C   UNL     1       0.618  11.573  21.655  0.00  0.00    +0.000 C 
ATOM     17  C   UNL     1      -0.823  11.649  22.159  0.00  0.00    +0.000 C 
ATOM     18  C   UNL     1      -1.194  10.643  23.246  0.00  0.00    +0.000 C 
ATOM     19  C   UNL     1      -0.547   9.268  23.126  0.00  0.00    +0.000 C 
ATOM     20  C   UNL     1       0.938   9.349  22.800  0.00  0.00    +0.000 C 
ENDBRANCH   7  15
BRANCH   1  21
ATOM     21  C   UNL     1       0.939  11.572  18.879  0.00  0.00    +0.000 C 
BRANCH  21  23
ATOM     22  N   UNL     1      -1.477  11.408  18.927  0.00  0.00    +0.000 N 
ATOM     23  C   UNL     1      -0.401  12.217  18.604  0.00  0.00    +0.000 C 
ATOM     24  O   UNL     1      -0.447  13.352  18.142  0.00  0.00    +0.000 OA
ATOM     25  H   UNL     1      -1.286  10.581  19.479  0.00  0.00    +0.000 HD
BRANCH  22  29
ATOM     26  C   UNL     1      -5.552  12.292  18.279  0.00  0.00    +0.000 A 
ATOM     27  C   UNL     1      -4.935  12.706  19.463  0.00  0.00    +0.000 A 
ATOM     28  C   UNL     1      -3.588  12.425  19.690  0.00  0.00    +0.000 A 
ATOM     29  C   UNL     1      -2.837  11.726  18.746  0.00  0.00    +0.000 A 
ATOM     30  C   UNL     1      -3.451  11.319  17.556  0.00  0.00    +0.000 A 
ATOM     31  C   UNL     1      -4.805  11.593  17.323  0.00  0.00    +0.000 A 
BRANCH  26  32
ATOM     32  C   UNL     1      -7.001  12.578  18.130  0.00  0.00    +0.000 C 
ATOM     33  O   UNL     1      -7.494  13.030  17.109  0.00  0.00    +0.000 OA
BRANCH  32  34
ATOM     34  O   UNL     1      -7.647  12.359  19.300  0.00  0.00    +0.000 OA
BRANCH  34  36
ATOM     35  C   UNL     1      -7.833  11.046  21.285  0.00  0.00    +0.000 C 
ATOM     36  C   UNL     1      -7.554  11.016  19.793  0.00  0.00    +0.000 C 
ENDBRANCH  34  36
ENDBRANCH  32  34
ENDBRANCH  26  32
ENDBRANCH  22  29
ENDBRANCH  21  23
ENDBRANCH   1  21
TORSDOF 8
ENDMDL
MODEL 3
REMARK VINA RESULT:      -7.7      1.296      2.082
REMARK  Name = 
REMARK  10 active torsions:
REMARK  status: ('A' for Active; 'I' for Inactive)
REMARK    1  A    between atoms: C_1  and  C_2
REMARK    2  A    between atoms: C_2  and  O_3
REMARK    3  A    between atoms: O_3  and  C_4
REMARK    4  A    between atoms: C_4  and  C_6
REMARK    5  A    between atoms: C_9  and  N_10
REMARK    6  A    between atoms: C_11  and  C_13
REMARK    7  A    between atoms: C_13  and  C_14
REMARK    8  A    between atoms: N_17  and  C_18
REMARK    9  A    between atoms: C_21  and  C_22
REMARK   10  A    between atoms: N_27  and  C_28
REMARK                            x       y       z     vdW  Elec       q    Type
REMARK                         _______ _______ _______ _____ _____    ______ ____
ROOT
ATOM      1  C   UNL     1       0.310  10.310  18.532  0.00  0.00    +0.000 C 
ATOM      2  C   UNL     1      -1.104  10.340  19.101  0.00  0.00    +0.000 C 
ATOM      3  O   UNL     1      -1.647   9.364  19.601  0.00  0.00    +0.000 OA
ATOM      4  N   UNL     1      -1.622  11.596  18.866  0.00  0.00    +0.000 N 
ATOM      5  C   UNL     1      -0.593  12.445  18.509  0.00  0.00    +0.000 C 
ATOM      6  O   UNL     1      -0.670  13.649  18.333  0.00  0.00    +0.000 OA
ATOM      7  N   UNL     1       0.617  11.734  18.543  0.00  0.00    +0.000 N 
ENDROOT
BRANCH   4   8
ATOM      8  C   UNL     1      -2.934  12.042  19.199  0.00  0.00    +0.000 A 
ATOM      9  C   UNL     1      -4.037  11.786  18.372  0.00  0.00    +0.000 A 
ATOM     10  C   UNL     1      -5.333  12.171  18.748  0.00  0.00    +0.000 A 
ATOM     11  C   UNL     1      -5.556  12.840  19.952  0.00  0.00    +0.000 A 
ATOM     12  C   UNL     1      -6.932  13.268  20.367  0.00  0.00    +0.000 C 
ATOM     13  C   UNL     1      -4.466  13.120  20.773  0.00  0.00    +0.000 A 
ATOM     14  C   UNL     1      -3.177  12.727  20.400  0.00  0.00    +0.000 A 
ENDBRANCH   4   8
BRANCH   7  15
ATOM     15  C   UNL     1       1.860  12.284  19.129  0.00  0.00    +0.000 C 
ATOM     16  C   UNL     1       2.530  13.442  18.370  0.00  0.00    +0.000 C 
ATOM     17  C   UNL     1       1.999  14.849  18.648  0.00  0.00    +0.000 C 
ATOM     18  C   UNL     1       1.590  15.124  20.093  0.00  0.00    +0.000 C 
ATOM     19  C   UNL     1       0.953  13.956  20.836  0.00  0.00    +0.000 C 
ATOM     20  C   UNL     1       1.698  12.647  20.614  0.00  0.00    +0.000 C 
ENDBRANCH   7  15
BRANCH   1  21
ATOM     21  C   UNL     1       1.226   9.334  19.255  0.00  0.00    +0.000 C 
BRANCH  21  23
ATOM     22  N   UNL     1       2.705   7.497  18.705  0.00  0.00    +0.000 N 
ATOM     23  C   UNL     1       2.126   8.664  18.240  0.00  0.00    +0.000 C 
ATOM     24  O   UNL     1       2.273   9.167  17.131  0.00  0.00    +0.000 OA
ATOM     25  H   UNL     1       2.337   7.106  19.563  0.00  0.00    +0.000 HD
BRANCH  22  29
ATOM     26  C   UNL     1       5.499   5.158  16.575  0.00  0.00    +0.000 A 
ATOM     27  C   UNL     1       4.385   4.546  17.156  0.00  0.00    +0.000 A 
ATOM     28  C   UNL     1       3.452   5.305  17.859  0.00  0.00    +0.000 A 
ATOM     29  C   UNL     1       3.612   6.683  17.999  0.00  0.00    +0.000 A 
ATOM     30  C   UNL     1       4.723   7.299  17.410  0.00  0.00    +0.000 A 
ATOM     31  C   UNL     1       5.668   6.542  16.707  0.00  0.00    +0.000 A 
BRANCH  26  32
ATOM     32  C   UNL     1       6.480   4.280  15.889  0.00  0.00    +0.000 C 
ATOM     33  O   UNL     1       7.678   4.306  16.118  0.00  0.00    +0.000 OA
BRANCH  32  34
ATOM     34  O   UNL     1       5.864   3.544  14.933  0.00  0.00    +0.000 OA
BRANCH  34  36
ATOM     35  C   UNL     1       6.098   3.401  12.561  0.00  0.00    +0.000 C 
ATOM     36  C   UNL     1       5.596   4.251  13.714  0.00  0.00    +0.000 C 
ENDBRANCH  34  36
ENDBRANCH  32  34
ENDBRANCH  26  32
ENDBRANCH  22  29
ENDBRANCH  21  23
ENDBRANCH   1  21
TORSDOF 8
ENDMDL
MODEL 4
REMARK VINA RESULT:      -7.7      3.459      4.555
REMARK  Name = 
REMARK  10 active torsions:
REMARK  status: ('A' for Active; 'I' for Inactive)
REMARK    1  A    between atoms: C_1  and  C_2
REMARK    2  A    between atoms: C_2  and  O_3
REMARK    3  A    between atoms: O_3  and  C_4
REMARK    4  A    between atoms: C_4  and  C_6
REMARK    5  A    between atoms: C_9  and  N_10
REMARK    6  A    between atoms: C_11  and  C_13
REMARK    7  A    between atoms: C_13  and  C_14
REMARK    8  A    between atoms: N_17  and  C_18
REMARK    9  A    between atoms: C_21  and  C_22
REMARK   10  A    between atoms: N_27  and  C_28
REMARK                            x       y       z     vdW  Elec       q    Type
REMARK                         _______ _______ _______ _____ _____    ______ ____
ROOT
ATOM      1  C   UNL     1      -0.281  10.989  21.307  0.00  0.00    +0.000 C 
ATOM      2  C   UNL     1      -1.021  11.664  22.456  0.00  0.00    +0.000 C 
ATOM      3  O   UNL     1      -1.126  11.168  23.569  0.00  0.00    +0.000 OA
ATOM      4  N   UNL     1      -1.572  12.831  21.969  0.00  0.00    +0.000 N 
ATOM      5  C   UNL     1      -0.997  13.121  20.747  0.00  0.00    +0.000 C 
ATOM      6  O   UNL     1      -1.168  14.128  20.083  0.00  0.00    +0.000 OA
ATOM      7  N   UNL     1      -0.035  12.141  20.451  0.00  0.00    +0.000 N 
ENDROOT
BRANCH   4   8
ATOM      8  C   UNL     1      -2.381  13.749  22.699  0.00  0.00    +0.000 A 
ATOM      9  C   UNL     1      -1.826  14.705  23.561  0.00  0.00    +0.000 A 
ATOM     10  C   UNL     1      -2.632  15.646  24.218  0.00  0.00    +0.000 A 
ATOM     11  C   UNL     1      -4.017  15.643  24.047  0.00  0.00    +0.000 A 
ATOM     12  C   UNL     1      -4.896  16.634  24.748  0.00  0.00    +0.000 C 
ATOM     13  C   UNL     1      -4.584  14.684  23.210  0.00  0.00    +0.000 A 
ATOM     14  C   UNL     1      -3.777  13.752  22.549  0.00  0.00    +0.000 A 
ENDBRANCH   4   8
BRANCH   7  15
ATOM     15  C   UNL     1       1.299  12.463  19.897  0.00  0.00    +0.000 C 
ATOM     16  C   UNL     1       1.328  13.241  18.570  0.00  0.00    +0.000 C 
ATOM     17  C   UNL     1       1.206  14.762  18.658  0.00  0.00    +0.000 C 
ATOM     18  C   UNL     1       1.912  15.411  19.847  0.00  0.00    +0.000 C 
ATOM     19  C   UNL     1       1.894  14.612  21.145  0.00  0.00    +0.000 C 
ATOM     20  C   UNL     1       2.215  13.140  20.928  0.00  0.00    +0.000 C 
ENDBRANCH   7  15
BRANCH   1  21
ATOM     21  C   UNL     1       0.887  10.129  21.769  0.00  0.00    +0.000 C 
BRANCH  21  23
ATOM     22  N   UNL     1       1.857   8.253  20.585  0.00  0.00    +0.000 N 
ATOM     23  C   UNL     1       0.720   8.734  21.209  0.00  0.00    +0.000 C 
ATOM     24  O   UNL     1      -0.350   8.150  21.339  0.00  0.00    +0.000 OA
ATOM     25  H   UNL     1       2.718   8.767  20.728  0.00  0.00    +0.000 HD
BRANCH  22  29
ATOM     26  C   UNL     1       2.192   4.463  18.758  0.00  0.00    +0.000 A 
ATOM     27  C   UNL     1       2.504   5.613  18.027  0.00  0.00    +0.000 A 
ATOM     28  C   UNL     1       2.402   6.871  18.618  0.00  0.00    +0.000 A 
ATOM     29  C   UNL     1       1.985   7.006  19.942  0.00  0.00    +0.000 A 
ATOM     30  C   UNL     1       1.681   5.855  20.678  0.00  0.00    +0.000 A 
ATOM     31  C   UNL     1       1.776   4.588  20.089  0.00  0.00    +0.000 A 
BRANCH  26  32
ATOM     32  C   UNL     1       2.270   3.161  18.048  0.00  0.00    +0.000 C 
ATOM     33  O   UNL     1       2.052   3.034  16.855  0.00  0.00    +0.000 OA
BRANCH  32  34
ATOM     34  O   UNL     1       2.515   2.160  18.928  0.00  0.00    +0.000 OA
BRANCH  34  36
ATOM     35  C   UNL     1       4.484   2.046  20.272  0.00  0.00    +0.000 C 
ATOM     36  C   UNL     1       3.868   1.685  18.933  0.00  0.00    +0.000 C 
ENDBRANCH  34  36
ENDBRANCH  32  34
ENDBRANCH  26  32
ENDBRANCH  22  29
ENDBRANCH  21  23
ENDBRANCH   1  21
TORSDOF 8
ENDMDL
MODEL 5
REMARK VINA RESULT:      -7.7      0.732      1.101
REMARK  Name = 
REMARK  10 active torsions:
REMARK  status: ('A' for Active; 'I' for Inactive)
REMARK    1  A    between atoms: C_1  and  C_2
REMARK    2  A    between atoms: C_2  and  O_3
REMARK    3  A    between atoms: O_3  and  C_4
REMARK    4  A    between atoms: C_4  and  C_6
REMARK    5  A    between atoms: C_9  and  N_10
REMARK    6  A    between atoms: C_11  and  C_13
REMARK    7  A    between atoms: C_13  and  C_14
REMARK    8  A    between atoms: N_17  and  C_18
REMARK    9  A    between atoms: C_21  and  C_22
REMARK   10  A    between atoms: N_27  and  C_28
REMARK                            x       y       z     vdW  Elec       q    Type
REMARK                         _______ _______ _______ _____ _____    ______ ____
ROOT
ATOM      1  C   UNL     1       0.081  10.372  18.581  0.00  0.00    +0.000 C 
ATOM      2  C   UNL     1      -1.432  10.250  18.439  0.00  0.00    +0.000 C 
ATOM      3  O   UNL     1      -2.004   9.187  18.234  0.00  0.00    +0.000 OA
ATOM      4  N   UNL     1      -1.962  11.521  18.505  0.00  0.00    +0.000 N 
ATOM      5  C   UNL     1      -0.998  12.383  18.990  0.00  0.00    +0.000 C 
ATOM      6  O   UNL     1      -1.149  13.558  19.276  0.00  0.00    +0.000 OA
ATOM      7  N   UNL     1       0.167  11.651  19.272  0.00  0.00    +0.000 N 
ENDROOT
BRANCH   4   8
ATOM      8  C   UNL     1      -3.338  11.868  18.375  0.00  0.00    +0.000 A 
ATOM      9  C   UNL     1      -4.042  11.676  17.178  0.00  0.00    +0.000 A 
ATOM     10  C   UNL     1      -5.413  11.957  17.088  0.00  0.00    +0.000 A 
ATOM     11  C   UNL     1      -6.112  12.459  18.186  0.00  0.00    +0.000 A 
ATOM     12  C   UNL     1      -7.575  12.776  18.107  0.00  0.00    +0.000 C 
ATOM     13  C   UNL     1      -5.420  12.677  19.376  0.00  0.00    +0.000 A 
ATOM     14  C   UNL     1      -4.054  12.386  19.465  0.00  0.00    +0.000 A 
ENDBRANCH   4   8
BRANCH   7  15
ATOM     15  C   UNL     1       0.966  11.849  20.503  0.00  0.00    +0.000 C 
ATOM     16  C   UNL     1       1.401  13.289  20.822  0.00  0.00    +0.000 C 
ATOM     17  C   UNL     1       0.392  14.168  21.560  0.00  0.00    +0.000 C 
ATOM     18  C   UNL     1      -0.449  13.458  22.619  0.00  0.00    +0.000 C 
ATOM     19  C   UNL     1      -0.848  12.023  22.295  0.00  0.00    +0.000 C 
ATOM     20  C   UNL     1       0.310  11.208  21.736  0.00  0.00    +0.000 C 
ENDBRANCH   7  15
BRANCH   1  21
ATOM     21  C   UNL     1       0.726   9.137  19.194  0.00  0.00    +0.000 C 
BRANCH  21  23
ATOM     22  N   UNL     1       2.432   7.495  18.685  0.00  0.00    +0.000 N 
ATOM     23  C   UNL     1       1.906   8.728  18.341  0.00  0.00    +0.000 C 
ATOM     24  O   UNL     1       2.297   9.470  17.446  0.00  0.00    +0.000 OA
ATOM     25  H   UNL     1       1.885   6.915  19.309  0.00  0.00    +0.000 HD
BRANCH  22  29
ATOM     26  C   UNL     1       5.777   5.551  17.000  0.00  0.00    +0.000 A 
ATOM     27  C   UNL     1       5.215   6.651  16.346  0.00  0.00    +0.000 A 
ATOM     28  C   UNL     1       4.113   7.306  16.893  0.00  0.00    +0.000 A 
ATOM     29  C   UNL     1       3.550   6.876  18.093  0.00  0.00    +0.000 A 
ATOM     30  C   UNL     1       4.117   5.779  18.754  0.00  0.00    +0.000 A 
ATOM     31  C   UNL     1       5.221   5.113  18.208  0.00  0.00    +0.000 A 
BRANCH  26  32
ATOM     32  C   UNL     1       6.915   4.869  16.333  0.00  0.00    +0.000 C 
ATOM     33  O   UNL     1       7.877   4.425  16.937  0.00  0.00    +0.000 OA
BRANCH  32  34
ATOM     34  O   UNL     1       6.764   4.909  14.987  0.00  0.00    +0.000 OA
BRANCH  34  36
ATOM     35  C   UNL     1       6.283   3.828  12.914  0.00  0.00    +0.000 C 
ATOM     36  C   UNL     1       6.126   3.756  14.422  0.00  0.00    +0.000 C 
ENDBRANCH  34  36
ENDBRANCH  32  34
ENDBRANCH  26  32
ENDBRANCH  22  29
ENDBRANCH  21  23
ENDBRANCH   1  21
TORSDOF 8
ENDMDL
MODEL 6
REMARK VINA RESULT:      -7.6      2.364      9.643
REMARK  Name = 
REMARK  10 active torsions:
REMARK  status: ('A' for Active; 'I' for Inactive)
REMARK    1  A    between atoms: C_1  and  C_2
REMARK    2  A    between atoms: C_2  and  O_3
REMARK    3  A    between atoms: O_3  and  C_4
REMARK    4  A    between atoms: C_4  and  C_6
REMARK    5  A    between atoms: C_9  and  N_10
REMARK    6  A    between atoms: C_11  and  C_13
REMARK    7  A    between atoms: C_13  and  C_14
REMARK    8  A    between atoms: N_17  and  C_18
REMARK    9  A    between atoms: C_21  and  C_22
REMARK   10  A    between atoms: N_27  and  C_28
REMARK                            x       y       z     vdW  Elec       q    Type
REMARK                         _______ _______ _______ _____ _____    ______ ____
ROOT
ATOM      1  C   UNL     1       0.809  10.062  18.989  0.00  0.00    +0.000 C 
ATOM      2  C   UNL     1       1.753   9.237  18.122  0.00  0.00    +0.000 C 
ATOM      3  O   UNL     1       2.200   9.631  17.053  0.00  0.00    +0.000 OA
ATOM      4  N   UNL     1       1.910   8.008  18.728  0.00  0.00    +0.000 N 
ATOM      5  C   UNL     1       1.436   8.084  20.023  0.00  0.00    +0.000 C 
ATOM      6  O   UNL     1       1.513   7.220  20.879  0.00  0.00    +0.000 OA
ATOM      7  N   UNL     1       0.993   9.394  20.270  0.00  0.00    +0.000 N 
ENDROOT
BRANCH   4   8
ATOM      8  C   UNL     1       2.679   6.916  18.232  0.00  0.00    +0.000 A 
ATOM      9  C   UNL     1       4.022   7.063  17.859  0.00  0.00    +0.000 A 
ATOM     10  C   UNL     1       4.784   5.963  17.439  0.00  0.00    +0.000 A 
ATOM     11  C   UNL     1       4.217   4.690  17.360  0.00  0.00    +0.000 A 
ATOM     12  C   UNL     1       5.012   3.504  16.904  0.00  0.00    +0.000 C 
ATOM     13  C   UNL     1       2.877   4.534  17.706  0.00  0.00    +0.000 A 
ATOM     14  C   UNL     1       2.121   5.631  18.134  0.00  0.00    +0.000 A 
ENDBRANCH   4   8
BRANCH   7  15
ATOM     15  C   UNL     1       1.291  10.124  21.523  0.00  0.00    +0.000 C 
ATOM     16  C   UNL     1       0.672  11.524  21.672  0.00  0.00    +0.000 C 
ATOM     17  C   UNL     1      -0.763  11.593  22.194  0.00  0.00    +0.000 C 
ATOM     18  C   UNL     1      -1.123  10.569  23.268  0.00  0.00    +0.000 C 
ATOM     19  C   UNL     1      -0.478   9.196  23.117  0.00  0.00    +0.000 C 
ATOM     20  C   UNL     1       1.003   9.281  22.775  0.00  0.00    +0.000 C 
ENDBRANCH   7  15
BRANCH   1  21
ATOM     21  C   UNL     1       1.050  11.561  18.877  0.00  0.00    +0.000 C 
BRANCH  21  23
ATOM     22  N   UNL     1      -1.368  11.425  18.890  0.00  0.00    +0.000 N 
ATOM     23  C   UNL     1      -0.280  12.258  18.697  0.00  0.00    +0.000 C 
ATOM     24  O   UNL     1      -0.309  13.450  18.411  0.00  0.00    +0.000 OA
ATOM     25  H   UNL     1      -1.192  10.521  19.312  0.00  0.00    +0.000 HD
BRANCH  22  29
ATOM     26  C   UNL     1      -5.431  12.440  18.372  0.00  0.00    +0.000 A 
ATOM     27  C   UNL     1      -4.777  12.792  19.556  0.00  0.00    +0.000 A 
ATOM     28  C   UNL     1      -3.434  12.467  19.740  0.00  0.00    +0.000 A 
ATOM     29  C   UNL     1      -2.723  11.785  18.753  0.00  0.00    +0.000 A 
ATOM     30  C   UNL     1      -3.375  11.440  17.563  0.00  0.00    +0.000 A 
ATOM     31  C   UNL     1      -4.725  11.758  17.373  0.00  0.00    +0.000 A 
BRANCH  26  32
ATOM     32  C   UNL     1      -6.876  12.769  18.268  0.00  0.00    +0.000 C 
ATOM     33  O   UNL     1      -7.761  11.934  18.354  0.00  0.00    +0.000 OA
BRANCH  32  34
ATOM     34  O   UNL     1      -7.039  14.081  17.972  0.00  0.00    +0.000 OA
BRANCH  34  36
ATOM     35  C   UNL     1      -7.238  15.879  16.415  0.00  0.00    +0.000 C 
ATOM     36  C   UNL     1      -6.991  14.389  16.573  0.00  0.00    +0.000 C 
ENDBRANCH  34  36
ENDBRANCH  32  34
ENDBRANCH  26  32
ENDBRANCH  22  29
ENDBRANCH  21  23
ENDBRANCH   1  21
TORSDOF 8
ENDMDL
MODEL 7
REMARK VINA RESULT:      -7.6      0.334      1.197
REMARK  Name = 
REMARK  10 active torsions:
REMARK  status: ('A' for Active; 'I' for Inactive)
REMARK    1  A    between atoms: C_1  and  C_2
REMARK    2  A    between atoms: C_2  and  O_3
REMARK    3  A    between atoms: O_3  and  C_4
REMARK    4  A    between atoms: C_4  and  C_6
REMARK    5  A    between atoms: C_9  and  N_10
REMARK    6  A    between atoms: C_11  and  C_13
REMARK    7  A    between atoms: C_13  and  C_14
REMARK    8  A    between atoms: N_17  and  C_18
REMARK    9  A    between atoms: C_21  and  C_22
REMARK   10  A    between atoms: N_27  and  C_28
REMARK                            x       y       z     vdW  Elec       q    Type
REMARK                         _______ _______ _______ _____ _____    ______ ____
ROOT
ATOM      1  C   UNL     1       0.190  10.770  18.980  0.00  0.00    +0.000 C 
ATOM      2  C   UNL     1      -1.287  10.518  18.695  0.00  0.00    +0.000 C 
ATOM      3  O   UNL     1      -1.732   9.423  18.379  0.00  0.00    +0.000 OA
ATOM      4  N   UNL     1      -1.942  11.728  18.787  0.00  0.00    +0.000 N 
ATOM      5  C   UNL     1      -1.112  12.641  19.405  0.00  0.00    +0.000 C 
ATOM      6  O   UNL     1      -1.400  13.775  19.745  0.00  0.00    +0.000 OA
ATOM      7  N   UNL     1       0.092  12.003  19.749  0.00  0.00    +0.000 N 
ENDROOT
BRANCH   4   8
ATOM      8  C   UNL     1      -3.330  11.953  18.554  0.00  0.00    +0.000 A 
ATOM      9  C   UNL     1      -3.927  11.688  17.313  0.00  0.00    +0.000 A 
ATOM     10  C   UNL     1      -5.307  11.850  17.121  0.00  0.00    +0.000 A 
ATOM     11  C   UNL     1      -6.123  12.301  18.159  0.00  0.00    +0.000 A 
ATOM     12  C   UNL     1      -7.598  12.489  17.971  0.00  0.00    +0.000 C 
ATOM     13  C   UNL     1      -5.540  12.590  19.391  0.00  0.00    +0.000 A 
ATOM     14  C   UNL     1      -4.164  12.419  19.582  0.00  0.00    +0.000 A 
ENDBRANCH   4   8
BRANCH   7  15
ATOM     15  C   UNL     1       0.761  12.192  21.056  0.00  0.00    +0.000 C 
ATOM     16  C   UNL     1       1.033  13.642  21.491  0.00  0.00    +0.000 C 
ATOM     17  C   UNL     1      -0.112  14.383  22.182  0.00  0.00    +0.000 C 
ATOM     18  C   UNL     1      -0.972  13.537  23.119  0.00  0.00    +0.000 C 
ATOM     19  C   UNL     1      -1.207  12.096  22.683  0.00  0.00    +0.000 C 
ATOM     20  C   UNL     1       0.064  11.421  22.188  0.00  0.00    +0.000 C 
ENDBRANCH   7  15
BRANCH   1  21
ATOM     21  C   UNL     1       0.899   9.563  19.576  0.00  0.00    +0.000 C 
BRANCH  21  23
ATOM     22  N   UNL     1       2.208   7.651  18.870  0.00  0.00    +0.000 N 
ATOM     23  C   UNL     1       1.697   8.878  18.488  0.00  0.00    +0.000 C 
ATOM     24  O   UNL     1       1.829   9.422  17.396  0.00  0.00    +0.000 OA
ATOM     25  H   UNL     1       1.853   7.248  19.729  0.00  0.00    +0.000 HD
BRANCH  22  29
ATOM     26  C   UNL     1       4.704   5.222  16.487  0.00  0.00    +0.000 A 
ATOM     27  C   UNL     1       3.674   4.637  17.228  0.00  0.00    +0.000 A 
ATOM     28  C   UNL     1       2.839   5.427  18.017  0.00  0.00    +0.000 A 
ATOM     29  C   UNL     1       3.016   6.808  18.084  0.00  0.00    +0.000 A 
ATOM     30  C   UNL     1       4.042   7.396  17.334  0.00  0.00    +0.000 A 
ATOM     31  C   UNL     1       4.888   6.609  16.544  0.00  0.00    +0.000 A 
BRANCH  26  32
ATOM     32  C   UNL     1       5.588   4.315  15.713  0.00  0.00    +0.000 C 
ATOM     33  O   UNL     1       5.946   3.221  16.118  0.00  0.00    +0.000 OA
BRANCH  32  34
ATOM     34  O   UNL     1       5.997   4.918  14.571  0.00  0.00    +0.000 OA
BRANCH  34  36
ATOM     35  C   UNL     1       5.424   3.588  12.673  0.00  0.00    +0.000 C 
ATOM     36  C   UNL     1       6.550   4.030  13.590  0.00  0.00    +0.000 C 
ENDBRANCH  34  36
ENDBRANCH  32  34
ENDBRANCH  26  32
ENDBRANCH  22  29
ENDBRANCH  21  23
ENDBRANCH   1  21
TORSDOF 8
ENDMDL
MODEL 8
REMARK VINA RESULT:      -7.6      2.725      4.238
REMARK  Name = 
REMARK  10 active torsions:
REMARK  status: ('A' for Active; 'I' for Inactive)
REMARK    1  A    between atoms: C_1  and  C_2
REMARK    2  A    between atoms: C_2  and  O_3
REMARK    3  A    between atoms: O_3  and  C_4
REMARK    4  A    between atoms: C_4  and  C_6
REMARK    5  A    between atoms: C_9  and  N_10
REMARK    6  A    between atoms: C_11  and  C_13
REMARK    7  A    between atoms: C_13  and  C_14
REMARK    8  A    between atoms: N_17  and  C_18
REMARK    9  A    between atoms: C_21  and  C_22
REMARK   10  A    between atoms: N_27  and  C_28
REMARK                            x       y       z     vdW  Elec       q    Type
REMARK                         _______ _______ _______ _____ _____    ______ ____
ROOT
ATOM      1  C   UNL     1       0.434  11.685  20.788  0.00  0.00    +0.000 C 
ATOM      2  C   UNL     1       0.635  12.619  19.600  0.00  0.00    +0.000 C 
ATOM      3  O   UNL     1       0.887  12.223  18.470  0.00  0.00    +0.000 OA
ATOM      4  N   UNL     1       0.556  13.914  20.068  0.00  0.00    +0.000 N 
ATOM      5  C   UNL     1       0.014  13.898  21.338  0.00  0.00    +0.000 C 
ATOM      6  O   UNL     1      -0.297  14.866  22.009  0.00  0.00    +0.000 OA
ATOM      7  N   UNL     1      -0.292  12.572  21.687  0.00  0.00    +0.000 N 
ENDROOT
BRANCH   4   8
ATOM      8  C   UNL     1       0.727  15.100  19.297  0.00  0.00    +0.000 A 
ATOM      9  C   UNL     1       1.996  15.584  18.952  0.00  0.00    +0.000 A 
ATOM     10  C   UNL     1       2.146  16.714  18.134  0.00  0.00    +0.000 A 
ATOM     11  C   UNL     1       1.030  17.402  17.657  0.00  0.00    +0.000 A 
ATOM     12  C   UNL     1       1.169  18.617  16.790  0.00  0.00    +0.000 C 
ATOM     13  C   UNL     1      -0.238  16.945  18.010  0.00  0.00    +0.000 A 
ATOM     14  C   UNL     1      -0.384  15.812  18.819  0.00  0.00    +0.000 A 
ENDBRANCH   4   8
BRANCH   7  15
ATOM     15  C   UNL     1      -1.556  12.184  22.353  0.00  0.00    +0.000 C 
ATOM     16  C   UNL     1      -1.790  12.738  23.769  0.00  0.00    +0.000 C 
ATOM     17  C   UNL     1      -2.386  14.142  23.872  0.00  0.00    +0.000 C 
ATOM     18  C   UNL     1      -3.436  14.490  22.819  0.00  0.00    +0.000 C 
ATOM     19  C   UNL     1      -3.199  13.909  21.430  0.00  0.00    +0.000 C 
ATOM     20  C   UNL     1      -2.787  12.445  21.471  0.00  0.00    +0.000 C 
ENDBRANCH   7  15
BRANCH   1  21
ATOM     21  C   UNL     1      -0.170  10.344  20.400  0.00  0.00    +0.000 C 
BRANCH  21  23
ATOM     22  N   UNL     1       1.290   8.857  19.165  0.00  0.00    +0.000 N 
ATOM     23  C   UNL     1       0.918   9.292  20.424  0.00  0.00    +0.000 C 
ATOM     24  O   UNL     1       1.378   8.917  21.497  0.00  0.00    +0.000 OA
ATOM     25  H   UNL     1       0.964   9.397  18.372  0.00  0.00    +0.000 HD
BRANCH  22  29
ATOM     26  C   UNL     1       4.109   5.810  18.405  0.00  0.00    +0.000 A 
ATOM     27  C   UNL     1       4.024   6.905  17.540  0.00  0.00    +0.000 A 
ATOM     28  C   UNL     1       3.101   7.921  17.780  0.00  0.00    +0.000 A 
ATOM     29  C   UNL     1       2.246   7.863  18.880  0.00  0.00    +0.000 A 
ATOM     30  C   UNL     1       2.336   6.772  19.752  0.00  0.00    +0.000 A 
ATOM     31  C   UNL     1       3.258   5.745  19.515  0.00  0.00    +0.000 A 
BRANCH  26  32
ATOM     32  C   UNL     1       5.077   4.739  18.057  0.00  0.00    +0.000 C 
ATOM     33  O   UNL     1       5.957   4.360  18.812  0.00  0.00    +0.000 OA
BRANCH  32  34
ATOM     34  O   UNL     1       4.894   4.337  16.776  0.00  0.00    +0.000 OA
BRANCH  34  36
ATOM     35  C   UNL     1       5.793   4.397  14.566  0.00  0.00    +0.000 C 
ATOM     36  C   UNL     1       6.103   4.145  16.031  0.00  0.00    +0.000 C 
ENDBRANCH  34  36
ENDBRANCH  32  34
ENDBRANCH  26  32
ENDBRANCH  22  29
ENDBRANCH  21  23
ENDBRANCH   1  21
TORSDOF 8
ENDMDL
MODEL 9
REMARK VINA RESULT:      -7.6      2.613      5.151
REMARK  Name = 
REMARK  10 active torsions:
REMARK  status: ('A' for Active; 'I' for Inactive)
REMARK    1  A    between atoms: C_1  and  C_2
REMARK    2  A    between atoms: C_2  and  O_3
REMARK    3  A    between atoms: O_3  and  C_4
REMARK    4  A    between atoms: C_4  and  C_6
REMARK    5  A    between atoms: C_9  and  N_10
REMARK    6  A    between atoms: C_11  and  C_13
REMARK    7  A    between atoms: C_13  and  C_14
REMARK    8  A    between atoms: N_17  and  C_18
REMARK    9  A    between atoms: C_21  and  C_22
REMARK   10  A    between atoms: N_27  and  C_28
REMARK                            x       y       z     vdW  Elec       q    Type
REMARK                         _______ _______ _______ _____ _____    ______ ____
ROOT
ATOM      1  C   UNL     1      -0.908  11.310  20.485  0.00  0.00    +0.000 C 
ATOM      2  C   UNL     1      -0.604  12.381  21.527  0.00  0.00    +0.000 C 
ATOM      3  O   UNL     1       0.496  12.520  22.046  0.00  0.00    +0.000 OA
ATOM      4  N   UNL     1      -1.779  13.052  21.791  0.00  0.00    +0.000 N 
ATOM      5  C   UNL     1      -2.701  12.743  20.811  0.00  0.00    +0.000 C 
ATOM      6  O   UNL     1      -3.807  13.235  20.669  0.00  0.00    +0.000 OA
ATOM      7  N   UNL     1      -2.103  11.879  19.878  0.00  0.00    +0.000 N 
ENDROOT
BRANCH   4   8
ATOM      8  C   UNL     1      -1.954  14.105  22.735  0.00  0.00    +0.000 A 
ATOM      9  C   UNL     1      -2.590  13.899  23.967  0.00  0.00    +0.000 A 
ATOM     10  C   UNL     1      -2.692  14.929  24.914  0.00  0.00    +0.000 A 
ATOM     11  C   UNL     1      -2.178  16.198  24.645  0.00  0.00    +0.000 A 
ATOM     12  C   UNL     1      -2.286  17.314  25.640  0.00  0.00    +0.000 C 
ATOM     13  C   UNL     1      -1.563  16.423  23.416  0.00  0.00    +0.000 A 
ATOM     14  C   UNL     1      -1.455  15.392  22.477  0.00  0.00    +0.000 A 
ENDBRANCH   4   8
BRANCH   7  15
ATOM     15  C   UNL     1      -2.267  12.034  18.415  0.00  0.00    +0.000 C 
ATOM     16  C   UNL     1      -1.353  11.177  17.522  0.00  0.00    +0.000 C 
ATOM     17  C   UNL     1      -1.811   9.748  17.234  0.00  0.00    +0.000 C 
ATOM     18  C   UNL     1      -3.316   9.565  17.047  0.00  0.00    +0.000 C 
ATOM     19  C   UNL     1      -4.204  10.442  17.922  0.00  0.00    +0.000 C 
ATOM     20  C   UNL     1      -3.730  11.888  17.970  0.00  0.00    +0.000 C 
ENDBRANCH   7  15
BRANCH   1  21
ATOM     21  C   UNL     1       0.291  10.964  19.614  0.00  0.00    +0.000 C 
BRANCH  21  23
ATOM     22  N   UNL     1       1.668   9.060  19.029  0.00  0.00    +0.000 N 
ATOM     23  C   UNL     1       0.718   9.544  19.911  0.00  0.00    +0.000 C 
ATOM     24  O   UNL     1       0.227   8.947  20.863  0.00  0.00    +0.000 OA
ATOM     25  H   UNL     1       2.119   9.730  18.418  0.00  0.00    +0.000 HD
BRANCH  22  29
ATOM     26  C   UNL     1       3.381   5.204  18.938  0.00  0.00    +0.000 A 
ATOM     27  C   UNL     1       2.711   5.636  20.085  0.00  0.00    +0.000 A 
ATOM     28  C   UNL     1       2.136   6.905  20.129  0.00  0.00    +0.000 A 
ATOM     29  C   UNL     1       2.223   7.765  19.036  0.00  0.00    +0.000 A 
ATOM     30  C   UNL     1       2.886   7.331  17.882  0.00  0.00    +0.000 A 
ATOM     31  C   UNL     1       3.470   6.059  17.832  0.00  0.00    +0.000 A 
BRANCH  26  32
ATOM     32  C   UNL     1       4.016   3.863  18.982  0.00  0.00    +0.000 C 
ATOM     33  O   UNL     1       5.103   3.652  19.493  0.00  0.00    +0.000 OA
BRANCH  32  34
ATOM     34  O   UNL     1       3.265   2.965  18.300  0.00  0.00    +0.000 OA
BRANCH  34  36
ATOM     35  C   UNL     1       1.000   2.415  18.817  0.00  0.00    +0.000 C 
ATOM     36  C   UNL     1       2.456   2.113  19.123  0.00  0.00    +0.000 C 
ENDBRANCH  34  36
ENDBRANCH  32  34
ENDBRANCH  26  32
ENDBRANCH  22  29
ENDBRANCH  21  23
ENDBRANCH   1  21
TORSDOF 8
ENDMDL
