MODEL 1
REMARK VINA RESULT:      -8.5      0.000      0.000
REMARK  Name = 
REMARK  5 active torsions:
REMARK  status: ('A' for Active; 'I' for Inactive)
REMARK    1  A    between atoms: C_1  and  C_2
REMARK    2  A    between atoms: C_2  and  C_3
REMARK    3  A    between atoms: C_5  and  N_6
REMARK    4  A    between atoms: C_7  and  C_9
REMARK    5  A    between atoms: C_23  and  C_24
REMARK                            x       y       z     vdW  Elec       q    Type
REMARK                         _______ _______ _______ _____ _____    ______ ____
ROOT
ATOM      1  C   UNL     1       0.012  10.863  20.458  0.00  0.00    +0.000 A 
ATOM      2  C   UNL     1       0.696   9.874  19.726  0.00  0.00    +0.000 A 
ATOM      3  C   UNL     1       1.283   8.755  20.333  0.00  0.00    +0.000 A 
ATOM      4  C   UNL     1       1.159   8.594  21.716  0.00  0.00    +0.000 A 
ATOM      5  C   UNL     1       0.486   9.560  22.471  0.00  0.00    +0.000 A 
ATOM      6  C   UNL     1      -0.076  10.673  21.843  0.00  0.00    +0.000 A 
ATOM      7  F   UNL     1      -0.718  11.570  22.606  0.00  0.00    +0.000 F 
ENDROOT
BRANCH   1   9
ATOM      8  C   UNL     1       0.495  13.219  19.734  0.00  0.00    +0.000 C 
ATOM      9  C   UNL     1      -0.578  12.103  19.761  0.00  0.00    +0.000 C 
ATOM     10  C   UNL     1      -1.816  12.646  20.526  0.00  0.00    +0.000 C 
ATOM     11  N   UNL     1      -3.065  12.294  19.890  0.00  0.00    +0.000 N 
ATOM     12  N   UNL     1      -4.252  12.516  20.487  0.00  0.00    +0.000 NA
ATOM     13  C   UNL     1      -5.137  12.244  19.517  0.00  0.00    +0.000 A 
ATOM     14  C   UNL     1      -4.506  11.851  18.315  0.00  0.00    +0.000 A 
ATOM     15  C   UNL     1      -3.156  11.911  18.591  0.00  0.00    +0.000 A 
ATOM     16  C   UNL     1      -1.987  11.715  17.794  0.00  0.00    +0.000 C 
ATOM     17  N   UNL     1      -2.044  11.394  16.470  0.00  0.00    +0.000 N 
ATOM     18  N   UNL     1      -0.818  11.835  18.317  0.00  0.00    +0.000 NA
ATOM     19  H   UNL     1      -2.852  10.864  16.172  0.00  0.00    +0.000 HD
ATOM     20  H   UNL     1      -1.168  10.990  16.151  0.00  0.00    +0.000 HD
BRANCH  13  21
ATOM     21  C   UNL     1      -6.543  12.402  19.754  0.00  0.00    +0.000 C 
ATOM     22  N   UNL     1      -7.682  12.487  19.970  0.00  0.00    +0.000 NA
ENDBRANCH  13  21
ENDBRANCH   1   9
BRANCH   3  23
ATOM     23  N   UNL     1       2.001   7.778  19.607  0.00  0.00    +0.000 N 
ATOM     24  C   UNL     1       2.449   7.897  18.299  0.00  0.00    +0.000 C 
ATOM     25  O   UNL     1       2.325   8.874  17.566  0.00  0.00    +0.000 OA
ATOM     26  H   UNL     1       2.288   6.926  20.086  0.00  0.00    +0.000 HD
BRANCH  24  27
ATOM     27  C   UNL     1       3.188   6.707  17.770  0.00  0.00    +0.000 A 
ATOM     28  C   UNL     1       4.371   6.917  17.058  0.00  0.00    +0.000 A 
ATOM     29  C   UNL     1       5.071   5.812  16.584  0.00  0.00    +0.000 A 
ATOM     30  C   UNL     1       4.562   4.548  16.831  0.00  0.00    +0.000 A 
ATOM     31  F   UNL     1       5.213   3.464  16.396  0.00  0.00    +0.000 F 
ATOM     32  C   UNL     1       3.374   4.424  17.539  0.00  0.00    +0.000 A 
ATOM     33  N   UNL     1       2.663   5.476  18.025  0.00  0.00    +0.000 NA
ENDBRANCH  24  27
ENDBRANCH   3  23
TORSDOF 4
ENDMDL
MODEL 2
REMARK VINA RESULT:      -8.4      1.019      1.034
REMARK  Name = 
REMARK  5 active torsions:
REMARK  status: ('A' for Active; 'I' for Inactive)
REMARK    1  A    between atoms: C_1  and  C_2
REMARK    2  A    between atoms: C_2  and  C_3
REMARK    3  A    between atoms: C_5  and  N_6
REMARK    4  A    between atoms: C_7  and  C_9
REMARK    5  A    between atoms: C_23  and  C_24
REMARK                            x       y       z     vdW  Elec       q    Type
REMARK                         _______ _______ _______ _____ _____    ______ ____
ROOT
ATOM      1  C   UNL     1       0.050  10.842  20.484  0.00  0.00    +0.000 A 
ATOM      2  C   UNL     1       0.759   9.892  19.725  0.00  0.00    +0.000 A 
ATOM      3  C   UNL     1       1.356   8.760  20.298  0.00  0.00    +0.000 A 
ATOM      4  C   UNL     1       1.218   8.547  21.673  0.00  0.00    +0.000 A 
ATOM      5  C   UNL     1       0.521   9.474  22.454  0.00  0.00    +0.000 A 
ATOM      6  C   UNL     1      -0.051  10.601  21.860  0.00  0.00    +0.000 A 
ATOM      7  F   UNL     1      -0.716  11.459  22.647  0.00  0.00    +0.000 F 
ENDROOT
BRANCH   1   9
ATOM      8  C   UNL     1       0.522  13.215  19.805  0.00  0.00    +0.000 C 
ATOM      9  C   UNL     1      -0.551  12.098  19.826  0.00  0.00    +0.000 C 
ATOM     10  C   UNL     1      -1.775  12.624  20.624  0.00  0.00    +0.000 C 
ATOM     11  N   UNL     1      -3.036  12.287  20.002  0.00  0.00    +0.000 N 
ATOM     12  N   UNL     1      -4.212  12.495  20.624  0.00  0.00    +0.000 NA
ATOM     13  C   UNL     1      -5.114  12.246  19.664  0.00  0.00    +0.000 A 
ATOM     14  C   UNL     1      -4.503  11.880  18.443  0.00  0.00    +0.000 A 
ATOM     15  C   UNL     1      -3.148  11.933  18.696  0.00  0.00    +0.000 A 
ATOM     16  C   UNL     1      -1.994  11.755  17.875  0.00  0.00    +0.000 C 
ATOM     17  N   UNL     1      -2.074  11.465  16.546  0.00  0.00    +0.000 N 
ATOM     18  N   UNL     1      -0.816  11.863  18.380  0.00  0.00    +0.000 NA
ATOM     19  H   UNL     1      -2.887  10.941  16.250  0.00  0.00    +0.000 HD
ATOM     20  H   UNL     1      -1.204  11.068  16.203  0.00  0.00    +0.000 HD
BRANCH  13  21
ATOM     21  C   UNL     1      -6.515  12.398  19.929  0.00  0.00    +0.000 C 
ATOM     22  N   UNL     1      -7.645  12.497  20.185  0.00  0.00    +0.000 NA
ENDBRANCH  13  21
ENDBRANCH   1   9
BRANCH   3  23
ATOM     23  N   UNL     1       2.097   7.822  19.545  0.00  0.00    +0.000 N 
ATOM     24  C   UNL     1       2.194   6.462  19.801  0.00  0.00    +0.000 C 
ATOM     25  O   UNL     1       1.634   5.842  20.700  0.00  0.00    +0.000 OA
ATOM     26  H   UNL     1       2.557   8.135  18.692  0.00  0.00    +0.000 HD
BRANCH  24  27
ATOM     27  C   UNL     1       3.049   5.694  18.841  0.00  0.00    +0.000 A 
ATOM     28  C   UNL     1       3.692   6.389  17.814  0.00  0.00    +0.000 A 
ATOM     29  C   UNL     1       4.504   5.681  16.934  0.00  0.00    +0.000 A 
ATOM     30  C   UNL     1       4.636   4.313  17.107  0.00  0.00    +0.000 A 
ATOM     31  F   UNL     1       5.414   3.604  16.283  0.00  0.00    +0.000 F 
ATOM     32  C   UNL     1       3.956   3.694  18.147  0.00  0.00    +0.000 A 
ATOM     33  N   UNL     1       3.158   4.349  19.033  0.00  0.00    +0.000 NA
ENDBRANCH  24  27
ENDBRANCH   3  23
TORSDOF 4
ENDMDL
MODEL 3
REMARK VINA RESULT:      -8.4      5.098      8.327
REMARK  Name = 
REMARK  5 active torsions:
REMARK  status: ('A' for Active; 'I' for Inactive)
REMARK    1  A    between atoms: C_1  and  C_2
REMARK    2  A    between atoms: C_2  and  C_3
REMARK    3  A    between atoms: C_5  and  N_6
REMARK    4  A    between atoms: C_7  and  C_9
REMARK    5  A    between atoms: C_23  and  C_24
REMARK                            x       y       z     vdW  Elec       q    Type
REMARK                         _______ _______ _______ _____ _____    ______ ____
ROOT
ATOM      1  C   UNL     1       5.709   6.384  18.035  0.00  0.00    +0.000 A 
ATOM      2  C   UNL     1       6.327   7.613  17.738  0.00  0.00    +0.000 A 
ATOM      3  C   UNL     1       7.667   7.881  18.050  0.00  0.00    +0.000 A 
ATOM      4  C   UNL     1       8.434   6.878  18.651  0.00  0.00    +0.000 A 
ATOM      5  C   UNL     1       7.848   5.646  18.959  0.00  0.00    +0.000 A 
ATOM      6  C   UNL     1       6.507   5.411  18.653  0.00  0.00    +0.000 A 
ATOM      7  F   UNL     1       5.990   4.213  18.960  0.00  0.00    +0.000 F 
ENDROOT
BRANCH   1   9
ATOM      8  C   UNL     1       4.103   4.958  16.732  0.00  0.00    +0.000 C 
ATOM      9  C   UNL     1       4.221   6.144  17.721  0.00  0.00    +0.000 C 
ATOM     10  C   UNL     1       3.576   7.390  17.053  0.00  0.00    +0.000 C 
ATOM     11  N   UNL     1       2.760   8.155  17.968  0.00  0.00    +0.000 N 
ATOM     12  N   UNL     1       2.261   9.361  17.635  0.00  0.00    +0.000 NA
ATOM     13  C   UNL     1       1.424   9.635  18.646  0.00  0.00    +0.000 A 
ATOM     14  C   UNL     1       1.401   8.604  19.612  0.00  0.00    +0.000 A 
ATOM     15  C   UNL     1       2.271   7.649  19.129  0.00  0.00    +0.000 A 
ATOM     16  C   UNL     1       2.638   6.345  19.581  0.00  0.00    +0.000 C 
ATOM     17  N   UNL     1       2.116   5.782  20.706  0.00  0.00    +0.000 N 
ATOM     18  N   UNL     1       3.498   5.649  18.923  0.00  0.00    +0.000 NA
ATOM     19  H   UNL     1       1.840   6.421  21.441  0.00  0.00    +0.000 HD
ATOM     20  H   UNL     1       2.701   5.023  21.044  0.00  0.00    +0.000 HD
BRANCH  13  21
ATOM     21  C   UNL     1       0.653  10.845  18.640  0.00  0.00    +0.000 C 
ATOM     22  N   UNL     1       0.020  11.819  18.685  0.00  0.00    +0.000 NA
ENDBRANCH  13  21
ENDBRANCH   1   9
BRANCH   3  23
ATOM     23  N   UNL     1       8.281   9.126  17.785  0.00  0.00    +0.000 N 
ATOM     24  C   UNL     1       8.890   9.951  18.719  0.00  0.00    +0.000 C 
ATOM     25  O   UNL     1       9.025   9.731  19.918  0.00  0.00    +0.000 OA
ATOM     26  H   UNL     1       8.356   9.437  16.818  0.00  0.00    +0.000 HD
BRANCH  24  27
ATOM     27  C   UNL     1       9.465  11.219  18.166  0.00  0.00    +0.000 A 
ATOM     28  C   UNL     1      10.843  11.290  17.949  0.00  0.00    +0.000 A 
ATOM     29  C   UNL     1      11.377  12.459  17.416  0.00  0.00    +0.000 A 
ATOM     30  C   UNL     1      10.520  13.508  17.128  0.00  0.00    +0.000 A 
ATOM     31  F   UNL     1      11.000  14.644  16.608  0.00  0.00    +0.000 F 
ATOM     32  C   UNL     1       9.163  13.363  17.381  0.00  0.00    +0.000 A 
ATOM     33  N   UNL     1       8.600  12.237  17.895  0.00  0.00    +0.000 NA
ENDBRANCH  24  27
ENDBRANCH   3  23
TORSDOF 4
ENDMDL
MODEL 4
REMARK VINA RESULT:      -8.3      1.382      1.530
REMARK  Name = 
REMARK  5 active torsions:
REMARK  status: ('A' for Active; 'I' for Inactive)
REMARK    1  A    between atoms: C_1  and  C_2
REMARK    2  A    between atoms: C_2  and  C_3
REMARK    3  A    between atoms: C_5  and  N_6
REMARK    4  A    between atoms: C_7  and  C_9
REMARK    5  A    between atoms: C_23  and  C_24
REMARK                            x       y       z     vdW  Elec       q    Type
REMARK                         _______ _______ _______ _____ _____    ______ ____
ROOT
ATOM      1  C   UNL     1      -0.326  10.810  20.652  0.00  0.00    +0.000 A 
ATOM      2  C   UNL     1       0.293   9.597  20.294  0.00  0.00    +0.000 A 
ATOM      3  C   UNL     1       0.723   8.659  21.243  0.00  0.00    +0.000 A 
ATOM      4  C   UNL     1       0.503   8.920  22.599  0.00  0.00    +0.000 A 
ATOM      5  C   UNL     1      -0.108  10.117  22.986  0.00  0.00    +0.000 A 
ATOM      6  C   UNL     1      -0.513  11.041  22.021  0.00  0.00    +0.000 A 
ATOM      7  F   UNL     1      -1.101  12.172  22.438  0.00  0.00    +0.000 F 
ENDROOT
BRANCH   1   9
ATOM      8  C   UNL     1       0.419  12.841  19.375  0.00  0.00    +0.000 C 
ATOM      9  C   UNL     1      -0.742  11.836  19.582  0.00  0.00    +0.000 C 
ATOM     10  C   UNL     1      -1.996  12.638  20.025  0.00  0.00    +0.000 C 
ATOM     11  N   UNL     1      -3.205  12.192  19.371  0.00  0.00    +0.000 N 
ATOM     12  N   UNL     1      -4.420  12.635  19.746  0.00  0.00    +0.000 NA
ATOM     13  C   UNL     1      -5.229  12.152  18.792  0.00  0.00    +0.000 A 
ATOM     14  C   UNL     1      -4.523  11.406  17.823  0.00  0.00    +0.000 A 
ATOM     15  C   UNL     1      -3.204  11.467  18.223  0.00  0.00    +0.000 A 
ATOM     16  C   UNL     1      -1.987  10.994  17.647  0.00  0.00    +0.000 C 
ATOM     17  N   UNL     1      -1.944  10.320  16.463  0.00  0.00    +0.000 N 
ATOM     18  N   UNL     1      -0.866  11.191  18.247  0.00  0.00    +0.000 NA
ATOM     19  H   UNL     1      -2.762   9.772  16.230  0.00  0.00    +0.000 HD
ATOM     20  H   UNL     1      -1.079   9.796  16.367  0.00  0.00    +0.000 HD
BRANCH  13  21
ATOM     21  C   UNL     1      -6.633  12.446  18.816  0.00  0.00    +0.000 C 
ATOM     22  N   UNL     1      -7.761  12.729  18.816  0.00  0.00    +0.000 NA
ENDBRANCH  13  21
ENDBRANCH   1   9
BRANCH   3  23
ATOM     23  N   UNL     1       1.376   7.456  20.890  0.00  0.00    +0.000 N 
ATOM     24  C   UNL     1       2.156   7.251  19.762  0.00  0.00    +0.000 C 
ATOM     25  O   UNL     1       2.436   8.080  18.900  0.00  0.00    +0.000 OA
ATOM     26  H   UNL     1       1.342   6.673  21.540  0.00  0.00    +0.000 HD
BRANCH  24  27
ATOM     27  C   UNL     1       2.733   5.875  19.630  0.00  0.00    +0.000 A 
ATOM     28  C   UNL     1       3.612   5.616  18.576  0.00  0.00    +0.000 A 
ATOM     29  C   UNL     1       4.166   4.345  18.464  0.00  0.00    +0.000 A 
ATOM     30  C   UNL     1       3.818   3.385  19.399  0.00  0.00    +0.000 A 
ATOM     31  F   UNL     1       4.338   2.155  19.325  0.00  0.00    +0.000 F 
ATOM     32  C   UNL     1       2.930   3.719  20.413  0.00  0.00    +0.000 A 
ATOM     33  N   UNL     1       2.371   4.950  20.563  0.00  0.00    +0.000 NA
ENDBRANCH  24  27
ENDBRANCH   3  23
TORSDOF 4
ENDMDL
MODEL 5
REMARK VINA RESULT:      -8.0      7.522      9.941
REMARK  Name = 
REMARK  5 active torsions:
REMARK  status: ('A' for Active; 'I' for Inactive)
REMARK    1  A    between atoms: C_1  and  C_2
REMARK    2  A    between atoms: C_2  and  C_3
REMARK    3  A    between atoms: C_5  and  N_6
REMARK    4  A    between atoms: C_7  and  C_9
REMARK    5  A    between atoms: C_23  and  C_24
REMARK                            x       y       z     vdW  Elec       q    Type
REMARK                         _______ _______ _______ _____ _____    ______ ____
ROOT
ATOM      1  C   UNL     1       6.491   6.596  17.352  0.00  0.00    +0.000 A 
ATOM      2  C   UNL     1       7.073   7.861  17.147  0.00  0.00    +0.000 A 
ATOM      3  C   UNL     1       8.090   8.367  17.968  0.00  0.00    +0.000 A 
ATOM      4  C   UNL     1       8.572   7.573  19.013  0.00  0.00    +0.000 A 
ATOM      5  C   UNL     1       8.013   6.312  19.242  0.00  0.00    +0.000 A 
ATOM      6  C   UNL     1       6.990   5.839  18.419  0.00  0.00    +0.000 A 
ATOM      7  F   UNL     1       6.489   4.621  18.672  0.00  0.00    +0.000 F 
ENDROOT
BRANCH   1   9
ATOM      8  C   UNL     1       5.245   7.006  15.209  0.00  0.00    +0.000 C 
ATOM      9  C   UNL     1       5.341   6.095  16.458  0.00  0.00    +0.000 C 
ATOM     10  C   UNL     1       3.978   6.156  17.201  0.00  0.00    +0.000 C 
ATOM     11  N   UNL     1       3.536   4.860  17.664  0.00  0.00    +0.000 N 
ATOM     12  N   UNL     1       2.474   4.724  18.481  0.00  0.00    +0.000 NA
ATOM     13  C   UNL     1       2.279   3.398  18.510  0.00  0.00    +0.000 A 
ATOM     14  C   UNL     1       3.220   2.704  17.715  0.00  0.00    +0.000 A 
ATOM     15  C   UNL     1       4.012   3.691  17.166  0.00  0.00    +0.000 A 
ATOM     16  C   UNL     1       5.083   3.669  16.222  0.00  0.00    +0.000 C 
ATOM     17  N   UNL     1       5.541   2.518  15.653  0.00  0.00    +0.000 N 
ATOM     18  N   UNL     1       5.664   4.764  15.875  0.00  0.00    +0.000 NA
ATOM     19  H   UNL     1       5.452   1.678  16.209  0.00  0.00    +0.000 HD
ATOM     20  H   UNL     1       6.475   2.642  15.273  0.00  0.00    +0.000 HD
BRANCH  13  21
ATOM     21  C   UNL     1       1.190   2.841  19.260  0.00  0.00    +0.000 C 
ATOM     22  N   UNL     1       0.304   2.433  19.892  0.00  0.00    +0.000 NA
ENDBRANCH  13  21
ENDBRANCH   1   9
BRANCH   3  23
ATOM     23  N   UNL     1       8.653   9.651  17.787  0.00  0.00    +0.000 N 
ATOM     24  C   UNL     1       9.149  10.473  18.788  0.00  0.00    +0.000 C 
ATOM     25  O   UNL     1       9.212  10.218  19.986  0.00  0.00    +0.000 OA
ATOM     26  H   UNL     1       8.779  10.000  16.839  0.00  0.00    +0.000 HD
BRANCH  24  27
ATOM     27  C   UNL     1       9.692  11.788  18.318  0.00  0.00    +0.000 A 
ATOM     28  C   UNL     1      10.893  11.800  17.606  0.00  0.00    +0.000 A 
ATOM     29  C   UNL     1      11.389  13.017  17.151  0.00  0.00    +0.000 A 
ATOM     30  C   UNL     1      10.673  14.170  17.428  0.00  0.00    +0.000 A 
ATOM     31  F   UNL     1      11.118  15.356  16.998  0.00  0.00    +0.000 F 
ATOM     32  C   UNL     1       9.491  14.076  18.150  0.00  0.00    +0.000 A 
ATOM     33  N   UNL     1       8.969  12.907  18.608  0.00  0.00    +0.000 NA
ENDBRANCH  24  27
ENDBRANCH   3  23
TORSDOF 4
ENDMDL
MODEL 6
REMARK VINA RESULT:      -7.9      1.458      1.553
REMARK  Name = 
REMARK  5 active torsions:
REMARK  status: ('A' for Active; 'I' for Inactive)
REMARK    1  A    between atoms: C_1  and  C_2
REMARK    2  A    between atoms: C_2  and  C_3
REMARK    3  A    between atoms: C_5  and  N_6
REMARK    4  A    between atoms: C_7  and  C_9
REMARK    5  A    between atoms: C_23  and  C_24
REMARK                            x       y       z     vdW  Elec       q    Type
REMARK                         _______ _______ _______ _____ _____    ______ ____
ROOT
ATOM      1  C   UNL     1       0.640  10.281  20.189  0.00  0.00    +0.000 A 
ATOM      2  C   UNL     1       1.367   9.533  19.244  0.00  0.00    +0.000 A 
ATOM      3  C   UNL     1       1.844   8.241  19.506  0.00  0.00    +0.000 A 
ATOM      4  C   UNL     1       1.560   7.656  20.744  0.00  0.00    +0.000 A 
ATOM      5  C   UNL     1       0.841   8.375  21.705  0.00  0.00    +0.000 A 
ATOM      6  C   UNL     1       0.392   9.666  21.423  0.00  0.00    +0.000 A 
ATOM      7  F   UNL     1      -0.300  10.314  22.371  0.00  0.00    +0.000 F 
ENDROOT
BRANCH   1   9
ATOM      8  C   UNL     1       1.419  12.632  19.765  0.00  0.00    +0.000 C 
ATOM      9  C   UNL     1       0.175  11.716  19.880  0.00  0.00    +0.000 C 
ATOM     10  C   UNL     1      -0.729  12.275  21.013  0.00  0.00    +0.000 C 
ATOM     11  N   UNL     1      -2.132  12.264  20.667  0.00  0.00    +0.000 N 
ATOM     12  N   UNL     1      -3.088  12.538  21.575  0.00  0.00    +0.000 NA
ATOM     13  C   UNL     1      -4.201  12.618  20.831  0.00  0.00    +0.000 A 
ATOM     14  C   UNL     1      -3.942  12.391  19.460  0.00  0.00    +0.000 A 
ATOM     15  C   UNL     1      -2.581  12.180  19.389  0.00  0.00    +0.000 A 
ATOM     16  C   UNL     1      -1.681  11.975  18.300  0.00  0.00    +0.000 C 
ATOM     17  N   UNL     1      -2.091  11.951  17.000  0.00  0.00    +0.000 N 
ATOM     18  N   UNL     1      -0.426  11.798  18.520  0.00  0.00    +0.000 NA
ATOM     19  H   UNL     1      -3.035  11.627  16.834  0.00  0.00    +0.000 HD
ATOM     20  H   UNL     1      -1.407  11.490  16.407  0.00  0.00    +0.000 HD
BRANCH  13  21
ATOM     21  C   UNL     1      -5.459  12.941  21.440  0.00  0.00    +0.000 C 
ATOM     22  N   UNL     1      -6.500  13.198  21.890  0.00  0.00    +0.000 NA
ENDBRANCH  13  21
ENDBRANCH   1   9
BRANCH   3  23
ATOM     23  N   UNL     1       2.603   7.500  18.573  0.00  0.00    +0.000 N 
ATOM     24  C   UNL     1       3.253   6.300  18.819  0.00  0.00    +0.000 C 
ATOM     25  O   UNL     1       3.254   5.666  19.869  0.00  0.00    +0.000 OA
ATOM     26  H   UNL     1       2.637   7.821  17.607  0.00  0.00    +0.000 HD
BRANCH  24  27
ATOM     27  C   UNL     1       3.989   5.725  17.648  0.00  0.00    +0.000 A 
ATOM     28  C   UNL     1       4.615   6.600  16.757  0.00  0.00    +0.000 A 
ATOM     29  C   UNL     1       5.317   6.068  15.680  0.00  0.00    +0.000 A 
ATOM     30  C   UNL     1       5.361   4.692  15.531  0.00  0.00    +0.000 A 
ATOM     31  F   UNL     1       6.034   4.148  14.511  0.00  0.00    +0.000 F 
ATOM     32  C   UNL     1       4.704   3.890  16.455  0.00  0.00    +0.000 A 
ATOM     33  N   UNL     1       4.013   4.368  17.524  0.00  0.00    +0.000 NA
ENDBRANCH  24  27
ENDBRANCH   3  23
TORSDOF 4
ENDMDL
MODEL 7
REMARK VINA RESULT:      -7.9      2.154      2.914
REMARK  Name = 
REMARK  5 active torsions:
REMARK  status: ('A' for Active; 'I' for Inactive)
REMARK    1  A    between atoms: C_1  and  C_2
REMARK    2  A    between atoms: C_2  and  C_3
REMARK    3  A    between atoms: C_5  and  N_6
REMARK    4  A    between atoms: C_7  and  C_9
REMARK    5  A    between atoms: C_23  and  C_24
REMARK                            x       y       z     vdW  Elec       q    Type
REMARK                         _______ _______ _______ _____ _____    ______ ____
ROOT
ATOM      1  C   UNL     1       1.058   9.812  19.748  0.00  0.00    +0.000 A 
ATOM      2  C   UNL     1       1.798   9.071  18.807  0.00  0.00    +0.000 A 
ATOM      3  C   UNL     1       2.169   7.736  19.020  0.00  0.00    +0.000 A 
ATOM      4  C   UNL     1       1.764   7.102  20.198  0.00  0.00    +0.000 A 
ATOM      5  C   UNL     1       1.029   7.812  21.153  0.00  0.00    +0.000 A 
ATOM      6  C   UNL     1       0.686   9.145  20.923  0.00  0.00    +0.000 A 
ATOM      7  F   UNL     1      -0.026   9.784  21.862  0.00  0.00    +0.000 F 
ENDROOT
BRANCH   1   9
ATOM      8  C   UNL     1       1.750  11.893  18.523  0.00  0.00    +0.000 C 
ATOM      9  C   UNL     1       0.709  11.291  19.499  0.00  0.00    +0.000 C 
ATOM     10  C   UNL     1       0.757  12.113  20.817  0.00  0.00    +0.000 C 
ATOM     11  N   UNL     1      -0.557  12.396  21.347  0.00  0.00    +0.000 N 
ATOM     12  N   UNL     1      -0.727  12.939  22.568  0.00  0.00    +0.000 NA
ATOM     13  C   UNL     1      -2.038  13.218  22.598  0.00  0.00    +0.000 A 
ATOM     14  C   UNL     1      -2.688  12.848  21.399  0.00  0.00    +0.000 A 
ATOM     15  C   UNL     1      -1.689  12.331  20.601  0.00  0.00    +0.000 A 
ATOM     16  C   UNL     1      -1.663  11.856  19.255  0.00  0.00    +0.000 C 
ATOM     17  N   UNL     1      -2.768  11.839  18.458  0.00  0.00    +0.000 N 
ATOM     18  N   UNL     1      -0.567  11.416  18.744  0.00  0.00    +0.000 NA
ATOM     19  H   UNL     1      -3.657  11.726  18.928  0.00  0.00    +0.000 HD
ATOM     20  H   UNL     1      -2.651  11.198  17.679  0.00  0.00    +0.000 HD
BRANCH  13  21
ATOM     21  C   UNL     1      -2.617  13.856  23.745  0.00  0.00    +0.000 C 
ATOM     22  N   UNL     1      -3.075  14.417  24.654  0.00  0.00    +0.000 NA
ENDBRANCH  13  21
ENDBRANCH   1   9
BRANCH   3  23
ATOM     23  N   UNL     1       2.942   6.999  18.093  0.00  0.00    +0.000 N 
ATOM     24  C   UNL     1       3.935   6.083  18.405  0.00  0.00    +0.000 C 
ATOM     25  O   UNL     1       4.290   5.735  19.527  0.00  0.00    +0.000 OA
ATOM     26  H   UNL     1       2.723   7.080  17.102  0.00  0.00    +0.000 HD
BRANCH  24  27
ATOM     27  C   UNL     1       4.598   5.440  17.225  0.00  0.00    +0.000 A 
ATOM     28  C   UNL     1       5.015   6.253  16.168  0.00  0.00    +0.000 A 
ATOM     29  C   UNL     1       5.651   5.661  15.081  0.00  0.00    +0.000 A 
ATOM     30  C   UNL     1       5.837   4.289  15.087  0.00  0.00    +0.000 A 
ATOM     31  F   UNL     1       6.451   3.689  14.061  0.00  0.00    +0.000 F 
ATOM     32  C   UNL     1       5.385   3.550  16.172  0.00  0.00    +0.000 A 
ATOM     33  N   UNL     1       4.766   4.088  17.257  0.00  0.00    +0.000 NA
ENDBRANCH  24  27
ENDBRANCH   3  23
TORSDOF 4
ENDMDL
MODEL 8
REMARK VINA RESULT:      -7.9      2.727      5.066
REMARK  Name = 
REMARK  5 active torsions:
REMARK  status: ('A' for Active; 'I' for Inactive)
REMARK    1  A    between atoms: C_1  and  C_2
REMARK    2  A    between atoms: C_2  and  C_3
REMARK    3  A    between atoms: C_5  and  N_6
REMARK    4  A    between atoms: C_7  and  C_9
REMARK    5  A    between atoms: C_23  and  C_24
REMARK                            x       y       z     vdW  Elec       q    Type
REMARK                         _______ _______ _______ _____ _____    ______ ____
ROOT
ATOM      1  C   UNL     1      -0.304  11.119  20.908  0.00  0.00    +0.000 A 
ATOM      2  C   UNL     1       0.371   9.933  20.560  0.00  0.00    +0.000 A 
ATOM      3  C   UNL     1       0.544   8.871  21.458  0.00  0.00    +0.000 A 
ATOM      4  C   UNL     1      -0.002   8.976  22.741  0.00  0.00    +0.000 A 
ATOM      5  C   UNL     1      -0.677  10.142  23.116  0.00  0.00    +0.000 A 
ATOM      6  C   UNL     1      -0.822  11.191  22.208  0.00  0.00    +0.000 A 
ATOM      7  F   UNL     1      -1.483  12.286  22.609  0.00  0.00    +0.000 F 
ENDROOT
BRANCH   1   9
ATOM      8  C   UNL     1      -1.810  12.191  19.206  0.00  0.00    +0.000 C 
ATOM      9  C   UNL     1      -0.433  12.284  19.908  0.00  0.00    +0.000 C 
ATOM     10  C   UNL     1       0.668  12.214  18.815  0.00  0.00    +0.000 C 
ATOM     11  N   UNL     1       1.737  13.162  19.037  0.00  0.00    +0.000 N 
ATOM     12  N   UNL     1       2.868  13.139  18.306  0.00  0.00    +0.000 NA
ATOM     13  C   UNL     1       3.494  14.265  18.676  0.00  0.00    +0.000 A 
ATOM     14  C   UNL     1       2.757  14.991  19.639  0.00  0.00    +0.000 A 
ATOM     15  C   UNL     1       1.611  14.250  19.838  0.00  0.00    +0.000 A 
ATOM     16  C   UNL     1       0.433  14.465  20.615  0.00  0.00    +0.000 C 
ATOM     17  N   UNL     1       0.246  15.578  21.379  0.00  0.00    +0.000 N 
ATOM     18  N   UNL     1      -0.509  13.588  20.621  0.00  0.00    +0.000 NA
ATOM     19  H   UNL     1       1.082  16.011  21.750  0.00  0.00    +0.000 HD
ATOM     20  H   UNL     1      -0.465  15.424  22.087  0.00  0.00    +0.000 HD
BRANCH  13  21
ATOM     21  C   UNL     1       4.746  14.629  18.078  0.00  0.00    +0.000 C 
ATOM     22  N   UNL     1       5.773  14.947  17.636  0.00  0.00    +0.000 NA
ENDBRANCH  13  21
ENDBRANCH   1   9
BRANCH   3  23
ATOM     23  N   UNL     1       1.252   7.694  21.125  0.00  0.00    +0.000 N 
ATOM     24  C   UNL     1       1.974   7.477  19.961  0.00  0.00    +0.000 C 
ATOM     25  O   UNL     1       2.146   8.273  19.043  0.00  0.00    +0.000 OA
ATOM     26  H   UNL     1       1.308   6.947  21.814  0.00  0.00    +0.000 HD
BRANCH  24  27
ATOM     27  C   UNL     1       2.631   6.135  19.862  0.00  0.00    +0.000 A 
ATOM     28  C   UNL     1       2.044   5.053  20.523  0.00  0.00    +0.000 A 
ATOM     29  C   UNL     1       2.641   3.801  20.415  0.00  0.00    +0.000 A 
ATOM     30  C   UNL     1       3.796   3.679  19.662  0.00  0.00    +0.000 A 
ATOM     31  F   UNL     1       4.391   2.488  19.532  0.00  0.00    +0.000 F 
ATOM     32  C   UNL     1       4.323   4.805  19.043  0.00  0.00    +0.000 A 
ATOM     33  N   UNL     1       3.769   6.044  19.117  0.00  0.00    +0.000 NA
ENDBRANCH  24  27
ENDBRANCH   3  23
TORSDOF 4
ENDMDL
MODEL 9
REMARK VINA RESULT:      -7.8      2.556      4.497
REMARK  Name = 
REMARK  5 active torsions:
REMARK  status: ('A' for Active; 'I' for Inactive)
REMARK    1  A    between atoms: C_1  and  C_2
REMARK    2  A    between atoms: C_2  and  C_3
REMARK    3  A    between atoms: C_5  and  N_6
REMARK    4  A    between atoms: C_7  and  C_9
REMARK    5  A    between atoms: C_23  and  C_24
REMARK                            x       y       z     vdW  Elec       q    Type
REMARK                         _______ _______ _______ _____ _____    ______ ____
ROOT
ATOM      1  C   UNL     1      -0.192  10.590  20.332  0.00  0.00    +0.000 A 
ATOM      2  C   UNL     1       0.430   9.347  20.110  0.00  0.00    +0.000 A 
ATOM      3  C   UNL     1       0.836   8.507  21.157  0.00  0.00    +0.000 A 
ATOM      4  C   UNL     1       0.585   8.902  22.474  0.00  0.00    +0.000 A 
ATOM      5  C   UNL     1      -0.030  10.132  22.727  0.00  0.00    +0.000 A 
ATOM      6  C   UNL     1      -0.410  10.956  21.666  0.00  0.00    +0.000 A 
ATOM      7  F   UNL     1      -1.004  12.123  21.956  0.00  0.00    +0.000 F 
ENDROOT
BRANCH   1   9
ATOM      8  C   UNL     1      -1.400  10.685  18.131  0.00  0.00    +0.000 C 
ATOM      9  C   UNL     1      -0.580  11.506  19.156  0.00  0.00    +0.000 C 
ATOM     10  C   UNL     1       0.677  12.059  18.431  0.00  0.00    +0.000 C 
ATOM     11  N   UNL     1       0.961  13.434  18.776  0.00  0.00    +0.000 N 
ATOM     12  N   UNL     1       2.103  14.039  18.395  0.00  0.00    +0.000 NA
ATOM     13  C   UNL     1       1.896  15.320  18.729  0.00  0.00    +0.000 A 
ATOM     14  C   UNL     1       0.628  15.517  19.321  0.00  0.00    +0.000 A 
ATOM     15  C   UNL     1       0.041  14.269  19.320  0.00  0.00    +0.000 A 
ATOM     16  C   UNL     1      -1.253  13.799  19.700  0.00  0.00    +0.000 C 
ATOM     17  N   UNL     1      -2.222  14.624  20.188  0.00  0.00    +0.000 N 
ATOM     18  N   UNL     1      -1.546  12.551  19.595  0.00  0.00    +0.000 NA
ATOM     19  H   UNL     1      -1.904  15.438  20.696  0.00  0.00    +0.000 HD
ATOM     20  H   UNL     1      -2.933  14.100  20.691  0.00  0.00    +0.000 HD
BRANCH  13  21
ATOM     21  C   UNL     1       2.890  16.314  18.443  0.00  0.00    +0.000 C 
ATOM     22  N   UNL     1       3.717  17.088  18.179  0.00  0.00    +0.000 NA
ENDBRANCH  13  21
ENDBRANCH   1   9
BRANCH   3  23
ATOM     23  N   UNL     1       1.492   7.275  20.939  0.00  0.00    +0.000 N 
ATOM     24  C   UNL     1       2.287   6.954  19.848  0.00  0.00    +0.000 C 
ATOM     25  O   UNL     1       2.577   7.687  18.909  0.00  0.00    +0.000 OA
ATOM     26  H   UNL     1       1.450   6.564  21.667  0.00  0.00    +0.000 HD
BRANCH  24  27
ATOM     27  C   UNL     1       2.865   5.572  19.869  0.00  0.00    +0.000 A 
ATOM     28  C   UNL     1       2.224   4.590  20.628  0.00  0.00    +0.000 A 
ATOM     29  C   UNL     1       2.747   3.301  20.632  0.00  0.00    +0.000 A 
ATOM     30  C   UNL     1       3.886   3.045  19.888  0.00  0.00    +0.000 A 
ATOM     31  F   UNL     1       4.411   1.815  19.864  0.00  0.00    +0.000 F 
ATOM     32  C   UNL     1       4.469   4.078  19.166  0.00  0.00    +0.000 A 
ATOM     33  N   UNL     1       3.988   5.349  19.130  0.00  0.00    +0.000 NA
ENDBRANCH  24  27
ENDBRANCH   3  23
TORSDOF 4
ENDMDL
