MODEL 1
REMARK VINA RESULT:      -9.6      0.000      0.000
REMARK  Name = 
REMARK  7 active torsions:
REMARK  status: ('A' for Active; 'I' for Inactive)
REMARK    1  A    between atoms: C_1  and  C_2
REMARK    2  A    between atoms: C_6  and  C_7
REMARK    3  A    between atoms: N_9  and  C_10
REMARK    4  A    between atoms: C_12  and  C_13
REMARK    5  A    between atoms: C_13  and  O_15
REMARK    6  A    between atoms: C_18  and  N_19
REMARK    7  A    between atoms: N_19  and  C_20
REMARK                            x       y       z     vdW  Elec       q    Type
REMARK                         _______ _______ _______ _____ _____    ______ ____
ROOT
ATOM      1  C   UNL     1       3.331   5.962  18.175  0.00  0.00    +0.000 A 
ATOM      2  C   UNL     1       4.679   6.249  17.900  0.00  0.00    +0.000 A 
ATOM      3  C   UNL     1       5.447   5.449  17.060  0.00  0.00    +0.000 A 
ATOM      4  C   UNL     1       4.910   4.272  16.560  0.00  0.00    +0.000 A 
ATOM      5  C   UNL     1       3.602   3.917  16.891  0.00  0.00    +0.000 A 
ATOM      6  C   UNL     1       2.780   4.735  17.702  0.00  0.00    +0.000 A 
ENDROOT
BRANCH   1   9
ATOM      7  C   UNL     1       2.140   8.148  18.481  0.00  0.00    +0.000 C 
ATOM      8  O   UNL     1       2.361   8.553  17.342  0.00  0.00    +0.000 OA
ATOM      9  N   UNL     1       2.553   6.891  18.945  0.00  0.00    +0.000 N 
ATOM     10  H   UNL     1       2.209   6.554  19.832  0.00  0.00    +0.000 HD
BRANCH   7  16
ATOM     11  C   UNL     1      -1.130  10.579  23.098  0.00  0.00    +0.000 C 
ATOM     12  C   UNL     1       0.175  10.021  22.635  0.00  0.00    +0.000 C 
ATOM     13  O   UNL     1       1.038   9.604  23.404  0.00  0.00    +0.000 OA
ATOM     14  N   UNL     1       0.394   9.902  21.243  0.00  0.00    +0.000 N 
ATOM     15  C   UNL     1       1.506   9.226  20.727  0.00  0.00    +0.000 A 
ATOM     16  C   UNL     1       1.336   8.990  19.382  0.00  0.00    +0.000 A 
ATOM     17  C   UNL     1       0.176   9.763  19.004  0.00  0.00    +0.000 A 
ATOM     18  C   UNL     1      -0.450  10.013  17.757  0.00  0.00    +0.000 A 
ATOM     19  C   UNL     1      -1.568  10.849  17.667  0.00  0.00    +0.000 A 
ATOM     20  C   UNL     1      -2.081  11.437  18.807  0.00  0.00    +0.000 A 
ATOM     21  C   UNL     1      -1.502  11.192  20.059  0.00  0.00    +0.000 A 
ATOM     22  C   UNL     1      -0.375  10.344  20.159  0.00  0.00    +0.000 A 
ENDBRANCH   7  16
ENDBRANCH   1   9
BRANCH   3  23
ATOM     23  C   UNL     1       6.844   5.817  16.715  0.00  0.00    +0.000 C 
ATOM     24  O   UNL     1       7.185   6.968  16.527  0.00  0.00    +0.000 OA
BRANCH  23  25
ATOM     25  O   UNL     1       7.699   4.771  16.687  0.00  0.00    +0.000 OA
ATOM     26  H   UNL     1       8.501   4.868  17.236  0.00  0.00    +0.000 HD
ENDBRANCH  23  25
ENDBRANCH   3  23
BRANCH   6  27
ATOM     27  N   UNL     1       1.506   4.309  18.087  0.00  0.00    +0.000 N 
ATOM     28  H   UNL     1       0.837   4.214  17.332  0.00  0.00    +0.000 HD
BRANCH  27  29
ATOM     29  C   UNL     1       1.260   3.457  19.261  0.00  0.00    +0.000 C 
ATOM     30  C   UNL     1       2.481   2.568  19.488  0.00  0.00    +0.000 C 
ATOM     31  C   UNL     1       2.590   2.345  20.986  0.00  0.00    +0.000 C 
ATOM     32  C   UNL     1       1.752   3.420  21.662  0.00  0.00    +0.000 C 
ATOM     33  C   UNL     1       1.102   4.251  20.557  0.00  0.00    +0.000 C 
ENDBRANCH  27  29
ENDBRANCH   6  27
TORSDOF 6
ENDMDL
MODEL 2
REMARK VINA RESULT:      -9.4      1.417      2.462
REMARK  Name = 
REMARK  7 active torsions:
REMARK  status: ('A' for Active; 'I' for Inactive)
REMARK    1  A    between atoms: C_1  and  C_2
REMARK    2  A    between atoms: C_6  and  C_7
REMARK    3  A    between atoms: N_9  and  C_10
REMARK    4  A    between atoms: C_12  and  C_13
REMARK    5  A    between atoms: C_13  and  O_15
REMARK    6  A    between atoms: C_18  and  N_19
REMARK    7  A    between atoms: N_19  and  C_20
REMARK                            x       y       z     vdW  Elec       q    Type
REMARK                         _______ _______ _______ _____ _____    ______ ____
ROOT
ATOM      1  C   UNL     1       3.143   6.163  18.009  0.00  0.00    +0.000 A 
ATOM      2  C   UNL     1       4.466   6.582  17.789  0.00  0.00    +0.000 A 
ATOM      3  C   UNL     1       5.398   5.773  17.146  0.00  0.00    +0.000 A 
ATOM      4  C   UNL     1       5.054   4.473  16.806  0.00  0.00    +0.000 A 
ATOM      5  C   UNL     1       3.773   4.002  17.095  0.00  0.00    +0.000 A 
ATOM      6  C   UNL     1       2.788   4.817  17.702  0.00  0.00    +0.000 A 
ENDROOT
BRANCH   1   9
ATOM      7  C   UNL     1       2.010   8.400  18.104  0.00  0.00    +0.000 C 
ATOM      8  O   UNL     1       2.616   8.869  17.142  0.00  0.00    +0.000 OA
ATOM      9  N   UNL     1       2.192   7.087  18.561  0.00  0.00    +0.000 N 
ATOM     10  H   UNL     1       1.557   6.712  19.251  0.00  0.00    +0.000 HD
BRANCH   7  16
ATOM     11  C   UNL     1      -1.868  12.820  19.933  0.00  0.00    +0.000 C 
ATOM     12  C   UNL     1      -1.414  11.916  18.835  0.00  0.00    +0.000 C 
ATOM     13  O   UNL     1      -1.668  12.120  17.650  0.00  0.00    +0.000 OA
ATOM     14  N   UNL     1      -0.593  10.815  19.172  0.00  0.00    +0.000 N 
ATOM     15  C   UNL     1       0.022  10.027  18.192  0.00  0.00    +0.000 A 
ATOM     16  C   UNL     1       0.987   9.229  18.762  0.00  0.00    +0.000 A 
ATOM     17  C   UNL     1       0.795   9.358  20.187  0.00  0.00    +0.000 A 
ATOM     18  C   UNL     1       1.401   8.727  21.302  0.00  0.00    +0.000 A 
ATOM     19  C   UNL     1       0.990   9.019  22.607  0.00  0.00    +0.000 A 
ATOM     20  C   UNL     1      -0.015   9.942  22.821  0.00  0.00    +0.000 A 
ATOM     21  C   UNL     1      -0.619  10.603  21.744  0.00  0.00    +0.000 A 
ATOM     22  C   UNL     1      -0.206  10.317  20.422  0.00  0.00    +0.000 A 
ENDBRANCH   7  16
ENDBRANCH   1   9
BRANCH   3  23
ATOM     23  C   UNL     1       6.766   6.266  16.848  0.00  0.00    +0.000 C 
ATOM     24  O   UNL     1       7.075   7.436  16.967  0.00  0.00    +0.000 OA
BRANCH  23  25
ATOM     25  O   UNL     1       7.637   5.297  16.491  0.00  0.00    +0.000 OA
ATOM     26  H   UNL     1       7.332   4.382  16.639  0.00  0.00    +0.000 HD
ENDBRANCH  23  25
ENDBRANCH   3  23
BRANCH   6  27
ATOM     27  N   UNL     1       1.544   4.289  18.059  0.00  0.00    +0.000 N 
ATOM     28  H   UNL     1       0.937   4.053  17.281  0.00  0.00    +0.000 HD
BRANCH  27  29
ATOM     29  C   UNL     1       1.316   3.524  19.294  0.00  0.00    +0.000 C 
ATOM     30  C   UNL     1       2.501   2.587  19.518  0.00  0.00    +0.000 C 
ATOM     31  C   UNL     1       2.675   2.449  21.020  0.00  0.00    +0.000 C 
ATOM     32  C   UNL     1       1.927   3.605  21.666  0.00  0.00    +0.000 C 
ATOM     33  C   UNL     1       1.264   4.402  20.543  0.00  0.00    +0.000 C 
ENDBRANCH  27  29
ENDBRANCH   6  27
TORSDOF 6
ENDMDL
MODEL 3
REMARK VINA RESULT:      -9.4      1.054      1.102
REMARK  Name = 
REMARK  7 active torsions:
REMARK  status: ('A' for Active; 'I' for Inactive)
REMARK    1  A    between atoms: C_1  and  C_2
REMARK    2  A    between atoms: C_6  and  C_7
REMARK    3  A    between atoms: N_9  and  C_10
REMARK    4  A    between atoms: C_12  and  C_13
REMARK    5  A    between atoms: C_13  and  O_15
REMARK    6  A    between atoms: C_18  and  N_19
REMARK    7  A    between atoms: N_19  and  C_20
REMARK                            x       y       z     vdW  Elec       q    Type
REMARK                         _______ _______ _______ _____ _____    ______ ____
ROOT
ATOM      1  C   UNL     1       3.552   6.237  17.843  0.00  0.00    +0.000 A 
ATOM      2  C   UNL     1       4.858   6.554  17.431  0.00  0.00    +0.000 A 
ATOM      3  C   UNL     1       5.634   5.667  16.692  0.00  0.00    +0.000 A 
ATOM      4  C   UNL     1       5.159   4.388  16.443  0.00  0.00    +0.000 A 
ATOM      5  C   UNL     1       3.901   4.017  16.919  0.00  0.00    +0.000 A 
ATOM      6  C   UNL     1       3.067   4.914  17.629  0.00  0.00    +0.000 A 
ENDROOT
BRANCH   1   9
ATOM      7  C   UNL     1       2.342   7.177  19.829  0.00  0.00    +0.000 C 
ATOM      8  O   UNL     1       2.678   6.277  20.597  0.00  0.00    +0.000 OA
ATOM      9  N   UNL     1       2.753   7.238  18.490  0.00  0.00    +0.000 N 
ATOM     10  H   UNL     1       2.573   8.077  17.957  0.00  0.00    +0.000 HD
BRANCH   7  16
ATOM     11  C   UNL     1      -1.398  10.889  23.015  0.00  0.00    +0.000 C 
ATOM     12  C   UNL     1      -0.164  10.049  23.006  0.00  0.00    +0.000 C 
ATOM     13  O   UNL     1       0.374   9.636  24.030  0.00  0.00    +0.000 OA
ATOM     14  N   UNL     1       0.365   9.653  21.756  0.00  0.00    +0.000 N 
ATOM     15  C   UNL     1       1.406   8.722  21.658  0.00  0.00    +0.000 A 
ATOM     16  C   UNL     1       1.532   8.285  20.359  0.00  0.00    +0.000 A 
ATOM     17  C   UNL     1       0.689   9.162  19.580  0.00  0.00    +0.000 A 
ATOM     18  C   UNL     1       0.458   9.289  18.187  0.00  0.00    +0.000 A 
ATOM     19  C   UNL     1      -0.404  10.271  17.686  0.00  0.00    +0.000 A 
ATOM     20  C   UNL     1      -1.051  11.127  18.557  0.00  0.00    +0.000 A 
ATOM     21  C   UNL     1      -0.866  11.012  19.940  0.00  0.00    +0.000 A 
ATOM     22  C   UNL     1      -0.000  10.020  20.454  0.00  0.00    +0.000 A 
ENDBRANCH   7  16
ENDBRANCH   1   9
BRANCH   3  23
ATOM     23  C   UNL     1       6.979   6.053  16.195  0.00  0.00    +0.000 C 
ATOM     24  O   UNL     1       7.639   6.930  16.720  0.00  0.00    +0.000 OA
BRANCH  23  25
ATOM     25  O   UNL     1       7.418   5.312  15.154  0.00  0.00    +0.000 OA
ATOM     26  H   UNL     1       8.262   4.844  15.297  0.00  0.00    +0.000 HD
ENDBRANCH  23  25
ENDBRANCH   3  23
BRANCH   6  27
ATOM     27  N   UNL     1       1.851   4.485  18.168  0.00  0.00    +0.000 N 
ATOM     28  H   UNL     1       1.035   4.680  17.599  0.00  0.00    +0.000 HD
BRANCH  27  29
ATOM     29  C   UNL     1       1.731   3.330  19.071  0.00  0.00    +0.000 C 
ATOM     30  C   UNL     1       3.069   3.115  19.775  0.00  0.00    +0.000 C 
ATOM     31  C   UNL     1       2.755   2.562  21.155  0.00  0.00    +0.000 C 
ATOM     32  C   UNL     1       1.291   2.864  21.436  0.00  0.00    +0.000 C 
ATOM     33  C   UNL     1       0.721   3.552  20.197  0.00  0.00    +0.000 C 
ENDBRANCH  27  29
ENDBRANCH   6  27
TORSDOF 6
ENDMDL
MODEL 4
REMARK VINA RESULT:      -9.1      1.737      2.365
REMARK  Name = 
REMARK  7 active torsions:
REMARK  status: ('A' for Active; 'I' for Inactive)
REMARK    1  A    between atoms: C_1  and  C_2
REMARK    2  A    between atoms: C_6  and  C_7
REMARK    3  A    between atoms: N_9  and  C_10
REMARK    4  A    between atoms: C_12  and  C_13
REMARK    5  A    between atoms: C_13  and  O_15
REMARK    6  A    between atoms: C_18  and  N_19
REMARK    7  A    between atoms: N_19  and  C_20
REMARK                            x       y       z     vdW  Elec       q    Type
REMARK                         _______ _______ _______ _____ _____    ______ ____
ROOT
ATOM      1  C   UNL     1       3.492   6.156  18.210  0.00  0.00    +0.000 A 
ATOM      2  C   UNL     1       4.863   6.230  17.909  0.00  0.00    +0.000 A 
ATOM      3  C   UNL     1       5.523   5.214  17.224  0.00  0.00    +0.000 A 
ATOM      4  C   UNL     1       4.845   4.042  16.922  0.00  0.00    +0.000 A 
ATOM      5  C   UNL     1       3.506   3.907  17.290  0.00  0.00    +0.000 A 
ATOM      6  C   UNL     1       2.795   4.942  17.941  0.00  0.00    +0.000 A 
ENDROOT
BRANCH   1   9
ATOM      7  C   UNL     1       2.381   8.402  18.084  0.00  0.00    +0.000 C 
ATOM      8  O   UNL     1       2.452   8.489  16.860  0.00  0.00    +0.000 OA
ATOM      9  N   UNL     1       2.837   7.287  18.803  0.00  0.00    +0.000 N 
ATOM     10  H   UNL     1       2.611   7.207  19.784  0.00  0.00    +0.000 HD
BRANCH   7  16
ATOM     11  C   UNL     1       0.752  13.637  20.887  0.00  0.00    +0.000 C 
ATOM     12  C   UNL     1       1.124  12.951  19.614  0.00  0.00    +0.000 C 
ATOM     13  O   UNL     1       1.518  13.553  18.617  0.00  0.00    +0.000 OA
ATOM     14  N   UNL     1       1.089  11.538  19.581  0.00  0.00    +0.000 N 
ATOM     15  C   UNL     1       1.592  10.813  18.495  0.00  0.00    +0.000 A 
ATOM     16  C   UNL     1       1.717   9.484  18.828  0.00  0.00    +0.000 A 
ATOM     17  C   UNL     1       1.038   9.344  20.095  0.00  0.00    +0.000 A 
ATOM     18  C   UNL     1       0.740   8.223  20.910  0.00  0.00    +0.000 A 
ATOM     19  C   UNL     1       0.022   8.369  22.101  0.00  0.00    +0.000 A 
ATOM     20  C   UNL     1      -0.399   9.622  22.501  0.00  0.00    +0.000 A 
ATOM     21  C   UNL     1      -0.101  10.754  21.734  0.00  0.00    +0.000 A 
ATOM     22  C   UNL     1       0.629  10.616  20.531  0.00  0.00    +0.000 A 
ENDBRANCH   7  16
ENDBRANCH   1   9
BRANCH   3  23
ATOM     23  C   UNL     1       6.952   5.349  16.842  0.00  0.00    +0.000 C 
ATOM     24  O   UNL     1       7.382   6.334  16.274  0.00  0.00    +0.000 OA
BRANCH  23  25
ATOM     25  O   UNL     1       7.727   4.313  17.230  0.00  0.00    +0.000 OA
ATOM     26  H   UNL     1       8.042   4.345  18.153  0.00  0.00    +0.000 HD
ENDBRANCH  23  25
ENDBRANCH   3  23
BRANCH   6  27
ATOM     27  N   UNL     1       1.481   4.742  18.376  0.00  0.00    +0.000 N 
ATOM     28  H   UNL     1       0.812   4.531  17.643  0.00  0.00    +0.000 HD
BRANCH  27  29
ATOM     29  C   UNL     1       1.142   4.224  19.710  0.00  0.00    +0.000 C 
ATOM     30  C   UNL     1       1.296   2.704  19.701  0.00  0.00    +0.000 C 
ATOM     31  C   UNL     1       1.738   2.299  21.096  0.00  0.00    +0.000 C 
ATOM     32  C   UNL     1       2.269   3.550  21.779  0.00  0.00    +0.000 C 
ATOM     33  C   UNL     1       2.092   4.712  20.803  0.00  0.00    +0.000 C 
ENDBRANCH  27  29
ENDBRANCH   6  27
TORSDOF 6
ENDMDL
MODEL 5
REMARK VINA RESULT:      -9.0      1.223      1.335
REMARK  Name = 
REMARK  7 active torsions:
REMARK  status: ('A' for Active; 'I' for Inactive)
REMARK    1  A    between atoms: C_1  and  C_2
REMARK    2  A    between atoms: C_6  and  C_7
REMARK    3  A    between atoms: N_9  and  C_10
REMARK    4  A    between atoms: C_12  and  C_13
REMARK    5  A    between atoms: C_13  and  O_15
REMARK    6  A    between atoms: C_18  and  N_19
REMARK    7  A    between atoms: N_19  and  C_20
REMARK                            x       y       z     vdW  Elec       q    Type
REMARK                         _______ _______ _______ _____ _____    ______ ____
ROOT
ATOM      1  C   UNL     1       2.960   6.694  18.225  0.00  0.00    +0.000 A 
ATOM      2  C   UNL     1       4.288   7.075  17.966  0.00  0.00    +0.000 A 
ATOM      3  C   UNL     1       5.205   6.205  17.385  0.00  0.00    +0.000 A 
ATOM      4  C   UNL     1       4.842   4.887  17.151  0.00  0.00    +0.000 A 
ATOM      5  C   UNL     1       3.556   4.458  17.483  0.00  0.00    +0.000 A 
ATOM      6  C   UNL     1       2.586   5.332  18.027  0.00  0.00    +0.000 A 
ENDROOT
BRANCH   1   9
ATOM      7  C   UNL     1       1.800   8.915  18.098  0.00  0.00    +0.000 C 
ATOM      8  O   UNL     1       2.350   9.265  17.056  0.00  0.00    +0.000 OA
ATOM      9  N   UNL     1       2.025   7.671  18.706  0.00  0.00    +0.000 N 
ATOM     10  H   UNL     1       1.431   7.380  19.469  0.00  0.00    +0.000 HD
BRANCH   7  16
ATOM     11  C   UNL     1      -1.979  12.066  21.799  0.00  0.00    +0.000 C 
ATOM     12  C   UNL     1      -0.574  11.722  21.430  0.00  0.00    +0.000 C 
ATOM     13  O   UNL     1       0.378  11.881  22.190  0.00  0.00    +0.000 OA
ATOM     14  N   UNL     1      -0.344  11.117  20.173  0.00  0.00    +0.000 N 
ATOM     15  C   UNL     1       0.909  10.599  19.823  0.00  0.00    +0.000 A 
ATOM     16  C   UNL     1       0.800   9.811  18.700  0.00  0.00    +0.000 A 
ATOM     17  C   UNL     1      -0.534  10.045  18.199  0.00  0.00    +0.000 A 
ATOM     18  C   UNL     1      -1.217   9.608  17.036  0.00  0.00    +0.000 A 
ATOM     19  C   UNL     1      -2.526  10.024  16.770  0.00  0.00    +0.000 A 
ATOM     20  C   UNL     1      -3.172  10.866  17.653  0.00  0.00    +0.000 A 
ATOM     21  C   UNL     1      -2.537  11.298  18.824  0.00  0.00    +0.000 A 
ATOM     22  C   UNL     1      -1.215  10.878  19.103  0.00  0.00    +0.000 A 
ENDBRANCH   7  16
ENDBRANCH   1   9
BRANCH   3  23
ATOM     23  C   UNL     1       6.578   6.654  17.042  0.00  0.00    +0.000 C 
ATOM     24  O   UNL     1       7.117   7.585  17.609  0.00  0.00    +0.000 OA
BRANCH  23  25
ATOM     25  O   UNL     1       7.184   5.906  16.094  0.00  0.00    +0.000 OA
ATOM     26  H   UNL     1       6.794   5.963  15.201  0.00  0.00    +0.000 HD
ENDBRANCH  23  25
ENDBRANCH   3  23
BRANCH   6  27
ATOM     27  N   UNL     1       1.337   4.852  18.431  0.00  0.00    +0.000 N 
ATOM     28  H   UNL     1       0.766   4.462  17.689  0.00  0.00    +0.000 HD
BRANCH  27  29
ATOM     29  C   UNL     1       1.072   4.323  19.778  0.00  0.00    +0.000 C 
ATOM     30  C   UNL     1       1.170   2.799  19.736  0.00  0.00    +0.000 C 
ATOM     31  C   UNL     1       1.692   2.355  21.091  0.00  0.00    +0.000 C 
ATOM     32  C   UNL     1       2.313   3.575  21.754  0.00  0.00    +0.000 C 
ATOM     33  C   UNL     1       2.112   4.759  20.809  0.00  0.00    +0.000 C 
ENDBRANCH  27  29
ENDBRANCH   6  27
TORSDOF 6
ENDMDL
MODEL 6
REMARK VINA RESULT:      -8.9      1.649      1.992
REMARK  Name = 
REMARK  7 active torsions:
REMARK  status: ('A' for Active; 'I' for Inactive)
REMARK    1  A    between atoms: C_1  and  C_2
REMARK    2  A    between atoms: C_6  and  C_7
REMARK    3  A    between atoms: N_9  and  C_10
REMARK    4  A    between atoms: C_12  and  C_13
REMARK    5  A    between atoms: C_13  and  O_15
REMARK    6  A    between atoms: C_18  and  N_19
REMARK    7  A    between atoms: N_19  and  C_20
REMARK                            x       y       z     vdW  Elec       q    Type
REMARK                         _______ _______ _______ _____ _____    ______ ____
ROOT
ATOM      1  C   UNL     1       2.974   7.120  18.780  0.00  0.00    +0.000 A 
ATOM      2  C   UNL     1       3.774   7.329  17.643  0.00  0.00    +0.000 A 
ATOM      3  C   UNL     1       4.658   6.361  17.177  0.00  0.00    +0.000 A 
ATOM      4  C   UNL     1       4.845   5.197  17.908  0.00  0.00    +0.000 A 
ATOM      5  C   UNL     1       4.129   5.005  19.090  0.00  0.00    +0.000 A 
ATOM      6  C   UNL     1       3.185   5.948  19.563  0.00  0.00    +0.000 A 
ENDROOT
BRANCH   1   9
ATOM      7  C   UNL     1       1.631   9.193  18.336  0.00  0.00    +0.000 C 
ATOM      8  O   UNL     1       2.095   9.384  17.214  0.00  0.00    +0.000 OA
ATOM      9  N   UNL     1       1.989   8.100  19.140  0.00  0.00    +0.000 N 
ATOM     10  H   UNL     1       1.462   7.913  19.981  0.00  0.00    +0.000 HD
BRANCH   7  16
ATOM     11  C   UNL     1      -2.330  12.539  21.655  0.00  0.00    +0.000 C 
ATOM     12  C   UNL     1      -0.908  12.199  21.358  0.00  0.00    +0.000 C 
ATOM     13  O   UNL     1       0.016  12.439  22.133  0.00  0.00    +0.000 OA
ATOM     14  N   UNL     1      -0.623  11.502  20.161  0.00  0.00    +0.000 N 
ATOM     15  C   UNL     1       0.650  10.987  19.893  0.00  0.00    +0.000 A 
ATOM     16  C   UNL     1       0.594  10.111  18.833  0.00  0.00    +0.000 A 
ATOM     17  C   UNL     1      -0.727  10.275  18.273  0.00  0.00    +0.000 A 
ATOM     18  C   UNL     1      -1.362   9.732  17.128  0.00  0.00    +0.000 A 
ATOM     19  C   UNL     1      -2.669  10.097  16.789  0.00  0.00    +0.000 A 
ATOM     20  C   UNL     1      -3.362  10.991  17.582  0.00  0.00    +0.000 A 
ATOM     21  C   UNL     1      -2.774  11.527  18.734  0.00  0.00    +0.000 A 
ATOM     22  C   UNL     1      -1.455  11.161  19.087  0.00  0.00    +0.000 A 
ENDBRANCH   7  16
ENDBRANCH   1   9
BRANCH   3  23
ATOM     23  C   UNL     1       5.432   6.567  15.927  0.00  0.00    +0.000 C 
ATOM     24  O   UNL     1       4.947   7.089  14.941  0.00  0.00    +0.000 OA
BRANCH  23  25
ATOM     25  O   UNL     1       6.724   6.178  16.005  0.00  0.00    +0.000 OA
ATOM     26  H   UNL     1       7.365   6.885  16.211  0.00  0.00    +0.000 HD
ENDBRANCH  23  25
ENDBRANCH   3  23
BRANCH   6  27
ATOM     27  N   UNL     1       2.550   5.767  20.795  0.00  0.00    +0.000 N 
ATOM     28  H   UNL     1       2.392   6.616  21.326  0.00  0.00    +0.000 HD
BRANCH  27  29
ATOM     29  C   UNL     1       1.611   4.668  21.066  0.00  0.00    +0.000 C 
ATOM     30  C   UNL     1       1.086   4.131  19.736  0.00  0.00    +0.000 C 
ATOM     31  C   UNL     1       0.835   2.645  19.930  0.00  0.00    +0.000 C 
ATOM     32  C   UNL     1       1.603   2.220  21.172  0.00  0.00    +0.000 C 
ATOM     33  C   UNL     1       2.271   3.469  21.745  0.00  0.00    +0.000 C 
ENDBRANCH  27  29
ENDBRANCH   6  27
TORSDOF 6
ENDMDL
MODEL 7
REMARK VINA RESULT:      -8.9      3.104      6.184
REMARK  Name = 
REMARK  7 active torsions:
REMARK  status: ('A' for Active; 'I' for Inactive)
REMARK    1  A    between atoms: C_1  and  C_2
REMARK    2  A    between atoms: C_6  and  C_7
REMARK    3  A    between atoms: N_9  and  C_10
REMARK    4  A    between atoms: C_12  and  C_13
REMARK    5  A    between atoms: C_13  and  O_15
REMARK    6  A    between atoms: C_18  and  N_19
REMARK    7  A    between atoms: N_19  and  C_20
REMARK                            x       y       z     vdW  Elec       q    Type
REMARK                         _______ _______ _______ _____ _____    ______ ____
ROOT
ATOM      1  C   UNL     1       5.558   4.768  14.722  0.00  0.00    +0.000 A 
ATOM      2  C   UNL     1       4.985   4.009  13.687  0.00  0.00    +0.000 A 
ATOM      3  C   UNL     1       5.750   3.469  12.658  0.00  0.00    +0.000 A 
ATOM      4  C   UNL     1       7.101   3.772  12.581  0.00  0.00    +0.000 A 
ATOM      5  C   UNL     1       7.678   4.598  13.546  0.00  0.00    +0.000 A 
ATOM      6  C   UNL     1       6.937   5.120  14.632  0.00  0.00    +0.000 A 
ENDROOT
BRANCH   1   9
ATOM      7  C   UNL     1       4.278   4.337  16.837  0.00  0.00    +0.000 C 
ATOM      8  O   UNL     1       4.577   3.147  16.904  0.00  0.00    +0.000 OA
ATOM      9  N   UNL     1       4.742   5.190  15.824  0.00  0.00    +0.000 N 
ATOM     10  H   UNL     1       4.590   6.185  15.909  0.00  0.00    +0.000 HD
BRANCH   7  16
ATOM     11  C   UNL     1       1.624   7.885  21.113  0.00  0.00    +0.000 C 
ATOM     12  C   UNL     1       1.948   7.678  19.670  0.00  0.00    +0.000 C 
ATOM     13  O   UNL     1       1.934   8.586  18.842  0.00  0.00    +0.000 OA
ATOM     14  N   UNL     1       2.359   6.390  19.256  0.00  0.00    +0.000 N 
ATOM     15  C   UNL     1       2.854   6.153  17.968  0.00  0.00    +0.000 A 
ATOM     16  C   UNL     1       3.456   4.917  17.911  0.00  0.00    +0.000 A 
ATOM     17  C   UNL     1       3.109   4.267  19.153  0.00  0.00    +0.000 A 
ATOM     18  C   UNL     1       3.343   2.962  19.655  0.00  0.00    +0.000 A 
ATOM     19  C   UNL     1       2.854   2.574  20.907  0.00  0.00    +0.000 A 
ATOM     20  C   UNL     1       2.139   3.472  21.674  0.00  0.00    +0.000 A 
ATOM     21  C   UNL     1       1.910   4.777  21.220  0.00  0.00    +0.000 A 
ATOM     22  C   UNL     1       2.406   5.179  19.958  0.00  0.00    +0.000 A 
ENDBRANCH   7  16
ENDBRANCH   1   9
BRANCH   3  23
ATOM     23  C   UNL     1       5.137   2.600  11.621  0.00  0.00    +0.000 C 
ATOM     24  O   UNL     1       4.119   2.909  11.034  0.00  0.00    +0.000 OA
BRANCH  23  25
ATOM     25  O   UNL     1       5.840   1.476  11.357  0.00  0.00    +0.000 OA
ATOM     26  H   UNL     1       5.534   0.671  11.815  0.00  0.00    +0.000 HD
ENDBRANCH  23  25
ENDBRANCH   3  23
BRANCH   6  27
ATOM     27  N   UNL     1       7.522   6.015  15.532  0.00  0.00    +0.000 N 
ATOM     28  H   UNL     1       7.861   6.879  15.122  0.00  0.00    +0.000 HD
BRANCH  27  29
ATOM     29  C   UNL     1       7.146   6.095  16.952  0.00  0.00    +0.000 C 
ATOM     30  C   UNL     1       7.706   4.874  17.678  0.00  0.00    +0.000 C 
ATOM     31  C   UNL     1       8.034   5.316  19.094  0.00  0.00    +0.000 C 
ATOM     32  C   UNL     1       8.100   6.836  19.084  0.00  0.00    +0.000 C 
ATOM     33  C   UNL     1       7.758   7.298  17.668  0.00  0.00    +0.000 C 
ENDBRANCH  27  29
ENDBRANCH   6  27
TORSDOF 6
ENDMDL
MODEL 8
REMARK VINA RESULT:      -8.9      2.103      2.828
REMARK  Name = 
REMARK  7 active torsions:
REMARK  status: ('A' for Active; 'I' for Inactive)
REMARK    1  A    between atoms: C_1  and  C_2
REMARK    2  A    between atoms: C_6  and  C_7
REMARK    3  A    between atoms: N_9  and  C_10
REMARK    4  A    between atoms: C_12  and  C_13
REMARK    5  A    between atoms: C_13  and  O_15
REMARK    6  A    between atoms: C_18  and  N_19
REMARK    7  A    between atoms: N_19  and  C_20
REMARK                            x       y       z     vdW  Elec       q    Type
REMARK                         _______ _______ _______ _____ _____    ______ ____
ROOT
ATOM      1  C   UNL     1       4.279   6.307  17.917  0.00  0.00    +0.000 A 
ATOM      2  C   UNL     1       4.961   6.261  16.689  0.00  0.00    +0.000 A 
ATOM      3  C   UNL     1       5.478   5.076  16.176  0.00  0.00    +0.000 A 
ATOM      4  C   UNL     1       5.421   3.920  16.940  0.00  0.00    +0.000 A 
ATOM      5  C   UNL     1       4.830   3.957  18.203  0.00  0.00    +0.000 A 
ATOM      6  C   UNL     1       4.250   5.135  18.730  0.00  0.00    +0.000 A 
ENDROOT
BRANCH   1   9
ATOM      7  C   UNL     1       2.302   7.837  18.130  0.00  0.00    +0.000 C 
ATOM      8  O   UNL     1       1.504   7.056  17.617  0.00  0.00    +0.000 OA
ATOM      9  N   UNL     1       3.655   7.530  18.335  0.00  0.00    +0.000 N 
ATOM     10  H   UNL     1       4.221   8.148  18.898  0.00  0.00    +0.000 HD
BRANCH   7  16
ATOM     11  C   UNL     1       1.465  13.695  19.834  0.00  0.00    +0.000 C 
ATOM     12  C   UNL     1       1.759  12.732  18.731  0.00  0.00    +0.000 C 
ATOM     13  O   UNL     1       2.277  13.067  17.669  0.00  0.00    +0.000 OA
ATOM     14  N   UNL     1       1.494  11.361  18.953  0.00  0.00    +0.000 N 
ATOM     15  C   UNL     1       1.906  10.375  18.049  0.00  0.00    +0.000 A 
ATOM     16  C   UNL     1       1.801   9.130  18.624  0.00  0.00    +0.000 A 
ATOM     17  C   UNL     1       1.069   9.338  19.851  0.00  0.00    +0.000 A 
ATOM     18  C   UNL     1       0.566   8.450  20.835  0.00  0.00    +0.000 A 
ATOM     19  C   UNL     1      -0.156   8.928  21.935  0.00  0.00    +0.000 A 
ATOM     20  C   UNL     1      -0.379  10.284  22.075  0.00  0.00    +0.000 A 
ATOM     21  C   UNL     1       0.125  11.191  21.135  0.00  0.00    +0.000 A 
ATOM     22  C   UNL     1       0.861  10.717  20.023  0.00  0.00    +0.000 A 
ENDBRANCH   7  16
ENDBRANCH   1   9
BRANCH   3  23
ATOM     23  C   UNL     1       6.120   5.035  14.838  0.00  0.00    +0.000 C 
ATOM     24  O   UNL     1       7.215   5.520  14.628  0.00  0.00    +0.000 OA
BRANCH  23  25
ATOM     25  O   UNL     1       5.408   4.367  13.903  0.00  0.00    +0.000 OA
ATOM     26  H   UNL     1       5.566   3.405  13.862  0.00  0.00    +0.000 HD
ENDBRANCH  23  25
ENDBRANCH   3  23
BRANCH   6  27
ATOM     27  N   UNL     1       3.744   5.162  20.032  0.00  0.00    +0.000 N 
ATOM     28  H   UNL     1       4.156   5.862  20.640  0.00  0.00    +0.000 HD
BRANCH  27  29
ATOM     29  C   UNL     1       2.372   4.757  20.375  0.00  0.00    +0.000 C 
ATOM     30  C   UNL     1       1.775   3.997  19.193  0.00  0.00    +0.000 C 
ATOM     31  C   UNL     1       0.824   2.963  19.770  0.00  0.00    +0.000 C 
ATOM     32  C   UNL     1       1.179   2.800  21.240  0.00  0.00    +0.000 C 
ATOM     33  C   UNL     1       2.311   3.779  21.547  0.00  0.00    +0.000 C 
ENDBRANCH  27  29
ENDBRANCH   6  27
TORSDOF 6
ENDMDL
MODEL 9
REMARK VINA RESULT:      -8.8      1.416      1.516
REMARK  Name = 
REMARK  7 active torsions:
REMARK  status: ('A' for Active; 'I' for Inactive)
REMARK    1  A    between atoms: C_1  and  C_2
REMARK    2  A    between atoms: C_6  and  C_7
REMARK    3  A    between atoms: N_9  and  C_10
REMARK    4  A    between atoms: C_12  and  C_13
REMARK    5  A    between atoms: C_13  and  O_15
REMARK    6  A    between atoms: C_18  and  N_19
REMARK    7  A    between atoms: N_19  and  C_20
REMARK                            x       y       z     vdW  Elec       q    Type
REMARK                         _______ _______ _______ _____ _____    ______ ____
ROOT
ATOM      1  C   UNL     1       3.623   6.203  18.046  0.00  0.00    +0.000 A 
ATOM      2  C   UNL     1       4.870   6.461  17.452  0.00  0.00    +0.000 A 
ATOM      3  C   UNL     1       5.448   5.585  16.540  0.00  0.00    +0.000 A 
ATOM      4  C   UNL     1       4.838   4.366  16.284  0.00  0.00    +0.000 A 
ATOM      5  C   UNL     1       3.643   4.045  16.929  0.00  0.00    +0.000 A 
ATOM      6  C   UNL     1       3.005   4.937  17.823  0.00  0.00    +0.000 A 
ENDROOT
BRANCH   1   9
ATOM      7  C   UNL     1       2.153   8.203  18.411  0.00  0.00    +0.000 C 
ATOM      8  O   UNL     1       1.790   8.286  17.240  0.00  0.00    +0.000 OA
ATOM      9  N   UNL     1       3.016   7.201  18.880  0.00  0.00    +0.000 N 
ATOM     10  H   UNL     1       3.153   7.094  19.874  0.00  0.00    +0.000 HD
BRANCH   7  16
ATOM     11  C   UNL     1      -1.208  11.265  22.564  0.00  0.00    +0.000 C 
ATOM     12  C   UNL     1      -0.458  10.021  22.219  0.00  0.00    +0.000 C 
ATOM     13  O   UNL     1      -0.624   8.953  22.804  0.00  0.00    +0.000 OA
ATOM     14  N   UNL     1       0.430  10.060  21.119  0.00  0.00    +0.000 N 
ATOM     15  C   UNL     1       1.032   8.901  20.616  0.00  0.00    +0.000 A 
ATOM     16  C   UNL     1       1.598   9.154  19.388  0.00  0.00    +0.000 A 
ATOM     17  C   UNL     1       1.549  10.589  19.235  0.00  0.00    +0.000 A 
ATOM     18  C   UNL     1       2.047  11.470  18.242  0.00  0.00    +0.000 A 
ATOM     19  C   UNL     1       1.886  12.854  18.361  0.00  0.00    +0.000 A 
ATOM     20  C   UNL     1       1.226  13.378  19.455  0.00  0.00    +0.000 A 
ATOM     21  C   UNL     1       0.699  12.536  20.442  0.00  0.00    +0.000 A 
ATOM     22  C   UNL     1       0.852  11.135  20.327  0.00  0.00    +0.000 A 
ENDBRANCH   7  16
ENDBRANCH   1   9
BRANCH   3  23
ATOM     23  C   UNL     1       6.727   5.916  15.861  0.00  0.00    +0.000 C 
ATOM     24  O   UNL     1       7.609   6.547  16.410  0.00  0.00    +0.000 OA
BRANCH  23  25
ATOM     25  O   UNL     1       6.837   5.410  14.613  0.00  0.00    +0.000 OA
ATOM     26  H   UNL     1       6.434   5.946  13.904  0.00  0.00    +0.000 HD
ENDBRANCH  23  25
ENDBRANCH   3  23
BRANCH   6  27
ATOM     27  N   UNL     1       1.857   4.551  18.520  0.00  0.00    +0.000 N 
ATOM     28  H   UNL     1       0.980   4.837  18.098  0.00  0.00    +0.000 HD
BRANCH  27  29
ATOM     29  C   UNL     1       1.790   3.347  19.363  0.00  0.00    +0.000 C 
ATOM     30  C   UNL     1       3.116   3.192  20.105  0.00  0.00    +0.000 C 
ATOM     31  C   UNL     1       2.798   2.552  21.445  0.00  0.00    +0.000 C 
ATOM     32  C   UNL     1       1.307   2.735  21.686  0.00  0.00    +0.000 C 
ATOM     33  C   UNL     1       0.730   3.441  20.460  0.00  0.00    +0.000 C 
ENDBRANCH  27  29
ENDBRANCH   6  27
TORSDOF 6
ENDMDL
