MODEL 1
REMARK VINA RESULT:      -7.5      0.000      0.000
REMARK  Name = 
REMARK  4 active torsions:
REMARK  status: ('A' for Active; 'I' for Inactive)
REMARK    1  A    between atoms: C_1  and  N_2
REMARK    2  A    between atoms: C_6  and  N_7
REMARK    3  A    between atoms: C_12  and  C_13
REMARK    4  A    between atoms: C_16  and  C_17
REMARK                            x       y       z     vdW  Elec       q    Type
REMARK                         _______ _______ _______ _____ _____    ______ ____
ROOT
ATOM      1  C   UNL     1       2.363   1.855  19.037  0.00  0.00    +0.000 C 
ATOM      2  N   UNL     1       2.444   3.044  19.864  0.00  0.00    +0.000 N 
ATOM      3  C   UNL     1       2.292   3.017  21.231  0.00  0.00    +0.000 C 
ATOM      4  O   UNL     1       2.179   2.024  21.932  0.00  0.00    +0.000 OA
ATOM      5  C   UNL     1       2.254   4.427  21.748  0.00  0.00    +0.000 C 
ATOM      6  C   UNL     1       2.688   5.305  20.571  0.00  0.00    +0.000 C 
ATOM      7  C   UNL     1       2.541   4.390  19.324  0.00  0.00    +0.000 C 
ENDROOT
BRANCH   6   8
ATOM      8  N   UNL     1       1.907   6.541  20.502  0.00  0.00    +0.000 N 
ATOM      9  C   UNL     1       2.027   7.496  19.520  0.00  0.00    +0.000 A 
ATOM     10  C   UNL     1       2.895   7.373  18.449  0.00  0.00    +0.000 A 
ATOM     11  C   UNL     1       2.971   8.419  17.561  0.00  0.00    +0.000 A 
ATOM     12  N   UNL     1       2.224   9.522  17.664  0.00  0.00    +0.000 NA
ATOM     13  C   UNL     1       1.381   9.543  18.713  0.00  0.00    +0.000 A 
ATOM     14  N   UNL     1       1.250   8.581  19.653  0.00  0.00    +0.000 NA
ATOM     15  H   UNL     1       1.229   6.773  21.226  0.00  0.00    +0.000 HD
BRANCH  13  16
ATOM     16  C   UNL     1       0.535  10.708  18.825  0.00  0.00    +0.000 C 
ATOM     17  N   UNL     1      -0.154  11.631  18.930  0.00  0.00    +0.000 NA
ENDBRANCH  13  16
ENDBRANCH   6   8
BRANCH   7  18
ATOM     18  C   UNL     1       3.713   4.489  18.360  0.00  0.00    +0.000 A 
ATOM     19  C   UNL     1       3.522   4.297  16.983  0.00  0.00    +0.000 A 
ATOM     20  C   UNL     1       4.618   4.276  16.111  0.00  0.00    +0.000 A 
ATOM     21  C   UNL     1       5.911   4.453  16.604  0.00  0.00    +0.000 A 
ATOM     22 CL   UNL     1       7.249   4.396  15.525  0.00  0.00    +0.000 Cl
ATOM     23  C   UNL     1       6.107   4.658  17.965  0.00  0.00    +0.000 A 
ATOM     24  F   UNL     1       7.339   4.818  18.470  0.00  0.00    +0.000 F 
ATOM     25  C   UNL     1       5.024   4.678  18.839  0.00  0.00    +0.000 A 
ENDBRANCH   7  18
TORSDOF 3
ENDMDL
MODEL 2
REMARK VINA RESULT:      -7.4      4.639      7.737
REMARK  Name = 
REMARK  4 active torsions:
REMARK  status: ('A' for Active; 'I' for Inactive)
REMARK    1  A    between atoms: C_1  and  N_2
REMARK    2  A    between atoms: C_6  and  N_7
REMARK    3  A    between atoms: C_12  and  C_13
REMARK    4  A    between atoms: C_16  and  C_17
REMARK                            x       y       z     vdW  Elec       q    Type
REMARK                         _______ _______ _______ _____ _____    ______ ____
ROOT
ATOM      1  C   UNL     1      -0.193  11.959  21.702  0.00  0.00    +0.000 C 
ATOM      2  N   UNL     1       0.326  10.701  21.202  0.00  0.00    +0.000 N 
ATOM      3  C   UNL     1       0.768   9.692  22.026  0.00  0.00    +0.000 C 
ATOM      4  O   UNL     1       0.695   9.663  23.244  0.00  0.00    +0.000 OA
ATOM      5  C   UNL     1       1.399   8.617  21.190  0.00  0.00    +0.000 C 
ATOM      6  C   UNL     1       1.032   8.957  19.742  0.00  0.00    +0.000 C 
ATOM      7  C   UNL     1       0.571  10.439  19.793  0.00  0.00    +0.000 C 
ENDROOT
BRANCH   6   8
ATOM      8  N   UNL     1       2.149   8.708  18.829  0.00  0.00    +0.000 N 
ATOM      9  C   UNL     1       2.591   7.464  18.444  0.00  0.00    +0.000 A 
ATOM     10  C   UNL     1       1.992   6.287  18.862  0.00  0.00    +0.000 A 
ATOM     11  C   UNL     1       2.558   5.101  18.460  0.00  0.00    +0.000 A 
ATOM     12  N   UNL     1       3.627   5.035  17.660  0.00  0.00    +0.000 NA
ATOM     13  C   UNL     1       4.122   6.224  17.271  0.00  0.00    +0.000 A 
ATOM     14  N   UNL     1       3.656   7.441  17.631  0.00  0.00    +0.000 NA
ATOM     15  H   UNL     1       2.691   9.479  18.443  0.00  0.00    +0.000 HD
BRANCH  13  16
ATOM     16  C   UNL     1       5.254   6.178  16.375  0.00  0.00    +0.000 C 
ATOM     17  N   UNL     1       6.154   6.161  15.649  0.00  0.00    +0.000 NA
ENDBRANCH  13  16
ENDBRANCH   6   8
BRANCH   7  18
ATOM     18  C   UNL     1      -0.686  10.709  18.980  0.00  0.00    +0.000 A 
ATOM     19  C   UNL     1      -1.663  11.600  19.451  0.00  0.00    +0.000 A 
ATOM     20  C   UNL     1      -2.869  11.761  18.758  0.00  0.00    +0.000 A 
ATOM     21  C   UNL     1      -3.108  11.042  17.586  0.00  0.00    +0.000 A 
ATOM     22 CL   UNL     1      -4.606  11.230  16.763  0.00  0.00    +0.000 Cl
ATOM     23  C   UNL     1      -2.139  10.168  17.106  0.00  0.00    +0.000 A 
ATOM     24  F   UNL     1      -2.345   9.453  15.990  0.00  0.00    +0.000 F 
ATOM     25  C   UNL     1      -0.939  10.000  17.790  0.00  0.00    +0.000 A 
ENDBRANCH   7  18
TORSDOF 3
ENDMDL
MODEL 3
REMARK VINA RESULT:      -7.4      0.959      1.374
REMARK  Name = 
REMARK  4 active torsions:
REMARK  status: ('A' for Active; 'I' for Inactive)
REMARK    1  A    between atoms: C_1  and  N_2
REMARK    2  A    between atoms: C_6  and  N_7
REMARK    3  A    between atoms: C_12  and  C_13
REMARK    4  A    between atoms: C_16  and  C_17
REMARK                            x       y       z     vdW  Elec       q    Type
REMARK                         _______ _______ _______ _____ _____    ______ ____
ROOT
ATOM      1  C   UNL     1       2.421   1.690  19.055  0.00  0.00    +0.000 C 
ATOM      2  N   UNL     1       2.488   2.883  19.877  0.00  0.00    +0.000 N 
ATOM      3  C   UNL     1       2.261   2.873  21.234  0.00  0.00    +0.000 C 
ATOM      4  O   UNL     1       2.085   1.889  21.934  0.00  0.00    +0.000 OA
ATOM      5  C   UNL     1       2.232   4.287  21.737  0.00  0.00    +0.000 C 
ATOM      6  C   UNL     1       2.752   5.143  20.579  0.00  0.00    +0.000 C 
ATOM      7  C   UNL     1       2.649   4.222  19.332  0.00  0.00    +0.000 C 
ENDROOT
BRANCH   6   8
ATOM      8  N   UNL     1       2.007   6.399  20.458  0.00  0.00    +0.000 N 
ATOM      9  C   UNL     1       2.172   7.319  19.450  0.00  0.00    +0.000 A 
ATOM     10  C   UNL     1       3.055   7.139  18.400  0.00  0.00    +0.000 A 
ATOM     11  C   UNL     1       3.177   8.155  17.482  0.00  0.00    +0.000 A 
ATOM     12  N   UNL     1       2.460   9.282  17.539  0.00  0.00    +0.000 NA
ATOM     13  C   UNL     1       1.600   9.358  18.570  0.00  0.00    +0.000 A 
ATOM     14  N   UNL     1       1.424   8.429  19.536  0.00  0.00    +0.000 NA
ATOM     15  H   UNL     1       1.324   6.671  21.162  0.00  0.00    +0.000 HD
BRANCH  13  16
ATOM     16  C   UNL     1       0.785  10.549  18.631  0.00  0.00    +0.000 C 
ATOM     17  N   UNL     1       0.147  11.511  18.696  0.00  0.00    +0.000 NA
ENDBRANCH  13  16
ENDBRANCH   6   8
BRANCH   7  18
ATOM     18  C   UNL     1       3.873   4.282  18.433  0.00  0.00    +0.000 A 
ATOM     19  C   UNL     1       5.141   4.556  18.971  0.00  0.00    +0.000 A 
ATOM     20  C   UNL     1       6.247   4.723  18.130  0.00  0.00    +0.000 A 
ATOM     21  C   UNL     1       6.101   4.611  16.746  0.00  0.00    +0.000 A 
ATOM     22 CL   UNL     1       7.464   4.848  15.725  0.00  0.00    +0.000 Cl
ATOM     23  C   UNL     1       4.852   4.326  16.207  0.00  0.00    +0.000 A 
ATOM     24  F   UNL     1       4.678   4.226  14.881  0.00  0.00    +0.000 F 
ATOM     25  C   UNL     1       3.747   4.161  17.036  0.00  0.00    +0.000 A 
ENDBRANCH   7  18
TORSDOF 3
ENDMDL
MODEL 4
REMARK VINA RESULT:      -7.3      1.713      2.337
REMARK  Name = 
REMARK  4 active torsions:
REMARK  status: ('A' for Active; 'I' for Inactive)
REMARK    1  A    between atoms: C_1  and  N_2
REMARK    2  A    between atoms: C_6  and  N_7
REMARK    3  A    between atoms: C_12  and  C_13
REMARK    4  A    between atoms: C_16  and  C_17
REMARK                            x       y       z     vdW  Elec       q    Type
REMARK                         _______ _______ _______ _____ _____    ______ ____
ROOT
ATOM      1  C   UNL     1       1.833   2.534  18.593  0.00  0.00    +0.000 C 
ATOM      2  N   UNL     1       1.908   3.805  19.286  0.00  0.00    +0.000 N 
ATOM      3  C   UNL     1       1.427   3.993  20.561  0.00  0.00    +0.000 C 
ATOM      4  O   UNL     1       0.983   3.133  21.305  0.00  0.00    +0.000 OA
ATOM      5  C   UNL     1       1.502   5.453  20.903  0.00  0.00    +0.000 C 
ATOM      6  C   UNL     1       2.349   6.089  19.797  0.00  0.00    +0.000 C 
ATOM      7  C   UNL     1       2.358   5.036  18.655  0.00  0.00    +0.000 C 
ENDROOT
BRANCH   6   8
ATOM      8  N   UNL     1       1.825   7.398  19.401  0.00  0.00    +0.000 N 
ATOM      9  C   UNL     1       1.459   8.397  20.272  0.00  0.00    +0.000 A 
ATOM     10  C   UNL     1       1.580   8.283  21.646  0.00  0.00    +0.000 A 
ATOM     11  C   UNL     1       1.126   9.324  22.419  0.00  0.00    +0.000 A 
ATOM     12  N   UNL     1       0.613  10.446  21.906  0.00  0.00    +0.000 NA
ATOM     13  C   UNL     1       0.567  10.489  20.562  0.00  0.00    +0.000 A 
ATOM     14  N   UNL     1       0.962   9.512  19.716  0.00  0.00    +0.000 NA
ATOM     15  H   UNL     1       1.676   7.627  18.420  0.00  0.00    +0.000 HD
BRANCH  13  16
ATOM     16  C   UNL     1       0.052  11.708  19.982  0.00  0.00    +0.000 C 
ATOM     17  N   UNL     1      -0.373  12.671  19.505  0.00  0.00    +0.000 NA
ENDBRANCH  13  16
ENDBRANCH   6   8
BRANCH   7  18
ATOM     18  C   UNL     1       3.728   4.837  18.027  0.00  0.00    +0.000 A 
ATOM     19  C   UNL     1       4.895   5.104  18.760  0.00  0.00    +0.000 A 
ATOM     20  C   UNL     1       6.151   5.029  18.147  0.00  0.00    +0.000 A 
ATOM     21  C   UNL     1       6.255   4.681  16.799  0.00  0.00    +0.000 A 
ATOM     22 CL   UNL     1       7.803   4.622  16.053  0.00  0.00    +0.000 Cl
ATOM     23  C   UNL     1       5.105   4.402  16.070  0.00  0.00    +0.000 A 
ATOM     24  F   UNL     1       5.172   4.078  14.770  0.00  0.00    +0.000 F 
ATOM     25  C   UNL     1       3.852   4.476  16.672  0.00  0.00    +0.000 A 
ENDBRANCH   7  18
TORSDOF 3
ENDMDL
MODEL 5
REMARK VINA RESULT:      -7.3      4.890      7.818
REMARK  Name = 
REMARK  4 active torsions:
REMARK  status: ('A' for Active; 'I' for Inactive)
REMARK    1  A    between atoms: C_1  and  N_2
REMARK    2  A    between atoms: C_6  and  N_7
REMARK    3  A    between atoms: C_12  and  C_13
REMARK    4  A    between atoms: C_16  and  C_17
REMARK                            x       y       z     vdW  Elec       q    Type
REMARK                         _______ _______ _______ _____ _____    ______ ____
ROOT
ATOM      1  C   UNL     1      -0.237  11.864  21.642  0.00  0.00    +0.000 C 
ATOM      2  N   UNL     1       0.329  10.613  21.176  0.00  0.00    +0.000 N 
ATOM      3  C   UNL     1       0.839   9.658  22.025  0.00  0.00    +0.000 C 
ATOM      4  O   UNL     1       0.797   9.672  23.244  0.00  0.00    +0.000 OA
ATOM      5  C   UNL     1       1.500   8.582  21.212  0.00  0.00    +0.000 C 
ATOM      6  C   UNL     1       1.081   8.849  19.763  0.00  0.00    +0.000 C 
ATOM      7  C   UNL     1       0.551  10.309  19.771  0.00  0.00    +0.000 C 
ENDROOT
BRANCH   6   8
ATOM      8  N   UNL     1       2.186   8.618  18.830  0.00  0.00    +0.000 N 
ATOM      9  C   UNL     1       2.633   7.381  18.429  0.00  0.00    +0.000 A 
ATOM     10  C   UNL     1       2.052   6.196  18.847  0.00  0.00    +0.000 A 
ATOM     11  C   UNL     1       2.623   5.018  18.426  0.00  0.00    +0.000 A 
ATOM     12  N   UNL     1       3.679   4.968  17.609  0.00  0.00    +0.000 NA
ATOM     13  C   UNL     1       4.157   6.165  17.222  0.00  0.00    +0.000 A 
ATOM     14  N   UNL     1       3.686   7.374  17.599  0.00  0.00    +0.000 NA
ATOM     15  H   UNL     1       2.715   9.397  18.442  0.00  0.00    +0.000 HD
BRANCH  13  16
ATOM     16  C   UNL     1       5.275   6.137  16.308  0.00  0.00    +0.000 C 
ATOM     17  N   UNL     1       6.167   6.136  15.572  0.00  0.00    +0.000 NA
ENDBRANCH  13  16
ENDBRANCH   6   8
BRANCH   7  18
ATOM     18  C   UNL     1      -0.736  10.489  18.982  0.00  0.00    +0.000 A 
ATOM     19  C   UNL     1      -0.908   9.854  17.742  0.00  0.00    +0.000 A 
ATOM     20  C   UNL     1      -2.044  10.110  16.966  0.00  0.00    +0.000 A 
ATOM     21  C   UNL     1      -3.023  10.994  17.422  0.00  0.00    +0.000 A 
ATOM     22 CL   UNL     1      -4.399  11.319  16.444  0.00  0.00    +0.000 Cl
ATOM     23  C   UNL     1      -2.867  11.615  18.656  0.00  0.00    +0.000 A 
ATOM     24  F   UNL     1      -3.783  12.480  19.115  0.00  0.00    +0.000 F 
ATOM     25  C   UNL     1      -1.739  11.369  19.433  0.00  0.00    +0.000 A 
ENDBRANCH   7  18
TORSDOF 3
ENDMDL
MODEL 6
REMARK VINA RESULT:      -7.3      1.708      2.176
REMARK  Name = 
REMARK  4 active torsions:
REMARK  status: ('A' for Active; 'I' for Inactive)
REMARK    1  A    between atoms: C_1  and  N_2
REMARK    2  A    between atoms: C_6  and  N_7
REMARK    3  A    between atoms: C_12  and  C_13
REMARK    4  A    between atoms: C_16  and  C_17
REMARK                            x       y       z     vdW  Elec       q    Type
REMARK                         _______ _______ _______ _____ _____    ______ ____
ROOT
ATOM      1  C   UNL     1       1.999   2.789  18.345  0.00  0.00    +0.000 C 
ATOM      2  N   UNL     1       1.914   4.008  19.125  0.00  0.00    +0.000 N 
ATOM      3  C   UNL     1       1.198   4.100  20.297  0.00  0.00    +0.000 C 
ATOM      4  O   UNL     1       0.643   3.185  20.883  0.00  0.00    +0.000 OA
ATOM      5  C   UNL     1       1.173   5.533  20.746  0.00  0.00    +0.000 C 
ATOM      6  C   UNL     1       2.197   6.255  19.865  0.00  0.00    +0.000 C 
ATOM      7  C   UNL     1       2.444   5.286  18.676  0.00  0.00    +0.000 C 
ENDROOT
BRANCH   6   8
ATOM      8  N   UNL     1       1.726   7.583  19.467  0.00  0.00    +0.000 N 
ATOM      9  C   UNL     1       1.351   8.580  20.337  0.00  0.00    +0.000 A 
ATOM     10  C   UNL     1       1.412   8.443  21.713  0.00  0.00    +0.000 A 
ATOM     11  C   UNL     1       0.955   9.486  22.483  0.00  0.00    +0.000 A 
ATOM     12  N   UNL     1       0.494  10.629  21.966  0.00  0.00    +0.000 NA
ATOM     13  C   UNL     1       0.505  10.692  20.622  0.00  0.00    +0.000 A 
ATOM     14  N   UNL     1       0.908   9.715  19.779  0.00  0.00    +0.000 NA
ATOM     15  H   UNL     1       1.623   7.830  18.484  0.00  0.00    +0.000 HD
BRANCH  13  16
ATOM     16  C   UNL     1       0.048  11.932  20.040  0.00  0.00    +0.000 C 
ATOM     17  N   UNL     1      -0.296  12.934  19.576  0.00  0.00    +0.000 NA
ENDBRANCH  13  16
ENDBRANCH   6   8
BRANCH   7  18
ATOM     18  C   UNL     1       3.912   5.147  18.304  0.00  0.00    +0.000 A 
ATOM     19  C   UNL     1       4.286   4.670  17.038  0.00  0.00    +0.000 A 
ATOM     20  C   UNL     1       5.633   4.436  16.737  0.00  0.00    +0.000 A 
ATOM     21  C   UNL     1       6.619   4.682  17.694  0.00  0.00    +0.000 A 
ATOM     22 CL   UNL     1       8.267   4.361  17.319  0.00  0.00    +0.000 Cl
ATOM     23  C   UNL     1       6.258   5.166  18.946  0.00  0.00    +0.000 A 
ATOM     24  F   UNL     1       7.181   5.398  19.890  0.00  0.00    +0.000 F 
ATOM     25  C   UNL     1       4.921   5.400  19.254  0.00  0.00    +0.000 A 
ENDBRANCH   7  18
TORSDOF 3
ENDMDL
MODEL 7
REMARK VINA RESULT:      -7.1      1.831      2.310
REMARK  Name = 
REMARK  4 active torsions:
REMARK  status: ('A' for Active; 'I' for Inactive)
REMARK    1  A    between atoms: C_1  and  N_2
REMARK    2  A    between atoms: C_6  and  N_7
REMARK    3  A    between atoms: C_12  and  C_13
REMARK    4  A    between atoms: C_16  and  C_17
REMARK                            x       y       z     vdW  Elec       q    Type
REMARK                         _______ _______ _______ _____ _____    ______ ____
ROOT
ATOM      1  C   UNL     1       1.731   2.987  18.329  0.00  0.00    +0.000 C 
ATOM      2  N   UNL     1       1.880   4.228  19.062  0.00  0.00    +0.000 N 
ATOM      3  C   UNL     1       1.569   4.353  20.397  0.00  0.00    +0.000 C 
ATOM      4  O   UNL     1       1.239   3.454  21.153  0.00  0.00    +0.000 OA
ATOM      5  C   UNL     1       1.668   5.799  20.791  0.00  0.00    +0.000 C 
ATOM      6  C   UNL     1       2.352   6.497  19.612  0.00  0.00    +0.000 C 
ATOM      7  C   UNL     1       2.224   5.494  18.433  0.00  0.00    +0.000 C 
ENDROOT
BRANCH   6   8
ATOM      8  N   UNL     1       1.762   7.811  19.346  0.00  0.00    +0.000 N 
ATOM      9  C   UNL     1       1.340   8.695  20.312  0.00  0.00    +0.000 A 
ATOM     10  C   UNL     1       1.460   8.446  21.668  0.00  0.00    +0.000 A 
ATOM     11  C   UNL     1       0.949   9.378  22.540  0.00  0.00    +0.000 A 
ATOM     12  N   UNL     1       0.380  10.519  22.139  0.00  0.00    +0.000 NA
ATOM     13  C   UNL     1       0.338  10.697  20.806  0.00  0.00    +0.000 A 
ATOM     14  N   UNL     1       0.788   9.834  19.869  0.00  0.00    +0.000 NA
ATOM     15  H   UNL     1       1.605   8.132  18.393  0.00  0.00    +0.000 HD
BRANCH  13  16
ATOM     16  C   UNL     1      -0.237  11.941  20.349  0.00  0.00    +0.000 C 
ATOM     17  N   UNL     1      -0.682  12.938  19.968  0.00  0.00    +0.000 NA
ENDBRANCH  13  16
ENDBRANCH   6   8
BRANCH   7  18
ATOM     18  C   UNL     1       3.502   5.349  17.622  0.00  0.00    +0.000 A 
ATOM     19  C   UNL     1       3.810   4.137  16.985  0.00  0.00    +0.000 A 
ATOM     20  C   UNL     1       5.037   3.969  16.333  0.00  0.00    +0.000 A 
ATOM     21  C   UNL     1       5.966   5.010  16.305  0.00  0.00    +0.000 A 
ATOM     22 CL   UNL     1       7.482   4.778  15.526  0.00  0.00    +0.000 Cl
ATOM     23  C   UNL     1       5.663   6.219  16.922  0.00  0.00    +0.000 A 
ATOM     24  F   UNL     1       6.541   7.233  16.924  0.00  0.00    +0.000 F 
ATOM     25  C   UNL     1       4.446   6.393  17.574  0.00  0.00    +0.000 A 
ENDBRANCH   7  18
TORSDOF 3
ENDMDL
MODEL 8
REMARK VINA RESULT:      -7.0      5.792      8.190
REMARK  Name = 
REMARK  4 active torsions:
REMARK  status: ('A' for Active; 'I' for Inactive)
REMARK    1  A    between atoms: C_1  and  N_2
REMARK    2  A    between atoms: C_6  and  N_7
REMARK    3  A    between atoms: C_12  and  C_13
REMARK    4  A    between atoms: C_16  and  C_17
REMARK                            x       y       z     vdW  Elec       q    Type
REMARK                         _______ _______ _______ _____ _____    ______ ____
ROOT
ATOM      1  C   UNL     1       2.681  13.323  20.829  0.00  0.00    +0.000 C 
ATOM      2  N   UNL     1       1.532  13.488  19.961  0.00  0.00    +0.000 N 
ATOM      3  C   UNL     1       1.282  14.644  19.258  0.00  0.00    +0.000 C 
ATOM      4  O   UNL     1       2.013  15.619  19.180  0.00  0.00    +0.000 OA
ATOM      5  C   UNL     1      -0.067  14.542  18.609  0.00  0.00    +0.000 C 
ATOM      6  C   UNL     1      -0.485  13.076  18.763  0.00  0.00    +0.000 C 
ATOM      7  C   UNL     1       0.456  12.514  19.863  0.00  0.00    +0.000 C 
ENDROOT
BRANCH   6   8
ATOM      8  N   UNL     1      -1.911  12.951  19.072  0.00  0.00    +0.000 N 
ATOM      9  C   UNL     1      -2.731  11.947  18.613  0.00  0.00    +0.000 A 
ATOM     10  C   UNL     1      -2.280  10.906  17.819  0.00  0.00    +0.000 A 
ATOM     11  C   UNL     1      -3.205   9.993  17.372  0.00  0.00    +0.000 A 
ATOM     12  N   UNL     1      -4.500  10.044  17.698  0.00  0.00    +0.000 NA
ATOM     13  C   UNL     1      -4.845  11.065  18.503  0.00  0.00    +0.000 A 
ATOM     14  N   UNL     1      -4.020  12.027  18.974  0.00  0.00    +0.000 NA
ATOM     15  H   UNL     1      -2.386  13.647  19.643  0.00  0.00    +0.000 HD
BRANCH  13  16
ATOM     16  C   UNL     1      -6.232  11.120  18.901  0.00  0.00    +0.000 C 
ATOM     17  N   UNL     1      -7.345  11.141  19.216  0.00  0.00    +0.000 NA
ENDBRANCH  13  16
ENDBRANCH   6   8
BRANCH   7  18
ATOM     18  C   UNL     1       1.017  11.139  19.534  0.00  0.00    +0.000 A 
ATOM     19  C   UNL     1       1.592  10.885  18.279  0.00  0.00    +0.000 A 
ATOM     20  C   UNL     1       2.005   9.592  17.937  0.00  0.00    +0.000 A 
ATOM     21  C   UNL     1       1.854   8.543  18.846  0.00  0.00    +0.000 A 
ATOM     22 CL   UNL     1       2.339   6.954  18.399  0.00  0.00    +0.000 Cl
ATOM     23  C   UNL     1       1.298   8.790  20.095  0.00  0.00    +0.000 A 
ATOM     24  F   UNL     1       1.128   7.800  20.984  0.00  0.00    +0.000 F 
ATOM     25  C   UNL     1       0.883  10.072  20.443  0.00  0.00    +0.000 A 
ENDBRANCH   7  18
TORSDOF 3
ENDMDL
MODEL 9
REMARK VINA RESULT:      -6.9      5.856      8.474
REMARK  Name = 
REMARK  4 active torsions:
REMARK  status: ('A' for Active; 'I' for Inactive)
REMARK    1  A    between atoms: C_1  and  N_2
REMARK    2  A    between atoms: C_6  and  N_7
REMARK    3  A    between atoms: C_12  and  C_13
REMARK    4  A    between atoms: C_16  and  C_17
REMARK                            x       y       z     vdW  Elec       q    Type
REMARK                         _______ _______ _______ _____ _____    ______ ____
ROOT
ATOM      1  C   UNL     1       2.573  13.309  20.672  0.00  0.00    +0.000 C 
ATOM      2  N   UNL     1       1.330  13.417  19.932  0.00  0.00    +0.000 N 
ATOM      3  C   UNL     1       1.053  14.460  19.079  0.00  0.00    +0.000 C 
ATOM      4  O   UNL     1       1.818  15.353  18.750  0.00  0.00    +0.000 OA
ATOM      5  C   UNL     1      -0.373  14.356  18.623  0.00  0.00    +0.000 C 
ATOM      6  C   UNL     1      -0.845  12.969  19.071  0.00  0.00    +0.000 C 
ATOM      7  C   UNL     1       0.200  12.523  20.130  0.00  0.00    +0.000 C 
ENDROOT
BRANCH   6   8
ATOM      8  N   UNL     1      -2.223  13.001  19.566  0.00  0.00    +0.000 N 
ATOM      9  C   UNL     1      -3.248  12.216  19.094  0.00  0.00    +0.000 A 
ATOM     10  C   UNL     1      -3.077  11.266  18.102  0.00  0.00    +0.000 A 
ATOM     11  C   UNL     1      -4.187  10.582  17.670  0.00  0.00    +0.000 A 
ATOM     12  N   UNL     1      -5.406  10.765  18.187  0.00  0.00    +0.000 NA
ATOM     13  C   UNL     1      -5.476  11.679  19.171  0.00  0.00    +0.000 A 
ATOM     14  N   UNL     1      -4.452  12.420  19.648  0.00  0.00    +0.000 NA
ATOM     15  H   UNL     1      -2.502  13.656  20.295  0.00  0.00    +0.000 HD
BRANCH  13  16
ATOM     16  C   UNL     1      -6.775  11.867  19.773  0.00  0.00    +0.000 C 
ATOM     17  N   UNL     1      -7.812  11.999  20.268  0.00  0.00    +0.000 NA
ENDBRANCH  13  16
ENDBRANCH   6   8
BRANCH   7  18
ATOM     18  C   UNL     1       0.639  11.075  19.974  0.00  0.00    +0.000 A 
ATOM     19  C   UNL     1       0.720  10.230  21.091  0.00  0.00    +0.000 A 
ATOM     20  C   UNL     1       1.230   8.932  20.963  0.00  0.00    +0.000 A 
ATOM     21  C   UNL     1       1.659   8.465  19.719  0.00  0.00    +0.000 A 
ATOM     22 CL   UNL     1       2.311   6.880  19.584  0.00  0.00    +0.000 Cl
ATOM     23  C   UNL     1       1.569   9.293  18.606  0.00  0.00    +0.000 A 
ATOM     24  F   UNL     1       1.985   8.877  17.401  0.00  0.00    +0.000 F 
ATOM     25  C   UNL     1       1.065  10.584  18.725  0.00  0.00    +0.000 A 
ENDBRANCH   7  18
TORSDOF 3
ENDMDL
