MODEL 1
REMARK VINA RESULT:      -8.0      0.000      0.000
REMARK  Name = 
REMARK  8 active torsions:
REMARK  status: ('A' for Active; 'I' for Inactive)
REMARK    1  A    between atoms: C_1  and  N_2
REMARK    2  A    between atoms: N_2  and  C_3
REMARK    3  A    between atoms: C_4  and  C_6
REMARK    4  A    between atoms: C_6  and  C_7
REMARK    5  A    between atoms: C_6  and  C_20
REMARK    6  A    between atoms: C_10  and  C_11
REMARK    7  A    between atoms: C_20  and  N_21
REMARK    8  A    between atoms: C_20  and  C_22
REMARK                            x       y       z     vdW  Elec       q    Type
REMARK                         _______ _______ _______ _____ _____    ______ ____
ROOT
ATOM      1  C   UNL     1       2.623   5.028  19.166  0.00  0.00    +0.000 C 
ENDROOT
BRANCH   1   2
ATOM      2  C   UNL     1       2.268   6.506  19.401  0.00  0.00    +0.000 A 
ATOM      3  C   UNL     1       1.836   6.915  20.669  0.00  0.00    +0.000 A 
ATOM      4  C   UNL     1       1.362   8.216  20.891  0.00  0.00    +0.000 A 
ATOM      5  C   UNL     1       1.297   9.168  19.859  0.00  0.00    +0.000 A 
ATOM      6  C   UNL     1       1.772   8.761  18.603  0.00  0.00    +0.000 A 
ATOM      7  C   UNL     1       2.240   7.459  18.371  0.00  0.00    +0.000 A 
BRANCH   5   8
ATOM      8  C   UNL     1       0.720  10.518  20.089  0.00  0.00    +0.000 A 
ATOM      9  C   UNL     1       0.961  11.584  19.199  0.00  0.00    +0.000 A 
ATOM     10  C   UNL     1       0.448  12.863  19.434  0.00  0.00    +0.000 A 
ATOM     11  C   UNL     1      -0.328  13.096  20.558  0.00  0.00    +0.000 A 
ATOM     12  F   UNL     1      -0.824  14.319  20.781  0.00  0.00    +0.000 F 
ATOM     13  C   UNL     1      -0.596  12.072  21.456  0.00  0.00    +0.000 A 
ATOM     14  C   UNL     1      -0.068  10.797  21.227  0.00  0.00    +0.000 A 
ENDBRANCH   5   8
ENDBRANCH   1   2
BRANCH   1  18
ATOM     15  C   UNL     1       1.621   2.465  21.869  0.00  0.00    +0.000 C 
ATOM     16  N   UNL     1       2.463   3.242  20.971  0.00  0.00    +0.000 N 
ATOM     17  C   UNL     1       3.798   2.722  20.722  0.00  0.00    +0.000 C 
ATOM     18  C   UNL     1       1.796   4.139  20.127  0.00  0.00    +0.000 C 
ATOM     19  O   UNL     1       0.567   4.252  20.191  0.00  0.00    +0.000 OA
ENDBRANCH   1  18
BRANCH   1  20
ATOM     20  C   UNL     1       2.550   4.561  17.683  0.00  0.00    +0.000 C 
BRANCH  20  21
ATOM     21  C   UNL     1       3.862   3.840  17.273  0.00  0.00    +0.000 C 
ATOM     22  O   UNL     1       3.927   2.608  17.358  0.00  0.00    +0.000 OA
ATOM     23  N   UNL     1       4.938   4.573  16.807  0.00  0.00    +0.000 N 
ATOM     24  C   UNL     1       5.031   6.030  16.663  0.00  0.00    +0.000 C 
ATOM     25  C   UNL     1       5.371   6.393  15.212  0.00  0.00    +0.000 C 
ATOM     26  O   UNL     1       6.590   5.751  14.803  0.00  0.00    +0.000 OA
ATOM     27  C   UNL     1       6.472   4.321  14.884  0.00  0.00    +0.000 C 
ATOM     28  C   UNL     1       6.130   3.870  16.311  0.00  0.00    +0.000 C 
ENDBRANCH  20  21
BRANCH  20  29
ATOM     29  N   UNL     1       1.420   3.668  17.312  0.00  0.00    +0.000 NA
ATOM     30  H   UNL     1       1.827   2.833  16.871  0.00  0.00    +0.000 HD
ATOM     31  H   UNL     1       0.891   4.110  16.558  0.00  0.00    +0.000 HD
ENDBRANCH  20  29
ENDBRANCH   1  20
TORSDOF 6
ENDMDL
MODEL 2
REMARK VINA RESULT:      -7.9      4.906      7.569
REMARK  Name = 
REMARK  8 active torsions:
REMARK  status: ('A' for Active; 'I' for Inactive)
REMARK    1  A    between atoms: C_1  and  N_2
REMARK    2  A    between atoms: N_2  and  C_3
REMARK    3  A    between atoms: C_4  and  C_6
REMARK    4  A    between atoms: C_6  and  C_7
REMARK    5  A    between atoms: C_6  and  C_20
REMARK    6  A    between atoms: C_10  and  C_11
REMARK    7  A    between atoms: C_20  and  N_21
REMARK    8  A    between atoms: C_20  and  C_22
REMARK                            x       y       z     vdW  Elec       q    Type
REMARK                         _______ _______ _______ _____ _____    ______ ____
ROOT
ATOM      1  C   UNL     1       6.077   5.857  17.212  0.00  0.00    +0.000 C 
ENDROOT
BRANCH   1   2
ATOM      2  C   UNL     1       6.901   7.033  17.762  0.00  0.00    +0.000 A 
ATOM      3  C   UNL     1       6.738   8.307  17.202  0.00  0.00    +0.000 A 
ATOM      4  C   UNL     1       7.570   9.374  17.569  0.00  0.00    +0.000 A 
ATOM      5  C   UNL     1       8.602   9.221  18.511  0.00  0.00    +0.000 A 
ATOM      6  C   UNL     1       8.729   7.953  19.097  0.00  0.00    +0.000 A 
ATOM      7  C   UNL     1       7.905   6.878  18.730  0.00  0.00    +0.000 A 
BRANCH   5   8
ATOM      8  C   UNL     1       9.527  10.339  18.833  0.00  0.00    +0.000 A 
ATOM      9  C   UNL     1       9.742  10.758  20.161  0.00  0.00    +0.000 A 
ATOM     10  C   UNL     1      10.584  11.833  20.462  0.00  0.00    +0.000 A 
ATOM     11  C   UNL     1      11.237  12.500  19.439  0.00  0.00    +0.000 A 
ATOM     12  F   UNL     1      12.047  13.526  19.726  0.00  0.00    +0.000 F 
ATOM     13  C   UNL     1      11.059  12.115  18.117  0.00  0.00    +0.000 A 
ATOM     14  C   UNL     1      10.204  11.049  17.818  0.00  0.00    +0.000 A 
ENDBRANCH   5   8
ENDBRANCH   1   2
BRANCH   1  18
ATOM     15  C   UNL     1       7.415   4.445  13.881  0.00  0.00    +0.000 C 
ATOM     16  N   UNL     1       6.560   5.170  14.810  0.00  0.00    +0.000 N 
ATOM     17  C   UNL     1       5.233   5.519  14.333  0.00  0.00    +0.000 C 
ATOM     18  C   UNL     1       6.916   5.085  16.162  0.00  0.00    +0.000 C 
ATOM     19  O   UNL     1       7.917   4.445  16.502  0.00  0.00    +0.000 OA
ENDBRANCH   1  18
BRANCH   1  20
ATOM     20  C   UNL     1       5.448   4.932  18.294  0.00  0.00    +0.000 C 
BRANCH  20  21
ATOM     21  C   UNL     1       4.062   4.410  17.826  0.00  0.00    +0.000 C 
ATOM     22  O   UNL     1       3.995   3.686  16.826  0.00  0.00    +0.000 OA
ATOM     23  N   UNL     1       2.921   4.748  18.531  0.00  0.00    +0.000 N 
ATOM     24  C   UNL     1       2.826   5.605  19.718  0.00  0.00    +0.000 C 
ATOM     25  C   UNL     1       2.163   4.837  20.868  0.00  0.00    +0.000 C 
ATOM     26  O   UNL     1       0.870   4.350  20.472  0.00  0.00    +0.000 OA
ATOM     27  C   UNL     1       0.976   3.459  19.349  0.00  0.00    +0.000 C 
ATOM     28  C   UNL     1       1.633   4.152  18.148  0.00  0.00    +0.000 C 
ENDBRANCH  20  21
BRANCH  20  29
ATOM     29  N   UNL     1       6.245   3.751  18.718  0.00  0.00    +0.000 NA
ATOM     30  H   UNL     1       5.617   3.141  19.260  0.00  0.00    +0.000 HD
ATOM     31  H   UNL     1       6.939   4.056  19.402  0.00  0.00    +0.000 HD
ENDBRANCH  20  29
ENDBRANCH   1  20
TORSDOF 6
ENDMDL
MODEL 3
REMARK VINA RESULT:      -7.9      5.414      9.102
REMARK  Name = 
REMARK  8 active torsions:
REMARK  status: ('A' for Active; 'I' for Inactive)
REMARK    1  A    between atoms: C_1  and  N_2
REMARK    2  A    between atoms: N_2  and  C_3
REMARK    3  A    between atoms: C_4  and  C_6
REMARK    4  A    between atoms: C_6  and  C_7
REMARK    5  A    between atoms: C_6  and  C_20
REMARK    6  A    between atoms: C_10  and  C_11
REMARK    7  A    between atoms: C_20  and  N_21
REMARK    8  A    between atoms: C_20  and  C_22
REMARK                            x       y       z     vdW  Elec       q    Type
REMARK                         _______ _______ _______ _____ _____    ______ ____
ROOT
ATOM      1  C   UNL     1       0.384  11.844  19.647  0.00  0.00    +0.000 C 
ENDROOT
BRANCH   1   2
ATOM      2  C   UNL     1       1.104  10.515  19.365  0.00  0.00    +0.000 A 
ATOM      3  C   UNL     1       1.693  10.305  18.111  0.00  0.00    +0.000 A 
ATOM      4  C   UNL     1       2.230   9.059  17.759  0.00  0.00    +0.000 A 
ATOM      5  C   UNL     1       2.206   7.965  18.642  0.00  0.00    +0.000 A 
ATOM      6  C   UNL     1       1.653   8.198  19.910  0.00  0.00    +0.000 A 
ATOM      7  C   UNL     1       1.107   9.440  20.267  0.00  0.00    +0.000 A 
BRANCH   5   8
ATOM      8  C   UNL     1       2.707   6.628  18.229  0.00  0.00    +0.000 A 
ATOM      9  C   UNL     1       1.988   5.450  18.516  0.00  0.00    +0.000 A 
ATOM     10  C   UNL     1       2.476   4.190  18.159  0.00  0.00    +0.000 A 
ATOM     11  C   UNL     1       3.688   4.086  17.496  0.00  0.00    +0.000 A 
ATOM     12  F   UNL     1       4.154   2.880  17.149  0.00  0.00    +0.000 F 
ATOM     13  C   UNL     1       4.425   5.221  17.187  0.00  0.00    +0.000 A 
ATOM     14  C   UNL     1       3.941   6.481  17.559  0.00  0.00    +0.000 A 
ENDBRANCH   5   8
ENDBRANCH   1   2
BRANCH   1  18
ATOM     15  C   UNL     1       2.210  14.542  21.712  0.00  0.00    +0.000 C 
ATOM     16  N   UNL     1       1.182  13.592  21.316  0.00  0.00    +0.000 N 
ATOM     17  C   UNL     1      -0.129  13.765  21.920  0.00  0.00    +0.000 C 
ATOM     18  C   UNL     1       1.414  12.900  20.120  0.00  0.00    +0.000 C 
ATOM     19  O   UNL     1       2.455  13.096  19.483  0.00  0.00    +0.000 OA
ENDBRANCH   1  18
BRANCH   1  20
ATOM     20  C   UNL     1      -0.531  12.354  18.496  0.00  0.00    +0.000 C 
BRANCH  20  21
ATOM     21  C   UNL     1      -2.013  11.984  18.773  0.00  0.00    +0.000 C 
ATOM     22  O   UNL     1      -2.570  12.431  19.782  0.00  0.00    +0.000 OA
ATOM     23  N   UNL     1      -2.700  11.171  17.889  0.00  0.00    +0.000 N 
ATOM     24  C   UNL     1      -2.186  10.547  16.665  0.00  0.00    +0.000 C 
ATOM     25  C   UNL     1      -3.042  10.967  15.463  0.00  0.00    +0.000 C 
ATOM     26  O   UNL     1      -4.421  10.627  15.681  0.00  0.00    +0.000 OA
ATOM     27  C   UNL     1      -4.938  11.292  16.846  0.00  0.00    +0.000 C 
ATOM     28  C   UNL     1      -4.134  10.925  18.100  0.00  0.00    +0.000 C 
ENDBRANCH  20  21
BRANCH  20  29
ATOM     29  N   UNL     1      -0.487  13.809  18.194  0.00  0.00    +0.000 NA
ATOM     30  H   UNL     1      -1.026  14.287  18.929  0.00  0.00    +0.000 HD
ATOM     31  H   UNL     1      -1.028  13.981  17.344  0.00  0.00    +0.000 HD
ENDBRANCH  20  29
ENDBRANCH   1  20
TORSDOF 6
ENDMDL
MODEL 4
REMARK VINA RESULT:      -7.9      5.375      8.998
REMARK  Name = 
REMARK  8 active torsions:
REMARK  status: ('A' for Active; 'I' for Inactive)
REMARK    1  A    between atoms: C_1  and  N_2
REMARK    2  A    between atoms: N_2  and  C_3
REMARK    3  A    between atoms: C_4  and  C_6
REMARK    4  A    between atoms: C_6  and  C_7
REMARK    5  A    between atoms: C_6  and  C_20
REMARK    6  A    between atoms: C_10  and  C_11
REMARK    7  A    between atoms: C_20  and  N_21
REMARK    8  A    between atoms: C_20  and  C_22
REMARK                            x       y       z     vdW  Elec       q    Type
REMARK                         _______ _______ _______ _____ _____    ______ ____
ROOT
ATOM      1  C   UNL     1       0.172  11.760  19.990  0.00  0.00    +0.000 C 
ENDROOT
BRANCH   1   2
ATOM      2  C   UNL     1       0.837  10.376  20.052  0.00  0.00    +0.000 A 
ATOM      3  C   UNL     1       1.279   9.772  18.868  0.00  0.00    +0.000 A 
ATOM      4  C   UNL     1       1.755   8.453  18.857  0.00  0.00    +0.000 A 
ATOM      5  C   UNL     1       1.813   7.676  20.028  0.00  0.00    +0.000 A 
ATOM      6  C   UNL     1       1.408   8.304  21.215  0.00  0.00    +0.000 A 
ATOM      7  C   UNL     1       0.923   9.620  21.232  0.00  0.00    +0.000 A 
BRANCH   5   8
ATOM      8  C   UNL     1       2.245   6.254  19.990  0.00  0.00    +0.000 A 
ATOM      9  C   UNL     1       3.267   5.817  19.124  0.00  0.00    +0.000 A 
ATOM     10  C   UNL     1       3.650   4.475  19.062  0.00  0.00    +0.000 A 
ATOM     11  C   UNL     1       3.025   3.545  19.878  0.00  0.00    +0.000 A 
ATOM     12  F   UNL     1       3.394   2.260  19.823  0.00  0.00    +0.000 F 
ATOM     13  C   UNL     1       2.019   3.934  20.751  0.00  0.00    +0.000 A 
ATOM     14  C   UNL     1       1.627   5.276  20.799  0.00  0.00    +0.000 A 
ENDBRANCH   5   8
ENDBRANCH   1   2
BRANCH   1  18
ATOM     15  C   UNL     1       1.939  14.690  21.772  0.00  0.00    +0.000 C 
ATOM     16  N   UNL     1       0.908  13.719  21.439  0.00  0.00    +0.000 N 
ATOM     17  C   UNL     1      -0.438  14.020  21.898  0.00  0.00    +0.000 C 
ATOM     18  C   UNL     1       1.205  12.847  20.384  0.00  0.00    +0.000 C 
ATOM     19  O   UNL     1       2.299  12.914  19.814  0.00  0.00    +0.000 OA
ENDBRANCH   1  18
BRANCH   1  20
ATOM     20  C   UNL     1      -0.570  12.075  18.659  0.00  0.00    +0.000 C 
BRANCH  20  21
ATOM     21  C   UNL     1      -2.096  11.832  18.815  0.00  0.00    +0.000 C 
ATOM     22  O   UNL     1      -2.696  12.345  19.767  0.00  0.00    +0.000 OA
ATOM     23  N   UNL     1      -2.771  11.058  17.889  0.00  0.00    +0.000 N 
ATOM     24  C   UNL     1      -2.211  10.368  16.722  0.00  0.00    +0.000 C 
ATOM     25  C   UNL     1      -2.926  10.829  15.447  0.00  0.00    +0.000 C 
ATOM     26  O   UNL     1      -4.342  10.606  15.552  0.00  0.00    +0.000 OA
ATOM     27  C   UNL     1      -4.898  11.336  16.658  0.00  0.00    +0.000 C 
ATOM     28  C   UNL     1      -4.233  10.933  17.982  0.00  0.00    +0.000 C 
ENDBRANCH  20  21
BRANCH  20  29
ATOM     29  N   UNL     1      -0.395  13.440  18.095  0.00  0.00    +0.000 NA
ATOM     30  H   UNL     1       0.238  13.949  18.726  0.00  0.00    +0.000 HD
ATOM     31  H   UNL     1      -1.281  13.942  18.180  0.00  0.00    +0.000 HD
ENDBRANCH  20  29
ENDBRANCH   1  20
TORSDOF 6
ENDMDL
MODEL 5
REMARK VINA RESULT:      -7.9      5.494      9.437
REMARK  Name = 
REMARK  8 active torsions:
REMARK  status: ('A' for Active; 'I' for Inactive)
REMARK    1  A    between atoms: C_1  and  N_2
REMARK    2  A    between atoms: N_2  and  C_3
REMARK    3  A    between atoms: C_4  and  C_6
REMARK    4  A    between atoms: C_6  and  C_7
REMARK    5  A    between atoms: C_6  and  C_20
REMARK    6  A    between atoms: C_10  and  C_11
REMARK    7  A    between atoms: C_20  and  N_21
REMARK    8  A    between atoms: C_20  and  C_22
REMARK                            x       y       z     vdW  Elec       q    Type
REMARK                         _______ _______ _______ _____ _____    ______ ____
ROOT
ATOM      1  C   UNL     1       0.210  11.613  19.409  0.00  0.00    +0.000 C 
ENDROOT
BRANCH   1   2
ATOM      2  C   UNL     1       0.746  10.175  19.328  0.00  0.00    +0.000 A 
ATOM      3  C   UNL     1       0.867   9.420  20.502  0.00  0.00    +0.000 A 
ATOM      4  C   UNL     1       1.485   8.161  20.497  0.00  0.00    +0.000 A 
ATOM      5  C   UNL     1       2.011   7.598  19.321  0.00  0.00    +0.000 A 
ATOM      6  C   UNL     1       1.846   8.343  18.144  0.00  0.00    +0.000 A 
ATOM      7  C   UNL     1       1.236   9.606  18.142  0.00  0.00    +0.000 A 
BRANCH   5   8
ATOM      8  C   UNL     1       2.734   6.299  19.343  0.00  0.00    +0.000 A 
ATOM      9  C   UNL     1       2.349   5.256  20.209  0.00  0.00    +0.000 A 
ATOM     10  C   UNL     1       3.049   4.048  20.256  0.00  0.00    +0.000 A 
ATOM     11  C   UNL     1       4.142   3.855  19.426  0.00  0.00    +0.000 A 
ATOM     12  F   UNL     1       4.811   2.697  19.466  0.00  0.00    +0.000 F 
ATOM     13  C   UNL     1       4.551   4.854  18.552  0.00  0.00    +0.000 A 
ATOM     14  C   UNL     1       3.856   6.068  18.519  0.00  0.00    +0.000 A 
ENDBRANCH   5   8
ENDBRANCH   1   2
BRANCH   1  18
ATOM     15  C   UNL     1       2.901  14.270  20.172  0.00  0.00    +0.000 C 
ATOM     16  N   UNL     1       1.767  13.381  20.374  0.00  0.00    +0.000 N 
ATOM     17  C   UNL     1       0.896  13.685  21.496  0.00  0.00    +0.000 C 
ATOM     18  C   UNL     1       1.387  12.611  19.266  0.00  0.00    +0.000 C 
ATOM     19  O   UNL     1       2.020  12.693  18.208  0.00  0.00    +0.000 OA
ENDBRANCH   1  18
BRANCH   1  20
ATOM     20  C   UNL     1      -0.978  11.928  18.455  0.00  0.00    +0.000 C 
BRANCH  20  21
ATOM     21  C   UNL     1      -2.268  12.220  19.269  0.00  0.00    +0.000 C 
ATOM     22  O   UNL     1      -2.191  12.899  20.300  0.00  0.00    +0.000 OA
ATOM     23  N   UNL     1      -3.487  11.733  18.833  0.00  0.00    +0.000 N 
ATOM     24  C   UNL     1      -3.746  10.904  17.651  0.00  0.00    +0.000 C 
ATOM     25  C   UNL     1      -4.770  11.594  16.741  0.00  0.00    +0.000 C 
ATOM     26  O   UNL     1      -5.983  11.868  17.461  0.00  0.00    +0.000 OA
ATOM     27  C   UNL     1      -5.733  12.734  18.581  0.00  0.00    +0.000 C 
ATOM     28  C   UNL     1      -4.714  12.116  19.547  0.00  0.00    +0.000 C 
ENDBRANCH  20  21
BRANCH  20  29
ATOM     29  N   UNL     1      -0.796  13.050  17.497  0.00  0.00    +0.000 NA
ATOM     30  H   UNL     1       0.125  12.925  17.057  0.00  0.00    +0.000 HD
ATOM     31  H   UNL     1      -0.697  13.918  18.028  0.00  0.00    +0.000 HD
ENDBRANCH  20  29
ENDBRANCH   1  20
TORSDOF 6
ENDMDL
MODEL 6
REMARK VINA RESULT:      -7.9      5.429      9.039
REMARK  Name = 
REMARK  8 active torsions:
REMARK  status: ('A' for Active; 'I' for Inactive)
REMARK    1  A    between atoms: C_1  and  N_2
REMARK    2  A    between atoms: N_2  and  C_3
REMARK    3  A    between atoms: C_4  and  C_6
REMARK    4  A    between atoms: C_6  and  C_7
REMARK    5  A    between atoms: C_6  and  C_20
REMARK    6  A    between atoms: C_10  and  C_11
REMARK    7  A    between atoms: C_20  and  N_21
REMARK    8  A    between atoms: C_20  and  C_22
REMARK                            x       y       z     vdW  Elec       q    Type
REMARK                         _______ _______ _______ _____ _____    ______ ____
ROOT
ATOM      1  C   UNL     1       0.323  11.994  19.704  0.00  0.00    +0.000 C 
ENDROOT
BRANCH   1   2
ATOM      2  C   UNL     1       0.789  10.540  19.525  0.00  0.00    +0.000 A 
ATOM      3  C   UNL     1       0.825   9.689  20.638  0.00  0.00    +0.000 A 
ATOM      4  C   UNL     1       1.379   8.404  20.552  0.00  0.00    +0.000 A 
ATOM      5  C   UNL     1       1.923   7.908  19.353  0.00  0.00    +0.000 A 
ATOM      6  C   UNL     1       1.842   8.752  18.236  0.00  0.00    +0.000 A 
ATOM      7  C   UNL     1       1.296  10.042  18.315  0.00  0.00    +0.000 A 
BRANCH   5   8
ATOM      8  C   UNL     1       2.577   6.575  19.295  0.00  0.00    +0.000 A 
ATOM      9  C   UNL     1       2.259   5.556  20.215  0.00  0.00    +0.000 A 
ATOM     10  C   UNL     1       2.899   4.315  20.183  0.00  0.00    +0.000 A 
ATOM     11  C   UNL     1       3.864   4.065  19.220  0.00  0.00    +0.000 A 
ATOM     12  F   UNL     1       4.475   2.875  19.186  0.00  0.00    +0.000 F 
ATOM     13  C   UNL     1       4.203   5.038  18.290  0.00  0.00    +0.000 A 
ATOM     14  C   UNL     1       3.570   6.286  18.334  0.00  0.00    +0.000 A 
ENDBRANCH   5   8
ENDBRANCH   1   2
BRANCH   1  18
ATOM     15  C   UNL     1       2.742  14.448  21.439  0.00  0.00    +0.000 C 
ATOM     16  N   UNL     1       1.546  13.656  21.195  0.00  0.00    +0.000 N 
ATOM     17  C   UNL     1       0.346  14.054  21.912  0.00  0.00    +0.000 C 
ATOM     18  C   UNL     1       1.546  12.892  20.020  0.00  0.00    +0.000 C 
ATOM     19  O   UNL     1       2.533  12.899  19.276  0.00  0.00    +0.000 OA
ENDBRANCH   1  18
BRANCH   1  20
ATOM     20  C   UNL     1      -0.562  12.549  18.551  0.00  0.00    +0.000 C 
BRANCH  20  21
ATOM     21  C   UNL     1      -2.055  12.198  18.793  0.00  0.00    +0.000 C 
ATOM     22  O   UNL     1      -2.651  12.714  19.746  0.00  0.00    +0.000 OA
ATOM     23  N   UNL     1      -2.708  11.325  17.940  0.00  0.00    +0.000 N 
ATOM     24  C   UNL     1      -2.147  10.620  16.784  0.00  0.00    +0.000 C 
ATOM     25  C   UNL     1      -2.953  10.955  15.523  0.00  0.00    +0.000 C 
ATOM     26  O   UNL     1      -4.341  10.630  15.707  0.00  0.00    +0.000 OA
ATOM     27  C   UNL     1      -4.902  11.374  16.802  0.00  0.00    +0.000 C 
ATOM     28  C   UNL     1      -4.150  11.094  18.110  0.00  0.00    +0.000 C 
ENDBRANCH  20  21
BRANCH  20  29
ATOM     29  N   UNL     1      -0.488  14.010  18.286  0.00  0.00    +0.000 NA
ATOM     30  H   UNL     1      -0.034  14.129  17.371  0.00  0.00    +0.000 HD
ATOM     31  H   UNL     1       0.173  14.426  18.944  0.00  0.00    +0.000 HD
ENDBRANCH  20  29
ENDBRANCH   1  20
TORSDOF 6
ENDMDL
MODEL 7
REMARK VINA RESULT:      -7.9      5.506      9.506
REMARK  Name = 
REMARK  8 active torsions:
REMARK  status: ('A' for Active; 'I' for Inactive)
REMARK    1  A    between atoms: C_1  and  N_2
REMARK    2  A    between atoms: N_2  and  C_3
REMARK    3  A    between atoms: C_4  and  C_6
REMARK    4  A    between atoms: C_6  and  C_7
REMARK    5  A    between atoms: C_6  and  C_20
REMARK    6  A    between atoms: C_10  and  C_11
REMARK    7  A    between atoms: C_20  and  N_21
REMARK    8  A    between atoms: C_20  and  C_22
REMARK                            x       y       z     vdW  Elec       q    Type
REMARK                         _______ _______ _______ _____ _____    ______ ____
ROOT
ATOM      1  C   UNL     1       0.175  11.592  19.422  0.00  0.00    +0.000 C 
ENDROOT
BRANCH   1   2
ATOM      2  C   UNL     1       0.923  10.252  19.335  0.00  0.00    +0.000 A 
ATOM      3  C   UNL     1       1.455   9.841  18.106  0.00  0.00    +0.000 A 
ATOM      4  C   UNL     1       2.014   8.565  17.946  0.00  0.00    +0.000 A 
ATOM      5  C   UNL     1       2.069   7.641  19.004  0.00  0.00    +0.000 A 
ATOM      6  C   UNL     1       1.573   8.079  20.241  0.00  0.00    +0.000 A 
ATOM      7  C   UNL     1       1.005   9.351  20.407  0.00  0.00    +0.000 A 
BRANCH   5   8
ATOM      8  C   UNL     1       2.593   6.265  18.802  0.00  0.00    +0.000 A 
ATOM      9  C   UNL     1       3.785   5.832  19.416  0.00  0.00    +0.000 A 
ATOM     10  C   UNL     1       4.297   4.550  19.198  0.00  0.00    +0.000 A 
ATOM     11  C   UNL     1       3.617   3.671  18.370  0.00  0.00    +0.000 A 
ATOM     12  F   UNL     1       4.103   2.442  18.164  0.00  0.00    +0.000 F 
ATOM     13  C   UNL     1       2.435   4.054  17.751  0.00  0.00    +0.000 A 
ATOM     14  C   UNL     1       1.933   5.344  17.959  0.00  0.00    +0.000 A 
ENDBRANCH   5   8
ENDBRANCH   1   2
BRANCH   1  18
ATOM     15  C   UNL     1       2.493  14.571  20.217  0.00  0.00    +0.000 C 
ATOM     16  N   UNL     1       1.512  13.516  20.417  0.00  0.00    +0.000 N 
ATOM     17  C   UNL     1       0.669  13.629  21.596  0.00  0.00    +0.000 C 
ATOM     18  C   UNL     1       1.186  12.758  19.285  0.00  0.00    +0.000 C 
ATOM     19  O   UNL     1       1.741  12.989  18.204  0.00  0.00    +0.000 OA
ENDBRANCH   1  18
BRANCH   1  20
ATOM     20  C   UNL     1      -1.048  11.727  18.468  0.00  0.00    +0.000 C 
BRANCH  20  21
ATOM     21  C   UNL     1      -2.330  12.075  19.272  0.00  0.00    +0.000 C 
ATOM     22  O   UNL     1      -2.232  12.743  20.308  0.00  0.00    +0.000 OA
ATOM     23  N   UNL     1      -3.567  11.649  18.821  0.00  0.00    +0.000 N 
ATOM     24  C   UNL     1      -3.854  10.842  17.631  0.00  0.00    +0.000 C 
ATOM     25  C   UNL     1      -4.834  11.585  16.716  0.00  0.00    +0.000 C 
ATOM     26  O   UNL     1      -6.040  11.913  17.425  0.00  0.00    +0.000 OA
ATOM     27  C   UNL     1      -5.760  12.759  18.553  0.00  0.00    +0.000 C 
ATOM     28  C   UNL     1      -4.781  12.086  19.525  0.00  0.00    +0.000 C 
ENDBRANCH  20  21
BRANCH  20  29
ATOM     29  N   UNL     1      -0.937  12.715  17.363  0.00  0.00    +0.000 NA
ATOM     30  H   UNL     1       0.017  13.101  17.398  0.00  0.00    +0.000 HD
ATOM     31  H   UNL     1      -1.533  13.515  17.581  0.00  0.00    +0.000 HD
ENDBRANCH  20  29
ENDBRANCH   1  20
TORSDOF 6
ENDMDL
MODEL 8
REMARK VINA RESULT:      -7.6      0.538      1.060
REMARK  Name = 
REMARK  8 active torsions:
REMARK  status: ('A' for Active; 'I' for Inactive)
REMARK    1  A    between atoms: C_1  and  N_2
REMARK    2  A    between atoms: N_2  and  C_3
REMARK    3  A    between atoms: C_4  and  C_6
REMARK    4  A    between atoms: C_6  and  C_7
REMARK    5  A    between atoms: C_6  and  C_20
REMARK    6  A    between atoms: C_10  and  C_11
REMARK    7  A    between atoms: C_20  and  N_21
REMARK    8  A    between atoms: C_20  and  C_22
REMARK                            x       y       z     vdW  Elec       q    Type
REMARK                         _______ _______ _______ _____ _____    ______ ____
ROOT
ATOM      1  C   UNL     1       2.536   5.079  19.111  0.00  0.00    +0.000 C 
ENDROOT
BRANCH   1   2
ATOM      2  C   UNL     1       2.041   6.524  19.280  0.00  0.00    +0.000 A 
ATOM      3  C   UNL     1       2.015   7.376  18.168  0.00  0.00    +0.000 A 
ATOM      4  C   UNL     1       1.712   8.738  18.302  0.00  0.00    +0.000 A 
ATOM      5  C   UNL     1       1.422   9.314  19.552  0.00  0.00    +0.000 A 
ATOM      6  C   UNL     1       1.409   8.444  20.652  0.00  0.00    +0.000 A 
ATOM      7  C   UNL     1       1.718   7.082  20.527  0.00  0.00    +0.000 A 
BRANCH   5   8
ATOM      8  C   UNL     1       1.180  10.774  19.692  0.00  0.00    +0.000 A 
ATOM      9  C   UNL     1       1.631  11.692  18.722  0.00  0.00    +0.000 A 
ATOM     10  C   UNL     1       1.435  13.068  18.871  0.00  0.00    +0.000 A 
ATOM     11  C   UNL     1       0.773  13.551  19.988  0.00  0.00    +0.000 A 
ATOM     12  F   UNL     1       0.580  14.867  20.129  0.00  0.00    +0.000 F 
ATOM     13  C   UNL     1       0.306  12.680  20.964  0.00  0.00    +0.000 A 
ATOM     14  C   UNL     1       0.516  11.304  20.819  0.00  0.00    +0.000 A 
ENDBRANCH   5   8
ENDBRANCH   1   2
BRANCH   1  18
ATOM     15  C   UNL     1       1.757   2.505  21.876  0.00  0.00    +0.000 C 
ATOM     16  N   UNL     1       2.528   3.316  20.946  0.00  0.00    +0.000 N 
ATOM     17  C   UNL     1       3.886   2.874  20.672  0.00  0.00    +0.000 C 
ATOM     18  C   UNL     1       1.788   4.157  20.106  0.00  0.00    +0.000 C 
ATOM     19  O   UNL     1       0.556   4.197  20.199  0.00  0.00    +0.000 OA
ENDBRANCH   1  18
BRANCH   1  20
ATOM     20  C   UNL     1       2.520   4.544  17.649  0.00  0.00    +0.000 C 
BRANCH  20  21
ATOM     21  C   UNL     1       3.872   3.864  17.303  0.00  0.00    +0.000 C 
ATOM     22  O   UNL     1       3.977   2.637  17.413  0.00  0.00    +0.000 OA
ATOM     23  N   UNL     1       4.939   4.627  16.864  0.00  0.00    +0.000 N 
ATOM     24  C   UNL     1       4.985   6.084  16.696  0.00  0.00    +0.000 C 
ATOM     25  C   UNL     1       5.368   6.433  15.253  0.00  0.00    +0.000 C 
ATOM     26  O   UNL     1       6.624   5.829  14.902  0.00  0.00    +0.000 OA
ATOM     27  C   UNL     1       6.553   4.397  15.006  0.00  0.00    +0.000 C 
ATOM     28  C   UNL     1       6.173   3.960  16.427  0.00  0.00    +0.000 C 
ENDBRANCH  20  21
BRANCH  20  29
ATOM     29  N   UNL     1       1.439   3.587  17.293  0.00  0.00    +0.000 NA
ATOM     30  H   UNL     1       1.412   2.872  18.033  0.00  0.00    +0.000 HD
ATOM     31  H   UNL     1       1.726   3.068  16.461  0.00  0.00    +0.000 HD
ENDBRANCH  20  29
ENDBRANCH   1  20
TORSDOF 6
ENDMDL
MODEL 9
REMARK VINA RESULT:      -7.6      5.613      9.573
REMARK  Name = 
REMARK  8 active torsions:
REMARK  status: ('A' for Active; 'I' for Inactive)
REMARK    1  A    between atoms: C_1  and  N_2
REMARK    2  A    between atoms: N_2  and  C_3
REMARK    3  A    between atoms: C_4  and  C_6
REMARK    4  A    between atoms: C_6  and  C_7
REMARK    5  A    between atoms: C_6  and  C_20
REMARK    6  A    between atoms: C_10  and  C_11
REMARK    7  A    between atoms: C_20  and  N_21
REMARK    8  A    between atoms: C_20  and  C_22
REMARK                            x       y       z     vdW  Elec       q    Type
REMARK                         _______ _______ _______ _____ _____    ______ ____
ROOT
ATOM      1  C   UNL     1      -0.432  11.396  19.630  0.00  0.00    +0.000 C 
ENDROOT
BRANCH   1   2
ATOM      2  C   UNL     1       0.393  10.142  19.301  0.00  0.00    +0.000 A 
ATOM      3  C   UNL     1       0.858   9.332  20.345  0.00  0.00    +0.000 A 
ATOM      4  C   UNL     1       1.734   8.264  20.104  0.00  0.00    +0.000 A 
ATOM      5  C   UNL     1       2.188   7.955  18.809  0.00  0.00    +0.000 A 
ATOM      6  C   UNL     1       1.683   8.746  17.765  0.00  0.00    +0.000 A 
ATOM      7  C   UNL     1       0.812   9.820  18.000  0.00  0.00    +0.000 A 
BRANCH   5   8
ATOM      8  C   UNL     1       3.178   6.872  18.575  0.00  0.00    +0.000 A 
ATOM      9  C   UNL     1       3.300   5.782  19.461  0.00  0.00    +0.000 A 
ATOM     10  C   UNL     1       4.255   4.781  19.261  0.00  0.00    +0.000 A 
ATOM     11  C   UNL     1       5.097   4.845  18.163  0.00  0.00    +0.000 A 
ATOM     12  F   UNL     1       6.008   3.884  17.968  0.00  0.00    +0.000 F 
ATOM     13  C   UNL     1       5.005   5.897  17.262  0.00  0.00    +0.000 A 
ATOM     14  C   UNL     1       4.059   6.906  17.473  0.00  0.00    +0.000 A 
ENDBRANCH   5   8
ENDBRANCH   1   2
BRANCH   1  18
ATOM     15  C   UNL     1       1.594  14.175  21.377  0.00  0.00    +0.000 C 
ATOM     16  N   UNL     1       0.654  13.078  21.201  0.00  0.00    +0.000 N 
ATOM     17  C   UNL     1      -0.340  12.901  22.246  0.00  0.00    +0.000 C 
ATOM     18  C   UNL     1       0.522  12.587  19.895  0.00  0.00    +0.000 C 
ATOM     19  O   UNL     1       1.200  13.069  18.981  0.00  0.00    +0.000 OA
ENDBRANCH   1  18
BRANCH   1  20
ATOM     20  C   UNL     1      -1.559  11.730  18.609  0.00  0.00    +0.000 C 
BRANCH  20  21
ATOM     21  C   UNL     1      -2.831  12.230  19.345  0.00  0.00    +0.000 C 
ATOM     22  O   UNL     1      -2.710  12.988  20.315  0.00  0.00    +0.000 OA
ATOM     23  N   UNL     1      -4.083  11.838  18.907  0.00  0.00    +0.000 N 
ATOM     24  C   UNL     1      -4.398  10.938  17.793  0.00  0.00    +0.000 C 
ATOM     25  C   UNL     1      -5.314  11.647  16.788  0.00  0.00    +0.000 C 
ATOM     26  O   UNL     1      -6.510  12.113  17.434  0.00  0.00    +0.000 OA
ATOM     27  C   UNL     1      -6.198  13.046  18.483  0.00  0.00    +0.000 C 
ATOM     28  C   UNL     1      -5.281  12.413  19.537  0.00  0.00    +0.000 C 
ENDBRANCH  20  21
BRANCH  20  29
ATOM     29  N   UNL     1      -1.238  12.725  17.552  0.00  0.00    +0.000 NA
ATOM     30  H   UNL     1      -2.099  12.878  17.010  0.00  0.00    +0.000 HD
ATOM     31  H   UNL     1      -0.601  12.292  16.881  0.00  0.00    +0.000 HD
ENDBRANCH  20  29
ENDBRANCH   1  20
TORSDOF 6
ENDMDL
