MODEL 1
REMARK VINA RESULT:      -8.0      0.000      0.000
REMARK  Name = 
REMARK  8 active torsions:
REMARK  status: ('A' for Active; 'I' for Inactive)
REMARK    1  A    between atoms: C_1  and  O_2
REMARK    2  A    between atoms: O_2  and  C_3
REMARK    3  A    between atoms: C_6  and  C_7
REMARK    4  A    between atoms: C_7  and  N_8
REMARK    5  A    between atoms: C_11  and  N_12
REMARK    6  A    between atoms: N_12  and  C_13
REMARK    7  A    between atoms: C_13  and  C_14
REMARK    8  A    between atoms: C_17  and  C_18
REMARK                            x       y       z     vdW  Elec       q    Type
REMARK                         _______ _______ _______ _____ _____    ______ ____
ROOT
ATOM      1  N   UNL     1       3.980   2.968  17.729  0.00  0.00    +0.000 NA
ATOM      2  C   UNL     1       4.209   3.543  19.068  0.00  0.00    +0.000 C 
ATOM      3  C   UNL     1       3.526   2.754  20.191  0.00  0.00    +0.000 C 
ATOM      4  C   UNL     1       2.023   2.559  19.937  0.00  0.00    +0.000 C 
ATOM      5  C   UNL     1       1.892   1.867  18.578  0.00  0.00    +0.000 C 
ATOM      6  C   UNL     1       2.566   2.665  17.462  0.00  0.00    +0.000 C 
ENDROOT
BRANCH   4   7
ATOM      7  N   UNL     1       1.326   3.851  20.045  0.00  0.00    +0.000 NA
ATOM      8  H   UNL     1       0.377   3.719  20.393  0.00  0.00    +0.000 HD
BRANCH   7   9
ATOM      9  C   UNL     1       2.005   4.825  20.898  0.00  0.00    +0.000 C 
BRANCH   9  10
ATOM     10  C   UNL     1       1.894   6.215  20.310  0.00  0.00    +0.000 A 
ATOM     11  C   UNL     1       1.274   7.248  21.025  0.00  0.00    +0.000 A 
ATOM     12  C   UNL     1       1.138   8.520  20.463  0.00  0.00    +0.000 A 
ATOM     13  C   UNL     1       1.622   8.784  19.173  0.00  0.00    +0.000 A 
ATOM     14  C   UNL     1       2.263   7.755  18.467  0.00  0.00    +0.000 A 
ATOM     15  C   UNL     1       2.399   6.485  19.030  0.00  0.00    +0.000 A 
BRANCH  13  16
ATOM     16  C   UNL     1       1.450  10.138  18.535  0.00  0.00    +0.000 C 
ATOM     17  F   UNL     1       1.525  11.173  19.418  0.00  0.00    +0.000 F 
ATOM     18  F   UNL     1       2.393  10.392  17.585  0.00  0.00    +0.000 F 
ATOM     19  F   UNL     1       0.246  10.271  17.910  0.00  0.00    +0.000 F 
ENDBRANCH  13  16
ENDBRANCH   9  10
ENDBRANCH   7   9
ENDBRANCH   4   7
BRANCH   1  20
ATOM     20  C   UNL     1       4.478   3.878  16.672  0.00  0.00    +0.000 C 
BRANCH  20  24
ATOM     21  C   UNL     1       7.424   6.740  18.039  0.00  0.00    +0.000 A 
ATOM     22  C   UNL     1       6.270   7.170  17.383  0.00  0.00    +0.000 A 
ATOM     23  C   UNL     1       5.313   6.253  16.946  0.00  0.00    +0.000 A 
ATOM     24  C   UNL     1       5.511   4.878  17.140  0.00  0.00    +0.000 A 
ATOM     25  C   UNL     1       6.670   4.452  17.799  0.00  0.00    +0.000 A 
ATOM     26  C   UNL     1       7.622   5.374  18.245  0.00  0.00    +0.000 A 
BRANCH  21  28
ATOM     27  C   UNL     1       8.111   8.988  17.755  0.00  0.00    +0.000 C 
ATOM     28  O   UNL     1       8.298   7.730  18.392  0.00  0.00    +0.000 OA
ENDBRANCH  21  28
ENDBRANCH  20  24
ENDBRANCH   1  20
TORSDOF 7
ENDMDL
MODEL 2
REMARK VINA RESULT:      -8.0      2.953      5.804
REMARK  Name = 
REMARK  8 active torsions:
REMARK  status: ('A' for Active; 'I' for Inactive)
REMARK    1  A    between atoms: C_1  and  O_2
REMARK    2  A    between atoms: O_2  and  C_3
REMARK    3  A    between atoms: C_6  and  C_7
REMARK    4  A    between atoms: C_7  and  N_8
REMARK    5  A    between atoms: C_11  and  N_12
REMARK    6  A    between atoms: N_12  and  C_13
REMARK    7  A    between atoms: C_13  and  C_14
REMARK    8  A    between atoms: C_17  and  C_18
REMARK                            x       y       z     vdW  Elec       q    Type
REMARK                         _______ _______ _______ _____ _____    ______ ____
ROOT
ATOM      1  N   UNL     1       1.739   5.338  20.011  0.00  0.00    +0.000 NA
ATOM      2  C   UNL     1       1.805   4.778  18.649  0.00  0.00    +0.000 C 
ATOM      3  C   UNL     1       1.134   3.405  18.524  0.00  0.00    +0.000 C 
ATOM      4  C   UNL     1       1.674   2.397  19.550  0.00  0.00    +0.000 C 
ATOM      5  C   UNL     1       1.469   3.020  20.933  0.00  0.00    +0.000 C 
ATOM      6  C   UNL     1       2.150   4.384  21.052  0.00  0.00    +0.000 C 
ENDROOT
BRANCH   4   7
ATOM      7  N   UNL     1       3.068   2.051  19.226  0.00  0.00    +0.000 NA
ATOM      8  H   UNL     1       3.253   1.071  19.433  0.00  0.00    +0.000 HD
BRANCH   7   9
ATOM      9  C   UNL     1       3.439   2.313  17.836  0.00  0.00    +0.000 C 
BRANCH   9  10
ATOM     10  C   UNL     1       4.448   3.437  17.758  0.00  0.00    +0.000 A 
ATOM     11  C   UNL     1       5.091   3.904  18.913  0.00  0.00    +0.000 A 
ATOM     12  C   UNL     1       5.993   4.969  18.843  0.00  0.00    +0.000 A 
ATOM     13  C   UNL     1       6.269   5.588  17.615  0.00  0.00    +0.000 A 
ATOM     14  C   UNL     1       5.642   5.106  16.457  0.00  0.00    +0.000 A 
ATOM     15  C   UNL     1       4.743   4.041  16.528  0.00  0.00    +0.000 A 
BRANCH  13  16
ATOM     16  C   UNL     1       7.209   6.763  17.526  0.00  0.00    +0.000 C 
ATOM     17  F   UNL     1       8.135   6.801  18.524  0.00  0.00    +0.000 F 
ATOM     18  F   UNL     1       7.917   6.780  16.362  0.00  0.00    +0.000 F 
ATOM     19  F   UNL     1       6.555   7.958  17.582  0.00  0.00    +0.000 F 
ENDBRANCH  13  16
ENDBRANCH   9  10
ENDBRANCH   7   9
ENDBRANCH   4   7
BRANCH   1  20
ATOM     20  C   UNL     1       2.579   6.553  20.124  0.00  0.00    +0.000 C 
BRANCH  20  24
ATOM     21  C   UNL     1       0.654  10.221  18.868  0.00  0.00    +0.000 A 
ATOM     22  C   UNL     1       0.470   9.732  20.162  0.00  0.00    +0.000 A 
ATOM     23  C   UNL     1       1.094   8.554  20.575  0.00  0.00    +0.000 A 
ATOM     24  C   UNL     1       1.898   7.829  19.684  0.00  0.00    +0.000 A 
ATOM     25  C   UNL     1       2.078   8.323  18.387  0.00  0.00    +0.000 A 
ATOM     26  C   UNL     1       1.461   9.510  17.979  0.00  0.00    +0.000 A 
BRANCH  21  28
ATOM     27  C   UNL     1      -1.371  11.435  19.050  0.00  0.00    +0.000 C 
ATOM     28  O   UNL     1      -0.032  11.367  18.574  0.00  0.00    +0.000 OA
ENDBRANCH  21  28
ENDBRANCH  20  24
ENDBRANCH   1  20
TORSDOF 7
ENDMDL
MODEL 3
REMARK VINA RESULT:      -7.9      1.324      1.869
REMARK  Name = 
REMARK  8 active torsions:
REMARK  status: ('A' for Active; 'I' for Inactive)
REMARK    1  A    between atoms: C_1  and  O_2
REMARK    2  A    between atoms: O_2  and  C_3
REMARK    3  A    between atoms: C_6  and  C_7
REMARK    4  A    between atoms: C_7  and  N_8
REMARK    5  A    between atoms: C_11  and  N_12
REMARK    6  A    between atoms: N_12  and  C_13
REMARK    7  A    between atoms: C_13  and  C_14
REMARK    8  A    between atoms: C_17  and  C_18
REMARK                            x       y       z     vdW  Elec       q    Type
REMARK                         _______ _______ _______ _____ _____    ______ ____
ROOT
ATOM      1  N   UNL     1       2.967   2.480  18.955  0.00  0.00    +0.000 NA
ATOM      2  C   UNL     1       3.569   2.633  20.293  0.00  0.00    +0.000 C 
ATOM      3  C   UNL     1       2.538   2.914  21.393  0.00  0.00    +0.000 C 
ATOM      4  C   UNL     1       1.646   4.120  21.062  0.00  0.00    +0.000 C 
ATOM      5  C   UNL     1       0.989   3.825  19.711  0.00  0.00    +0.000 C 
ATOM      6  C   UNL     1       2.023   3.556  18.618  0.00  0.00    +0.000 C 
ENDROOT
BRANCH   4   7
ATOM      7  N   UNL     1       2.441   5.358  21.107  0.00  0.00    +0.000 NA
ATOM      8  H   UNL     1       3.299   5.215  21.636  0.00  0.00    +0.000 HD
BRANCH   7   9
ATOM      9  C   UNL     1       2.788   5.891  19.790  0.00  0.00    +0.000 C 
BRANCH   9  10
ATOM     10  C   UNL     1       2.165   7.254  19.588  0.00  0.00    +0.000 A 
ATOM     11  C   UNL     1       1.525   7.914  20.647  0.00  0.00    +0.000 A 
ATOM     12  C   UNL     1       0.917   9.156  20.447  0.00  0.00    +0.000 A 
ATOM     13  C   UNL     1       0.936   9.763  19.183  0.00  0.00    +0.000 A 
ATOM     14  C   UNL     1       1.596   9.112  18.130  0.00  0.00    +0.000 A 
ATOM     15  C   UNL     1       2.204   7.873  18.331  0.00  0.00    +0.000 A 
BRANCH  13  16
ATOM     16  C   UNL     1       0.252  11.083  18.938  0.00  0.00    +0.000 C 
ATOM     17  F   UNL     1      -0.748  11.019  18.014  0.00  0.00    +0.000 F 
ATOM     18  F   UNL     1      -0.317  11.595  20.065  0.00  0.00    +0.000 F 
ATOM     19  F   UNL     1       1.112  12.040  18.487  0.00  0.00    +0.000 F 
ENDBRANCH  13  16
ENDBRANCH   9  10
ENDBRANCH   7   9
ENDBRANCH   4   7
BRANCH   1  20
ATOM     20  C   UNL     1       4.015   2.423  17.909  0.00  0.00    +0.000 C 
BRANCH  20  24
ATOM     21  C   UNL     1       6.003   6.200  17.187  0.00  0.00    +0.000 A 
ATOM     22  C   UNL     1       5.092   5.690  16.260  0.00  0.00    +0.000 A 
ATOM     23  C   UNL     1       4.443   4.476  16.491  0.00  0.00    +0.000 A 
ATOM     24  C   UNL     1       4.715   3.738  17.651  0.00  0.00    +0.000 A 
ATOM     25  C   UNL     1       5.629   4.253  18.577  0.00  0.00    +0.000 A 
ATOM     26  C   UNL     1       6.270   5.475  18.349  0.00  0.00    +0.000 A 
BRANCH  21  28
ATOM     27  C   UNL     1       7.718   7.776  17.614  0.00  0.00    +0.000 C 
ATOM     28  O   UNL     1       6.594   7.381  16.835  0.00  0.00    +0.000 OA
ENDBRANCH  21  28
ENDBRANCH  20  24
ENDBRANCH   1  20
TORSDOF 7
ENDMDL
MODEL 4
REMARK VINA RESULT:      -7.8      2.954      5.783
REMARK  Name = 
REMARK  8 active torsions:
REMARK  status: ('A' for Active; 'I' for Inactive)
REMARK    1  A    between atoms: C_1  and  O_2
REMARK    2  A    between atoms: O_2  and  C_3
REMARK    3  A    between atoms: C_6  and  C_7
REMARK    4  A    between atoms: C_7  and  N_8
REMARK    5  A    between atoms: C_11  and  N_12
REMARK    6  A    between atoms: N_12  and  C_13
REMARK    7  A    between atoms: C_13  and  C_14
REMARK    8  A    between atoms: C_17  and  C_18
REMARK                            x       y       z     vdW  Elec       q    Type
REMARK                         _______ _______ _______ _____ _____    ______ ____
ROOT
ATOM      1  N   UNL     1       1.736   5.289  20.152  0.00  0.00    +0.000 NA
ATOM      2  C   UNL     1       1.755   4.747  18.781  0.00  0.00    +0.000 C 
ATOM      3  C   UNL     1       1.108   3.362  18.666  0.00  0.00    +0.000 C 
ATOM      4  C   UNL     1       1.713   2.353  19.653  0.00  0.00    +0.000 C 
ATOM      5  C   UNL     1       1.555   2.954  21.052  0.00  0.00    +0.000 C 
ATOM      6  C   UNL     1       2.211   4.330  21.161  0.00  0.00    +0.000 C 
ENDROOT
BRANCH   4   7
ATOM      7  N   UNL     1       3.098   2.041  19.266  0.00  0.00    +0.000 NA
ATOM      8  H   UNL     1       3.306   1.058  19.433  0.00  0.00    +0.000 HD
BRANCH   7   9
ATOM      9  C   UNL     1       3.410   2.354  17.871  0.00  0.00    +0.000 C 
BRANCH   9  10
ATOM     10  C   UNL     1       4.414   3.482  17.792  0.00  0.00    +0.000 A 
ATOM     11  C   UNL     1       5.115   3.899  18.932  0.00  0.00    +0.000 A 
ATOM     12  C   UNL     1       6.013   4.968  18.864  0.00  0.00    +0.000 A 
ATOM     13  C   UNL     1       6.228   5.641  17.652  0.00  0.00    +0.000 A 
ATOM     14  C   UNL     1       5.542   5.209  16.507  0.00  0.00    +0.000 A 
ATOM     15  C   UNL     1       4.647   4.140  16.577  0.00  0.00    +0.000 A 
BRANCH  13  16
ATOM     16  C   UNL     1       7.162   6.820  17.567  0.00  0.00    +0.000 C 
ATOM     17  F   UNL     1       8.078   6.867  18.575  0.00  0.00    +0.000 F 
ATOM     18  F   UNL     1       7.881   6.836  16.411  0.00  0.00    +0.000 F 
ATOM     19  F   UNL     1       6.502   8.012  17.612  0.00  0.00    +0.000 F 
ENDBRANCH  13  16
ENDBRANCH   9  10
ENDBRANCH   7   9
ENDBRANCH   4   7
BRANCH   1  20
ATOM     20  C   UNL     1       2.554   6.520  20.245  0.00  0.00    +0.000 C 
BRANCH  20  24
ATOM     21  C   UNL     1       0.347  10.171  19.514  0.00  0.00    +0.000 A 
ATOM     22  C   UNL     1       1.182   9.640  18.530  0.00  0.00    +0.000 A 
ATOM     23  C   UNL     1       1.891   8.459  18.758  0.00  0.00    +0.000 A 
ATOM     24  C   UNL     1       1.791   7.801  19.992  0.00  0.00    +0.000 A 
ATOM     25  C   UNL     1       0.953   8.338  20.975  0.00  0.00    +0.000 A 
ATOM     26  C   UNL     1       0.235   9.516  20.741  0.00  0.00    +0.000 A 
BRANCH  21  28
ATOM     27  C   UNL     1       0.533  12.518  19.255  0.00  0.00    +0.000 C 
ATOM     28  O   UNL     1      -0.270  11.346  19.183  0.00  0.00    +0.000 OA
ENDBRANCH  21  28
ENDBRANCH  20  24
ENDBRANCH   1  20
TORSDOF 7
ENDMDL
MODEL 5
REMARK VINA RESULT:      -7.8      2.576      5.419
REMARK  Name = 
REMARK  8 active torsions:
REMARK  status: ('A' for Active; 'I' for Inactive)
REMARK    1  A    between atoms: C_1  and  O_2
REMARK    2  A    between atoms: O_2  and  C_3
REMARK    3  A    between atoms: C_6  and  C_7
REMARK    4  A    between atoms: C_7  and  N_8
REMARK    5  A    between atoms: C_11  and  N_12
REMARK    6  A    between atoms: N_12  and  C_13
REMARK    7  A    between atoms: C_13  and  C_14
REMARK    8  A    between atoms: C_17  and  C_18
REMARK                            x       y       z     vdW  Elec       q    Type
REMARK                         _______ _______ _______ _____ _____    ______ ____
ROOT
ATOM      1  N   UNL     1       2.110   3.756  20.497  0.00  0.00    +0.000 NA
ATOM      2  C   UNL     1       1.162   3.922  19.381  0.00  0.00    +0.000 C 
ATOM      3  C   UNL     1       1.124   2.720  18.432  0.00  0.00    +0.000 C 
ATOM      4  C   UNL     1       2.519   2.349  17.904  0.00  0.00    +0.000 C 
ATOM      5  C   UNL     1       3.401   2.096  19.129  0.00  0.00    +0.000 C 
ATOM      6  C   UNL     1       3.441   3.304  20.065  0.00  0.00    +0.000 C 
ENDROOT
BRANCH   4   7
ATOM      7  N   UNL     1       3.006   3.401  16.996  0.00  0.00    +0.000 NA
ATOM      8  H   UNL     1       2.926   4.318  17.432  0.00  0.00    +0.000 HD
BRANCH   7   9
ATOM      9  C   UNL     1       4.387   3.213  16.554  0.00  0.00    +0.000 C 
BRANCH   9  10
ATOM     10  C   UNL     1       5.222   4.429  16.888  0.00  0.00    +0.000 A 
ATOM     11  C   UNL     1       5.003   5.650  16.235  0.00  0.00    +0.000 A 
ATOM     12  C   UNL     1       5.801   6.761  16.518  0.00  0.00    +0.000 A 
ATOM     13  C   UNL     1       6.835   6.673  17.461  0.00  0.00    +0.000 A 
ATOM     14  C   UNL     1       7.039   5.458  18.130  0.00  0.00    +0.000 A 
ATOM     15  C   UNL     1       6.240   4.349  17.848  0.00  0.00    +0.000 A 
BRANCH  13  16
ATOM     16  C   UNL     1       7.732   7.850  17.751  0.00  0.00    +0.000 C 
ATOM     17  F   UNL     1       7.056   9.012  17.970  0.00  0.00    +0.000 F 
ATOM     18  F   UNL     1       8.507   7.657  18.854  0.00  0.00    +0.000 F 
ATOM     19  F   UNL     1       8.595   8.111  16.729  0.00  0.00    +0.000 F 
ENDBRANCH  13  16
ENDBRANCH   9  10
ENDBRANCH   7   9
ENDBRANCH   4   7
BRANCH   1  20
ATOM     20  C   UNL     1       2.262   5.019  21.255  0.00  0.00    +0.000 C 
BRANCH  20  24
ATOM     21  C   UNL     1       1.883   8.615  18.875  0.00  0.00    +0.000 A 
ATOM     22  C   UNL     1       1.244   8.514  20.112  0.00  0.00    +0.000 A 
ATOM     23  C   UNL     1       1.368   7.359  20.887  0.00  0.00    +0.000 A 
ATOM     24  C   UNL     1       2.121   6.272  20.421  0.00  0.00    +0.000 A 
ATOM     25  C   UNL     1       2.759   6.378  19.180  0.00  0.00    +0.000 A 
ATOM     26  C   UNL     1       2.642   7.541  18.410  0.00  0.00    +0.000 A 
BRANCH  21  28
ATOM     27  C   UNL     1       0.353  10.328  18.301  0.00  0.00    +0.000 C 
ATOM     28  O   UNL     1       1.662   9.782  18.198  0.00  0.00    +0.000 OA
ENDBRANCH  21  28
ENDBRANCH  20  24
ENDBRANCH   1  20
TORSDOF 7
ENDMDL
MODEL 6
REMARK VINA RESULT:      -7.8      2.573      5.318
REMARK  Name = 
REMARK  8 active torsions:
REMARK  status: ('A' for Active; 'I' for Inactive)
REMARK    1  A    between atoms: C_1  and  O_2
REMARK    2  A    between atoms: O_2  and  C_3
REMARK    3  A    between atoms: C_6  and  C_7
REMARK    4  A    between atoms: C_7  and  N_8
REMARK    5  A    between atoms: C_11  and  N_12
REMARK    6  A    between atoms: N_12  and  C_13
REMARK    7  A    between atoms: C_13  and  C_14
REMARK    8  A    between atoms: C_17  and  C_18
REMARK                            x       y       z     vdW  Elec       q    Type
REMARK                         _______ _______ _______ _____ _____    ______ ____
ROOT
ATOM      1  N   UNL     1       2.000   3.986  20.482  0.00  0.00    +0.000 NA
ATOM      2  C   UNL     1       1.066   4.122  19.349  0.00  0.00    +0.000 C 
ATOM      3  C   UNL     1       0.968   2.857  18.488  0.00  0.00    +0.000 C 
ATOM      4  C   UNL     1       2.343   2.376  18.000  0.00  0.00    +0.000 C 
ATOM      5  C   UNL     1       3.205   2.165  19.248  0.00  0.00    +0.000 C 
ATOM      6  C   UNL     1       3.306   3.433  20.094  0.00  0.00    +0.000 C 
ENDROOT
BRANCH   4   7
ATOM      7  N   UNL     1       2.890   3.331  17.023  0.00  0.00    +0.000 NA
ATOM      8  H   UNL     1       2.807   4.286  17.368  0.00  0.00    +0.000 HD
BRANCH   7   9
ATOM      9  C   UNL     1       4.287   3.084  16.667  0.00  0.00    +0.000 C 
BRANCH   9  10
ATOM     10  C   UNL     1       5.132   4.305  16.952  0.00  0.00    +0.000 A 
ATOM     11  C   UNL     1       5.131   5.398  16.073  0.00  0.00    +0.000 A 
ATOM     12  C   UNL     1       5.942   6.509  16.320  0.00  0.00    +0.000 A 
ATOM     13  C   UNL     1       6.771   6.548  17.451  0.00  0.00    +0.000 A 
ATOM     14  C   UNL     1       6.754   5.464  18.341  0.00  0.00    +0.000 A 
ATOM     15  C   UNL     1       5.942   4.356  18.095  0.00  0.00    +0.000 A 
BRANCH  13  16
ATOM     16  C   UNL     1       7.682   7.720  17.713  0.00  0.00    +0.000 C 
ATOM     17  F   UNL     1       8.513   7.540  18.778  0.00  0.00    +0.000 F 
ATOM     18  F   UNL     1       8.492   8.001  16.654  0.00  0.00    +0.000 F 
ATOM     19  F   UNL     1       6.993   8.868  17.970  0.00  0.00    +0.000 F 
ENDBRANCH  13  16
ENDBRANCH   9  10
ENDBRANCH   7   9
ENDBRANCH   4   7
BRANCH   1  20
ATOM     20  C   UNL     1       2.216   5.291  21.148  0.00  0.00    +0.000 C 
BRANCH  20  24
ATOM     21  C   UNL     1       2.020   8.700  18.488  0.00  0.00    +0.000 A 
ATOM     22  C   UNL     1       2.767   7.573  18.141  0.00  0.00    +0.000 A 
ATOM     23  C   UNL     1       2.827   6.468  18.992  0.00  0.00    +0.000 A 
ATOM     24  C   UNL     1       2.156   6.485  20.223  0.00  0.00    +0.000 A 
ATOM     25  C   UNL     1       1.409   7.618  20.566  0.00  0.00    +0.000 A 
ATOM     26  C   UNL     1       1.341   8.720  19.707  0.00  0.00    +0.000 A 
BRANCH  21  28
ATOM     27  C   UNL     1       2.074  11.041  18.134  0.00  0.00    +0.000 C 
ATOM     28  O   UNL     1       2.062   9.728  17.587  0.00  0.00    +0.000 OA
ENDBRANCH  21  28
ENDBRANCH  20  24
ENDBRANCH   1  20
TORSDOF 7
ENDMDL
MODEL 7
REMARK VINA RESULT:      -7.6      3.094      6.161
REMARK  Name = 
REMARK  8 active torsions:
REMARK  status: ('A' for Active; 'I' for Inactive)
REMARK    1  A    between atoms: C_1  and  O_2
REMARK    2  A    between atoms: O_2  and  C_3
REMARK    3  A    between atoms: C_6  and  C_7
REMARK    4  A    between atoms: C_7  and  N_8
REMARK    5  A    between atoms: C_11  and  N_12
REMARK    6  A    between atoms: N_12  and  C_13
REMARK    7  A    between atoms: C_13  and  C_14
REMARK    8  A    between atoms: C_17  and  C_18
REMARK                            x       y       z     vdW  Elec       q    Type
REMARK                         _______ _______ _______ _____ _____    ______ ____
ROOT
ATOM      1  N   UNL     1       1.545   5.778  19.681  0.00  0.00    +0.000 NA
ATOM      2  C   UNL     1       2.068   5.428  18.347  0.00  0.00    +0.000 C 
ATOM      3  C   UNL     1       1.544   4.087  17.823  0.00  0.00    +0.000 C 
ATOM      4  C   UNL     1       1.784   2.939  18.815  0.00  0.00    +0.000 C 
ATOM      5  C   UNL     1       1.119   3.348  20.132  0.00  0.00    +0.000 C 
ATOM      6  C   UNL     1       1.655   4.681  20.653  0.00  0.00    +0.000 C 
ENDROOT
BRANCH   4   7
ATOM      7  N   UNL     1       3.224   2.652  18.911  0.00  0.00    +0.000 NA
ATOM      8  H   UNL     1       3.380   1.718  19.286  0.00  0.00    +0.000 HD
BRANCH   7   9
ATOM      9  C   UNL     1       3.940   2.770  17.641  0.00  0.00    +0.000 C 
BRANCH   9  10
ATOM     10  C   UNL     1       4.846   3.981  17.653  0.00  0.00    +0.000 A 
ATOM     11  C   UNL     1       5.122   4.682  16.470  0.00  0.00    +0.000 A 
ATOM     12  C   UNL     1       5.990   5.777  16.478  0.00  0.00    +0.000 A 
ATOM     13  C   UNL     1       6.600   6.193  17.670  0.00  0.00    +0.000 A 
ATOM     14  C   UNL     1       6.305   5.506  18.857  0.00  0.00    +0.000 A 
ATOM     15  C   UNL     1       5.437   4.413  18.848  0.00  0.00    +0.000 A 
BRANCH  13  16
ATOM     16  C   UNL     1       7.569   7.347  17.692  0.00  0.00    +0.000 C 
ATOM     17  F   UNL     1       8.272   7.493  16.534  0.00  0.00    +0.000 F 
ATOM     18  F   UNL     1       6.954   8.543  17.905  0.00  0.00    +0.000 F 
ATOM     19  F   UNL     1       8.501   7.225  18.678  0.00  0.00    +0.000 F 
ENDBRANCH  13  16
ENDBRANCH   9  10
ENDBRANCH   7   9
ENDBRANCH   4   7
BRANCH   1  20
ATOM     20  C   UNL     1       2.241   6.967  20.226  0.00  0.00    +0.000 C 
BRANCH  20  24
ATOM     21  C   UNL     1       0.166  10.720  19.643  0.00  0.00    +0.000 A 
ATOM     22  C   UNL     1       0.057  10.031  20.852  0.00  0.00    +0.000 A 
ATOM     23  C   UNL     1       0.730   8.824  21.049  0.00  0.00    +0.000 A 
ATOM     24  C   UNL     1       1.508   8.273  20.021  0.00  0.00    +0.000 A 
ATOM     25  C   UNL     1       1.613   8.967  18.810  0.00  0.00    +0.000 A 
ATOM     26  C   UNL     1       0.947  10.182  18.620  0.00  0.00    +0.000 A 
BRANCH  21  28
ATOM     27  C   UNL     1      -1.219  12.116  18.323  0.00  0.00    +0.000 C 
ATOM     28  O   UNL     1      -0.562  11.875  19.562  0.00  0.00    +0.000 OA
ENDBRANCH  21  28
ENDBRANCH  20  24
ENDBRANCH   1  20
TORSDOF 7
ENDMDL
MODEL 8
REMARK VINA RESULT:      -7.6      1.052      1.625
REMARK  Name = 
REMARK  8 active torsions:
REMARK  status: ('A' for Active; 'I' for Inactive)
REMARK    1  A    between atoms: C_1  and  O_2
REMARK    2  A    between atoms: O_2  and  C_3
REMARK    3  A    between atoms: C_6  and  C_7
REMARK    4  A    between atoms: C_7  and  N_8
REMARK    5  A    between atoms: C_11  and  N_12
REMARK    6  A    between atoms: N_12  and  C_13
REMARK    7  A    between atoms: C_13  and  C_14
REMARK    8  A    between atoms: C_17  and  C_18
REMARK                            x       y       z     vdW  Elec       q    Type
REMARK                         _______ _______ _______ _____ _____    ______ ____
ROOT
ATOM      1  N   UNL     1       2.999   2.895  18.022  0.00  0.00    +0.000 NA
ATOM      2  C   UNL     1       3.624   3.666  19.112  0.00  0.00    +0.000 C 
ATOM      3  C   UNL     1       3.163   3.228  20.507  0.00  0.00    +0.000 C 
ATOM      4  C   UNL     1       1.633   3.239  20.646  0.00  0.00    +0.000 C 
ATOM      5  C   UNL     1       1.082   2.334  19.541  0.00  0.00    +0.000 C 
ATOM      6  C   UNL     1       1.538   2.784  18.153  0.00  0.00    +0.000 C 
ENDROOT
BRANCH   4   7
ATOM      7  N   UNL     1       1.138   4.625  20.616  0.00  0.00    +0.000 NA
ATOM      8  H   UNL     1       0.306   4.722  21.196  0.00  0.00    +0.000 HD
BRANCH   7   9
ATOM      9  C   UNL     1       2.122   5.619  21.044  0.00  0.00    +0.000 C 
BRANCH   9  10
ATOM     10  C   UNL     1       1.805   6.972  20.446  0.00  0.00    +0.000 A 
ATOM     11  C   UNL     1       2.202   7.289  19.140  0.00  0.00    +0.000 A 
ATOM     12  C   UNL     1       1.942   8.554  18.605  0.00  0.00    +0.000 A 
ATOM     13  C   UNL     1       1.278   9.526  19.367  0.00  0.00    +0.000 A 
ATOM     14  C   UNL     1       0.861   9.200  20.666  0.00  0.00    +0.000 A 
ATOM     15  C   UNL     1       1.120   7.936  21.198  0.00  0.00    +0.000 A 
BRANCH  13  16
ATOM     16  C   UNL     1       1.023  10.908  18.822  0.00  0.00    +0.000 C 
ATOM     17  F   UNL     1       2.026  11.376  18.027  0.00  0.00    +0.000 F 
ATOM     18  F   UNL     1      -0.109  10.973  18.068  0.00  0.00    +0.000 F 
ATOM     19  F   UNL     1       0.869  11.836  19.808  0.00  0.00    +0.000 F 
ENDBRANCH  13  16
ENDBRANCH   9  10
ENDBRANCH   7   9
ENDBRANCH   4   7
BRANCH   1  20
ATOM     20  C   UNL     1       3.312   3.494  16.704  0.00  0.00    +0.000 C 
BRANCH  20  24
ATOM     21  C   UNL     1       6.806   6.049  16.707  0.00  0.00    +0.000 A 
ATOM     22  C   UNL     1       5.549   6.567  17.022  0.00  0.00    +0.000 A 
ATOM     23  C   UNL     1       4.420   5.747  17.030  0.00  0.00    +0.000 A 
ATOM     24  C   UNL     1       4.530   4.389  16.696  0.00  0.00    +0.000 A 
ATOM     25  C   UNL     1       5.793   3.874  16.380  0.00  0.00    +0.000 A 
ATOM     26  C   UNL     1       6.925   4.696  16.384  0.00  0.00    +0.000 A 
BRANCH  21  28
ATOM     27  C   UNL     1       7.682   8.067  17.583  0.00  0.00    +0.000 C 
ATOM     28  O   UNL     1       7.828   6.957  16.705  0.00  0.00    +0.000 OA
ENDBRANCH  21  28
ENDBRANCH  20  24
ENDBRANCH   1  20
TORSDOF 7
ENDMDL
MODEL 9
REMARK VINA RESULT:      -7.6      2.615      5.257
REMARK  Name = 
REMARK  8 active torsions:
REMARK  status: ('A' for Active; 'I' for Inactive)
REMARK    1  A    between atoms: C_1  and  O_2
REMARK    2  A    between atoms: O_2  and  C_3
REMARK    3  A    between atoms: C_6  and  C_7
REMARK    4  A    between atoms: C_7  and  N_8
REMARK    5  A    between atoms: C_11  and  N_12
REMARK    6  A    between atoms: N_12  and  C_13
REMARK    7  A    between atoms: C_13  and  C_14
REMARK    8  A    between atoms: C_17  and  C_18
REMARK                            x       y       z     vdW  Elec       q    Type
REMARK                         _______ _______ _______ _____ _____    ______ ____
ROOT
ATOM      1  N   UNL     1       1.720   4.486  20.264  0.00  0.00    +0.000 NA
ATOM      2  C   UNL     1       1.796   4.565  18.794  0.00  0.00    +0.000 C 
ATOM      3  C   UNL     1       1.524   3.226  18.100  0.00  0.00    +0.000 C 
ATOM      4  C   UNL     1       2.429   2.101  18.627  0.00  0.00    +0.000 C 
ATOM      5  C   UNL     1       2.205   2.028  20.140  0.00  0.00    +0.000 C 
ATOM      6  C   UNL     1       2.488   3.364  20.826  0.00  0.00    +0.000 C 
ENDROOT
BRANCH   4   7
ATOM      7  N   UNL     1       3.822   2.345  18.218  0.00  0.00    +0.000 NA
ATOM      8  H   UNL     1       4.323   1.466  18.106  0.00  0.00    +0.000 HD
BRANCH   7   9
ATOM      9  C   UNL     1       3.953   3.118  16.983  0.00  0.00    +0.000 C 
BRANCH   9  10
ATOM     10  C   UNL     1       4.933   4.255  17.170  0.00  0.00    +0.000 A 
ATOM     11  C   UNL     1       5.614   4.422  18.384  0.00  0.00    +0.000 A 
ATOM     12  C   UNL     1       6.489   5.496  18.566  0.00  0.00    +0.000 A 
ATOM     13  C   UNL     1       6.700   6.425  17.537  0.00  0.00    +0.000 A 
ATOM     14  C   UNL     1       6.034   6.245  16.315  0.00  0.00    +0.000 A 
ATOM     15  C   UNL     1       5.162   5.171  16.134  0.00  0.00    +0.000 A 
BRANCH  13  16
ATOM     16  C   UNL     1       7.609   7.612  17.728  0.00  0.00    +0.000 C 
ATOM     17  F   UNL     1       8.430   7.504  18.811  0.00  0.00    +0.000 F 
ATOM     18  F   UNL     1       8.429   7.820  16.661  0.00  0.00    +0.000 F 
ATOM     19  F   UNL     1       6.919   8.774  17.901  0.00  0.00    +0.000 F 
ENDBRANCH  13  16
ENDBRANCH   9  10
ENDBRANCH   7   9
ENDBRANCH   4   7
BRANCH   1  20
ATOM     20  C   UNL     1       2.195   5.744  20.886  0.00  0.00    +0.000 C 
BRANCH  20  24
ATOM     21  C   UNL     1       2.012   9.193  18.277  0.00  0.00    +0.000 A 
ATOM     22  C   UNL     1       2.833   8.108  17.961  0.00  0.00    +0.000 A 
ATOM     23  C   UNL     1       2.890   6.990  18.795  0.00  0.00    +0.000 A 
ATOM     24  C   UNL     1       2.140   6.952  19.979  0.00  0.00    +0.000 A 
ATOM     25  C   UNL     1       1.319   8.042  20.291  0.00  0.00    +0.000 A 
ATOM     26  C   UNL     1       1.255   9.156  19.448  0.00  0.00    +0.000 A 
BRANCH  21  28
ATOM     27  C   UNL     1       2.338  11.517  17.960  0.00  0.00    +0.000 C 
ATOM     28  O   UNL     1       2.064  10.239  17.398  0.00  0.00    +0.000 OA
ENDBRANCH  21  28
ENDBRANCH  20  24
ENDBRANCH   1  20
TORSDOF 7
ENDMDL
