MODEL 1
REMARK VINA RESULT:      -9.0      0.000      0.000
REMARK  Name = 
REMARK  8 active torsions:
REMARK  status: ('A' for Active; 'I' for Inactive)
REMARK    1  A    between atoms: C_2  and  C_3
REMARK    2  A    between atoms: N_5  and  C_6
REMARK    3  A    between atoms: C_9  and  C_10
REMARK    4  A    between atoms: N_12  and  C_13
REMARK    5  A    between atoms: C_16  and  C_17
REMARK    6  A    between atoms: C_18  and  N_19
REMARK    7  A    between atoms: C_22  and  C_23
REMARK    8  A    between atoms: C_25  and  C_26
REMARK                            x       y       z     vdW  Elec       q    Type
REMARK                         _______ _______ _______ _____ _____    ______ ____
ROOT
ATOM      1  C   UNL     1       6.942   6.843  16.839  0.00  0.00    +0.000 A 
ATOM      2  C   UNL     1       7.151   6.245  15.601  0.00  0.00    +0.000 A 
ATOM      3  C   UNL     1       6.650   4.971  15.326  0.00  0.00    +0.000 A 
ATOM      4  C   UNL     1       5.926   4.259  16.290  0.00  0.00    +0.000 A 
ATOM      5  C   UNL     1       5.497   2.854  15.969  0.00  0.00    +0.000 C 
ATOM      6  C   UNL     1       5.668   4.854  17.540  0.00  0.00    +0.000 A 
ATOM      7  C   UNL     1       6.200   6.140  17.792  0.00  0.00    +0.000 A 
ENDROOT
BRANCH   6   8
ATOM      8  N   UNL     1       4.960   4.148  18.530  0.00  0.00    +0.000 N 
ATOM      9  C   UNL     1       3.808   4.504  19.225  0.00  0.00    +0.000 A 
ATOM     10  N   UNL     1       3.290   3.611  20.078  0.00  0.00    +0.000 NA
ATOM     11  C   UNL     1       2.215   3.997  20.798  0.00  0.00    +0.000 A 
ATOM     12  C   UNL     1       1.614   2.996  21.739  0.00  0.00    +0.000 C 
ATOM     13  C   UNL     1       1.677   5.266  20.712  0.00  0.00    +0.000 A 
ATOM     14  C   UNL     1       2.276   6.129  19.824  0.00  0.00    +0.000 A 
ATOM     15  N   UNL     1       3.319   5.738  19.078  0.00  0.00    +0.000 NA
ATOM     16  H   UNL     1       5.398   3.352  18.963  0.00  0.00    +0.000 HD
BRANCH  14  17
ATOM     17  C   UNL     1       1.885   7.530  19.613  0.00  0.00    +0.000 A 
ATOM     18  C   UNL     1       2.064   8.207  18.403  0.00  0.00    +0.000 A 
ATOM     19  C   UNL     1       1.669   9.540  18.275  0.00  0.00    +0.000 A 
ATOM     20  C   UNL     1       1.109  10.171  19.371  0.00  0.00    +0.000 A 
ATOM     21  N   UNL     1       0.928   9.575  20.564  0.00  0.00    +0.000 NA
ATOM     22  C   UNL     1       1.316   8.278  20.652  0.00  0.00    +0.000 A 
ENDBRANCH  14  17
ENDBRANCH   6   8
BRANCH   1  25
ATOM     23  C   UNL     1       8.259   8.365  18.283  0.00  0.00    +0.000 C 
ATOM     24  O   UNL     1       8.701   7.526  19.057  0.00  0.00    +0.000 OA
ATOM     25  N   UNL     1       7.453   8.120  17.186  0.00  0.00    +0.000 N 
ATOM     26  H   UNL     1       7.305   8.866  16.519  0.00  0.00    +0.000 HD
BRANCH  23  30
ATOM     27  C   UNL     1       9.587  12.434  18.581  0.00  0.00    +0.000 A 
ATOM     28  C   UNL     1       8.622  12.032  17.658  0.00  0.00    +0.000 A 
ATOM     29  C   UNL     1       8.177  10.715  17.622  0.00  0.00    +0.000 A 
ATOM     30  C   UNL     1       8.684   9.767  18.513  0.00  0.00    +0.000 A 
ATOM     31  C   UNL     1       9.640  10.151  19.457  0.00  0.00    +0.000 A 
ATOM     32  C   UNL     1      10.098  11.483  19.481  0.00  0.00    +0.000 A 
BRANCH  27  35
ATOM     33  C   UNL     1      11.226  14.185  17.938  0.00  0.00    +0.000 C 
ATOM     34  O   UNL     1      11.885  13.541  17.130  0.00  0.00    +0.000 OA
ATOM     35  N   UNL     1      10.095  13.756  18.610  0.00  0.00    +0.000 N 
ATOM     36  H   UNL     1       9.563  14.435  19.136  0.00  0.00    +0.000 HD
BRANCH  33  38
ATOM     37  C   UNL     1      11.695  16.478  17.250  0.00  0.00    +0.000 C 
ATOM     38  C   UNL     1      11.603  15.591  18.252  0.00  0.00    +0.000 C 
ENDBRANCH  33  38
ENDBRANCH  27  35
ENDBRANCH  23  30
ENDBRANCH   1  25
TORSDOF 6
ENDMDL
MODEL 2
REMARK VINA RESULT:      -8.9      3.787      8.297
REMARK  Name = 
REMARK  8 active torsions:
REMARK  status: ('A' for Active; 'I' for Inactive)
REMARK    1  A    between atoms: C_2  and  C_3
REMARK    2  A    between atoms: N_5  and  C_6
REMARK    3  A    between atoms: C_9  and  C_10
REMARK    4  A    between atoms: N_12  and  C_13
REMARK    5  A    between atoms: C_16  and  C_17
REMARK    6  A    between atoms: C_18  and  N_19
REMARK    7  A    between atoms: C_22  and  C_23
REMARK    8  A    between atoms: C_25  and  C_26
REMARK                            x       y       z     vdW  Elec       q    Type
REMARK                         _______ _______ _______ _____ _____    ______ ____
ROOT
ATOM      1  C   UNL     1       2.070   5.122  20.431  0.00  0.00    +0.000 A 
ATOM      2  C   UNL     1       2.230   4.061  21.316  0.00  0.00    +0.000 A 
ATOM      3  C   UNL     1       2.782   2.851  20.891  0.00  0.00    +0.000 A 
ATOM      4  C   UNL     1       3.187   2.671  19.562  0.00  0.00    +0.000 A 
ATOM      5  C   UNL     1       3.683   1.315  19.143  0.00  0.00    +0.000 C 
ATOM      6  C   UNL     1       3.070   3.740  18.653  0.00  0.00    +0.000 A 
ATOM      7  C   UNL     1       2.495   4.948  19.111  0.00  0.00    +0.000 A 
ENDROOT
BRANCH   6   8
ATOM      8  N   UNL     1       3.452   3.575  17.310  0.00  0.00    +0.000 N 
ATOM      9  C   UNL     1       4.566   4.063  16.634  0.00  0.00    +0.000 A 
ATOM     10  N   UNL     1       4.733   3.699  15.356  0.00  0.00    +0.000 NA
ATOM     11  C   UNL     1       5.779   4.237  14.693  0.00  0.00    +0.000 A 
ATOM     12  C   UNL     1       5.987   3.817  13.268  0.00  0.00    +0.000 C 
ATOM     13  C   UNL     1       6.630   5.160  15.267  0.00  0.00    +0.000 A 
ATOM     14  C   UNL     1       6.382   5.493  16.579  0.00  0.00    +0.000 A 
ATOM     15  N   UNL     1       5.369   4.931  17.253  0.00  0.00    +0.000 NA
ATOM     16  H   UNL     1       2.775   3.215  16.656  0.00  0.00    +0.000 HD
BRANCH  14  17
ATOM     17  C   UNL     1       7.141   6.481  17.357  0.00  0.00    +0.000 A 
ATOM     18  C   UNL     1       7.290   7.818  16.972  0.00  0.00    +0.000 A 
ATOM     19  C   UNL     1       8.029   8.702  17.761  0.00  0.00    +0.000 A 
ATOM     20  C   UNL     1       8.612   8.222  18.920  0.00  0.00    +0.000 A 
ATOM     21  N   UNL     1       8.516   6.945  19.331  0.00  0.00    +0.000 NA
ATOM     22  C   UNL     1       7.786   6.114  18.546  0.00  0.00    +0.000 A 
ENDBRANCH  14  17
ENDBRANCH   6   8
BRANCH   1  25
ATOM     23  C   UNL     1       1.753   7.564  20.168  0.00  0.00    +0.000 C 
ATOM     24  O   UNL     1       2.455   7.721  19.177  0.00  0.00    +0.000 OA
ATOM     25  N   UNL     1       1.487   6.362  20.798  0.00  0.00    +0.000 N 
ATOM     26  H   UNL     1       0.750   6.333  21.491  0.00  0.00    +0.000 HD
BRANCH  23  30
ATOM     27  C   UNL     1      -0.452  10.826  21.872  0.00  0.00    +0.000 A 
ATOM     28  C   UNL     1       0.090   9.806  22.653  0.00  0.00    +0.000 A 
ATOM     29  C   UNL     1       0.843   8.790  22.074  0.00  0.00    +0.000 A 
ATOM     30  C   UNL     1       1.076   8.772  20.697  0.00  0.00    +0.000 A 
ATOM     31  C   UNL     1       0.556   9.793  19.897  0.00  0.00    +0.000 A 
ATOM     32  C   UNL     1      -0.217  10.813  20.486  0.00  0.00    +0.000 A 
BRANCH  27  35
ATOM     33  C   UNL     1      -0.828  13.125  22.733  0.00  0.00    +0.000 C 
ATOM     34  O   UNL     1       0.267  13.608  22.470  0.00  0.00    +0.000 OA
ATOM     35  N   UNL     1      -1.262  11.848  22.425  0.00  0.00    +0.000 N 
ATOM     36  H   UNL     1      -2.238  11.626  22.567  0.00  0.00    +0.000 HD
BRANCH  33  38
ATOM     37  C   UNL     1      -2.999  13.368  23.819  0.00  0.00    +0.000 C 
ATOM     38  C   UNL     1      -1.859  13.951  23.422  0.00  0.00    +0.000 C 
ENDBRANCH  33  38
ENDBRANCH  27  35
ENDBRANCH  23  30
ENDBRANCH   1  25
TORSDOF 6
ENDMDL
MODEL 3
REMARK VINA RESULT:      -8.6      1.006      1.006
REMARK  Name = 
REMARK  8 active torsions:
REMARK  status: ('A' for Active; 'I' for Inactive)
REMARK    1  A    between atoms: C_2  and  C_3
REMARK    2  A    between atoms: N_5  and  C_6
REMARK    3  A    between atoms: C_9  and  C_10
REMARK    4  A    between atoms: N_12  and  C_13
REMARK    5  A    between atoms: C_16  and  C_17
REMARK    6  A    between atoms: C_18  and  N_19
REMARK    7  A    between atoms: C_22  and  C_23
REMARK    8  A    between atoms: C_25  and  C_26
REMARK                            x       y       z     vdW  Elec       q    Type
REMARK                         _______ _______ _______ _____ _____    ______ ____
ROOT
ATOM      1  C   UNL     1       6.961   6.903  16.895  0.00  0.00    +0.000 A 
ATOM      2  C   UNL     1       7.191   6.326  15.650  0.00  0.00    +0.000 A 
ATOM      3  C   UNL     1       6.700   5.054  15.349  0.00  0.00    +0.000 A 
ATOM      4  C   UNL     1       5.964   4.324  16.290  0.00  0.00    +0.000 A 
ATOM      5  C   UNL     1       5.547   2.922  15.941  0.00  0.00    +0.000 C 
ATOM      6  C   UNL     1       5.685   4.898  17.545  0.00  0.00    +0.000 A 
ATOM      7  C   UNL     1       6.207   6.182  17.825  0.00  0.00    +0.000 A 
ENDROOT
BRANCH   6   8
ATOM      8  N   UNL     1       4.965   4.175  18.513  0.00  0.00    +0.000 N 
ATOM      9  C   UNL     1       3.805   4.518  19.202  0.00  0.00    +0.000 A 
ATOM     10  N   UNL     1       3.278   3.609  20.031  0.00  0.00    +0.000 NA
ATOM     11  C   UNL     1       2.194   3.982  20.745  0.00  0.00    +0.000 A 
ATOM     12  C   UNL     1       1.583   2.963  21.661  0.00  0.00    +0.000 C 
ATOM     13  C   UNL     1       1.658   5.252  20.678  0.00  0.00    +0.000 A 
ATOM     14  C   UNL     1       2.267   6.132  19.812  0.00  0.00    +0.000 A 
ATOM     15  N   UNL     1       3.318   5.754  19.072  0.00  0.00    +0.000 NA
ATOM     16  H   UNL     1       5.399   3.370  18.936  0.00  0.00    +0.000 HD
BRANCH  14  17
ATOM     17  C   UNL     1       1.878   7.536  19.624  0.00  0.00    +0.000 A 
ATOM     18  C   UNL     1       2.057   8.231  18.423  0.00  0.00    +0.000 A 
ATOM     19  C   UNL     1       1.665   9.567  18.316  0.00  0.00    +0.000 A 
ATOM     20  C   UNL     1       1.108  10.183  19.423  0.00  0.00    +0.000 A 
ATOM     21  N   UNL     1       0.927   9.568  20.606  0.00  0.00    +0.000 NA
ATOM     22  C   UNL     1       1.312   8.269  20.675  0.00  0.00    +0.000 A 
ENDBRANCH  14  17
ENDBRANCH   6   8
BRANCH   1  25
ATOM     23  C   UNL     1       8.296   8.400  18.348  0.00  0.00    +0.000 C 
ATOM     24  O   UNL     1       8.775   7.543  19.080  0.00  0.00    +0.000 OA
ATOM     25  N   UNL     1       7.461   8.177  17.268  0.00  0.00    +0.000 N 
ATOM     26  H   UNL     1       7.281   8.943  16.632  0.00  0.00    +0.000 HD
BRANCH  23  30
ATOM     27  C   UNL     1       9.641  12.452  18.769  0.00  0.00    +0.000 A 
ATOM     28  C   UNL     1       8.853  12.038  17.697  0.00  0.00    +0.000 A 
ATOM     29  C   UNL     1       8.391  10.728  17.617  0.00  0.00    +0.000 A 
ATOM     30  C   UNL     1       8.704   9.801  18.612  0.00  0.00    +0.000 A 
ATOM     31  C   UNL     1       9.480  10.198  19.704  0.00  0.00    +0.000 A 
ATOM     32  C   UNL     1       9.957  11.522  19.775  0.00  0.00    +0.000 A 
BRANCH  27  35
ATOM     33  C   UNL     1       9.486  14.860  19.355  0.00  0.00    +0.000 C 
ATOM     34  O   UNL     1       8.391  14.850  19.908  0.00  0.00    +0.000 OA
ATOM     35  N   UNL     1      10.167  13.765  18.854  0.00  0.00    +0.000 N 
ATOM     36  H   UNL     1      11.124  13.890  18.557  0.00  0.00    +0.000 HD
BRANCH  33  38
ATOM     37  C   UNL     1       9.851  17.006  18.254  0.00  0.00    +0.000 C 
ATOM     38  C   UNL     1      10.231  16.141  19.205  0.00  0.00    +0.000 C 
ENDBRANCH  33  38
ENDBRANCH  27  35
ENDBRANCH  23  30
ENDBRANCH   1  25
TORSDOF 6
ENDMDL
MODEL 4
REMARK VINA RESULT:      -8.6      1.730      2.073
REMARK  Name = 
REMARK  8 active torsions:
REMARK  status: ('A' for Active; 'I' for Inactive)
REMARK    1  A    between atoms: C_2  and  C_3
REMARK    2  A    between atoms: N_5  and  C_6
REMARK    3  A    between atoms: C_9  and  C_10
REMARK    4  A    between atoms: N_12  and  C_13
REMARK    5  A    between atoms: C_16  and  C_17
REMARK    6  A    between atoms: C_18  and  N_19
REMARK    7  A    between atoms: C_22  and  C_23
REMARK    8  A    between atoms: C_25  and  C_26
REMARK                            x       y       z     vdW  Elec       q    Type
REMARK                         _______ _______ _______ _____ _____    ______ ____
ROOT
ATOM      1  C   UNL     1       7.603   6.735  17.730  0.00  0.00    +0.000 A 
ATOM      2  C   UNL     1       7.695   6.376  16.389  0.00  0.00    +0.000 A 
ATOM      3  C   UNL     1       7.018   5.258  15.899  0.00  0.00    +0.000 A 
ATOM      4  C   UNL     1       6.229   4.466  16.743  0.00  0.00    +0.000 A 
ATOM      5  C   UNL     1       5.604   3.221  16.177  0.00  0.00    +0.000 C 
ATOM      6  C   UNL     1       6.089   4.826  18.097  0.00  0.00    +0.000 A 
ATOM      7  C   UNL     1       6.798   5.957  18.566  0.00  0.00    +0.000 A 
ENDROOT
BRANCH   6   8
ATOM      8  N   UNL     1       5.319   4.033  18.967  0.00  0.00    +0.000 N 
ATOM      9  C   UNL     1       4.080   4.293  19.546  0.00  0.00    +0.000 A 
ATOM     10  N   UNL     1       3.524   3.330  20.292  0.00  0.00    +0.000 NA
ATOM     11  C   UNL     1       2.357   3.621  20.906  0.00  0.00    +0.000 A 
ATOM     12  C   UNL     1       1.716   2.541  21.726  0.00  0.00    +0.000 C 
ATOM     13  C   UNL     1       1.762   4.864  20.823  0.00  0.00    +0.000 A 
ATOM     14  C   UNL     1       2.404   5.804  20.049  0.00  0.00    +0.000 A 
ATOM     15  N   UNL     1       3.542   5.506  19.406  0.00  0.00    +0.000 NA
ATOM     16  H   UNL     1       5.752   3.238  19.407  0.00  0.00    +0.000 HD
BRANCH  14  17
ATOM     17  C   UNL     1       1.960   7.192  19.865  0.00  0.00    +0.000 A 
ATOM     18  C   UNL     1       1.282   7.922  20.846  0.00  0.00    +0.000 A 
ATOM     19  C   UNL     1       0.887   9.238  20.600  0.00  0.00    +0.000 A 
ATOM     20  C   UNL     1       1.176   9.795  19.367  0.00  0.00    +0.000 A 
ATOM     21  N   UNL     1       1.811   9.135  18.381  0.00  0.00    +0.000 NA
ATOM     22  C   UNL     1       2.187   7.861  18.654  0.00  0.00    +0.000 A 
ENDBRANCH  14  17
ENDBRANCH   6   8
BRANCH   1  25
ATOM     23  C   UNL     1       8.094   9.156  17.911  0.00  0.00    +0.000 C 
ATOM     24  O   UNL     1       7.261   9.559  17.109  0.00  0.00    +0.000 OA
ATOM     25  N   UNL     1       8.293   7.841  18.290  0.00  0.00    +0.000 N 
ATOM     26  H   UNL     1       8.880   7.654  19.093  0.00  0.00    +0.000 HD
BRANCH  23  30
ATOM     27  C   UNL     1      10.179  12.222  20.070  0.00  0.00    +0.000 A 
ATOM     28  C   UNL     1       9.565  11.147  20.711  0.00  0.00    +0.000 A 
ATOM     29  C   UNL     1       8.941  10.143  19.979  0.00  0.00    +0.000 A 
ATOM     30  C   UNL     1       8.919  10.188  18.583  0.00  0.00    +0.000 A 
ATOM     31  C   UNL     1       9.542  11.248  17.918  0.00  0.00    +0.000 A 
ATOM     32  C   UNL     1      10.162  12.270  18.665  0.00  0.00    +0.000 A 
BRANCH  27  35
ATOM     33  C   UNL     1      10.199  14.518  21.014  0.00  0.00    +0.000 C 
ATOM     34  O   UNL     1       9.048  14.844  20.743  0.00  0.00    +0.000 OA
ATOM     35  N   UNL     1      10.781  13.283  20.789  0.00  0.00    +0.000 N 
ATOM     36  H   UNL     1      11.688  13.100  21.194  0.00  0.00    +0.000 HD
BRANCH  33  38
ATOM     37  C   UNL     1      10.651  16.181  22.741  0.00  0.00    +0.000 C 
ATOM     38  C   UNL     1      11.107  15.488  21.687  0.00  0.00    +0.000 C 
ENDBRANCH  33  38
ENDBRANCH  27  35
ENDBRANCH  23  30
ENDBRANCH   1  25
TORSDOF 6
ENDMDL
MODEL 5
REMARK VINA RESULT:      -8.6      6.120     11.043
REMARK  Name = 
REMARK  8 active torsions:
REMARK  status: ('A' for Active; 'I' for Inactive)
REMARK    1  A    between atoms: C_2  and  C_3
REMARK    2  A    between atoms: N_5  and  C_6
REMARK    3  A    between atoms: C_9  and  C_10
REMARK    4  A    between atoms: N_12  and  C_13
REMARK    5  A    between atoms: C_16  and  C_17
REMARK    6  A    between atoms: C_18  and  N_19
REMARK    7  A    between atoms: C_22  and  C_23
REMARK    8  A    between atoms: C_25  and  C_26
REMARK                            x       y       z     vdW  Elec       q    Type
REMARK                         _______ _______ _______ _____ _____    ______ ____
ROOT
ATOM      1  C   UNL     1       0.269  11.542  21.122  0.00  0.00    +0.000 A 
ATOM      2  C   UNL     1       1.044  12.688  20.979  0.00  0.00    +0.000 A 
ATOM      3  C   UNL     1       0.645  13.899  21.547  0.00  0.00    +0.000 A 
ATOM      4  C   UNL     1      -0.548  13.995  22.276  0.00  0.00    +0.000 A 
ATOM      5  C   UNL     1      -0.972  15.346  22.780  0.00  0.00    +0.000 C 
ATOM      6  C   UNL     1      -1.334  12.842  22.468  0.00  0.00    +0.000 A 
ATOM      7  C   UNL     1      -0.909  11.634  21.868  0.00  0.00    +0.000 A 
ENDROOT
BRANCH   6   8
ATOM      8  N   UNL     1      -2.545  12.920  23.179  0.00  0.00    +0.000 N 
ATOM      9  C   UNL     1      -3.853  12.762  22.729  0.00  0.00    +0.000 A 
ATOM     10  N   UNL     1      -4.838  12.818  23.635  0.00  0.00    +0.000 NA
ATOM     11  C   UNL     1      -6.104  12.735  23.175  0.00  0.00    +0.000 A 
ATOM     12  C   UNL     1      -7.213  12.774  24.185  0.00  0.00    +0.000 C 
ATOM     13  C   UNL     1      -6.405  12.640  21.831  0.00  0.00    +0.000 A 
ATOM     14  C   UNL     1      -5.337  12.604  20.963  0.00  0.00    +0.000 A 
ATOM     15  N   UNL     1      -4.077  12.646  21.418  0.00  0.00    +0.000 NA
ATOM     16  H   UNL     1      -2.538  13.318  24.104  0.00  0.00    +0.000 HD
BRANCH  14  17
ATOM     17  C   UNL     1      -5.441  12.547  19.499  0.00  0.00    +0.000 A 
ATOM     18  C   UNL     1      -4.648  11.715  18.701  0.00  0.00    +0.000 A 
ATOM     19  C   UNL     1      -4.800  11.714  17.313  0.00  0.00    +0.000 A 
ATOM     20  C   UNL     1      -5.742  12.558  16.752  0.00  0.00    +0.000 A 
ATOM     21  N   UNL     1      -6.520  13.390  17.468  0.00  0.00    +0.000 NA
ATOM     22  C   UNL     1      -6.352  13.361  18.814  0.00  0.00    +0.000 A 
ENDBRANCH  14  17
ENDBRANCH   6   8
BRANCH   1  25
ATOM     23  C   UNL     1       1.285   9.285  21.203  0.00  0.00    +0.000 C 
ATOM     24  O   UNL     1       1.618   9.290  22.382  0.00  0.00    +0.000 OA
ATOM     25  N   UNL     1       0.609  10.293  20.541  0.00  0.00    +0.000 N 
ATOM     26  H   UNL     1       0.228  10.098  19.624  0.00  0.00    +0.000 HD
BRANCH  23  30
ATOM     27  C   UNL     1       2.370   5.610  19.273  0.00  0.00    +0.000 A 
ATOM     28  C   UNL     1       1.814   5.643  20.551  0.00  0.00    +0.000 A 
ATOM     29  C   UNL     1       1.427   6.848  21.128  0.00  0.00    +0.000 A 
ATOM     30  C   UNL     1       1.582   8.051  20.436  0.00  0.00    +0.000 A 
ATOM     31  C   UNL     1       2.123   8.040  19.148  0.00  0.00    +0.000 A 
ATOM     32  C   UNL     1       2.527   6.819  18.573  0.00  0.00    +0.000 A 
BRANCH  27  35
ATOM     33  C   UNL     1       2.085   3.637  17.793  0.00  0.00    +0.000 C 
ATOM     34  O   UNL     1       1.003   3.928  17.295  0.00  0.00    +0.000 OA
ATOM     35  N   UNL     1       2.819   4.405  18.678  0.00  0.00    +0.000 N 
ATOM     36  H   UNL     1       3.762   4.115  18.897  0.00  0.00    +0.000 HD
BRANCH  33  38
ATOM     37  C   UNL     1       3.400   1.667  18.375  0.00  0.00    +0.000 C 
ATOM     38  C   UNL     1       2.751   2.356  17.426  0.00  0.00    +0.000 C 
ENDBRANCH  33  38
ENDBRANCH  27  35
ENDBRANCH  23  30
ENDBRANCH   1  25
TORSDOF 6
ENDMDL
MODEL 6
REMARK VINA RESULT:      -8.6      5.441      8.898
REMARK  Name = 
REMARK  8 active torsions:
REMARK  status: ('A' for Active; 'I' for Inactive)
REMARK    1  A    between atoms: C_2  and  C_3
REMARK    2  A    between atoms: N_5  and  C_6
REMARK    3  A    between atoms: C_9  and  C_10
REMARK    4  A    between atoms: N_12  and  C_13
REMARK    5  A    between atoms: C_16  and  C_17
REMARK    6  A    between atoms: C_18  and  N_19
REMARK    7  A    between atoms: C_22  and  C_23
REMARK    8  A    between atoms: C_25  and  C_26
REMARK                            x       y       z     vdW  Elec       q    Type
REMARK                         _______ _______ _______ _____ _____    ______ ____
ROOT
ATOM      1  C   UNL     1       2.100   7.239  19.303  0.00  0.00    +0.000 A 
ATOM      2  C   UNL     1       1.559   6.498  20.348  0.00  0.00    +0.000 A 
ATOM      3  C   UNL     1       0.953   7.129  21.436  0.00  0.00    +0.000 A 
ATOM      4  C   UNL     1       0.875   8.525  21.508  0.00  0.00    +0.000 A 
ATOM      5  C   UNL     1       0.299   9.147  22.749  0.00  0.00    +0.000 C 
ATOM      6  C   UNL     1       1.383   9.301  20.447  0.00  0.00    +0.000 A 
ATOM      7  C   UNL     1       2.002   8.632  19.365  0.00  0.00    +0.000 A 
ENDROOT
BRANCH   6   8
ATOM      8  N   UNL     1       1.333  10.705  20.508  0.00  0.00    +0.000 N 
ATOM      9  C   UNL     1       0.408  11.588  19.959  0.00  0.00    +0.000 A 
ATOM     10  N   UNL     1       0.553  12.892  20.225  0.00  0.00    +0.000 NA
ATOM     11  C   UNL     1      -0.309  13.743  19.629  0.00  0.00    +0.000 A 
ATOM     12  C   UNL     1      -0.169  15.204  19.938  0.00  0.00    +0.000 C 
ATOM     13  C   UNL     1      -1.281  13.321  18.743  0.00  0.00    +0.000 A 
ATOM     14  C   UNL     1      -1.354  11.966  18.511  0.00  0.00    +0.000 A 
ATOM     15  N   UNL     1      -0.527  11.114  19.132  0.00  0.00    +0.000 NA
ATOM     16  H   UNL     1       2.149  11.204  20.824  0.00  0.00    +0.000 HD
BRANCH  14  17
ATOM     17  C   UNL     1      -2.286  11.319  17.577  0.00  0.00    +0.000 A 
ATOM     18  C   UNL     1      -1.906  10.314  16.681  0.00  0.00    +0.000 A 
ATOM     19  C   UNL     1      -2.845   9.744  15.819  0.00  0.00    +0.000 A 
ATOM     20  C   UNL     1      -4.150  10.203  15.869  0.00  0.00    +0.000 A 
ATOM     21  N   UNL     1      -4.568  11.177  16.698  0.00  0.00    +0.000 NA
ATOM     22  C   UNL     1      -3.632  11.704  17.527  0.00  0.00    +0.000 A 
ENDBRANCH  14  17
ENDBRANCH   6   8
BRANCH   1  25
ATOM     23  C   UNL     1       3.943   5.951  18.264  0.00  0.00    +0.000 C 
ATOM     24  O   UNL     1       4.553   5.671  19.288  0.00  0.00    +0.000 OA
ATOM     25  N   UNL     1       2.755   6.655  18.189  0.00  0.00    +0.000 N 
ATOM     26  H   UNL     1       2.254   6.664  17.310  0.00  0.00    +0.000 HD
BRANCH  23  30
ATOM     27  C   UNL     1       5.801   4.227  14.803  0.00  0.00    +0.000 A 
ATOM     28  C   UNL     1       5.222   3.447  15.802  0.00  0.00    +0.000 A 
ATOM     29  C   UNL     1       4.582   4.039  16.886  0.00  0.00    +0.000 A 
ATOM     30  C   UNL     1       4.504   5.429  16.995  0.00  0.00    +0.000 A 
ATOM     31  C   UNL     1       5.064   6.231  15.997  0.00  0.00    +0.000 A 
ATOM     32  C   UNL     1       5.722   5.627  14.907  0.00  0.00    +0.000 A 
BRANCH  27  35
ATOM     33  C   UNL     1       5.927   3.288  12.508  0.00  0.00    +0.000 C 
ATOM     34  O   UNL     1       4.775   3.506  12.150  0.00  0.00    +0.000 OA
ATOM     35  N   UNL     1       6.501   3.655  13.712  0.00  0.00    +0.000 N 
ATOM     36  H   UNL     1       7.499   3.546  13.821  0.00  0.00    +0.000 HD
BRANCH  33  38
ATOM     37  C   UNL     1       6.534   1.391  11.099  0.00  0.00    +0.000 C 
ATOM     38  C   UNL     1       6.871   2.593  11.589  0.00  0.00    +0.000 C 
ENDBRANCH  33  38
ENDBRANCH  27  35
ENDBRANCH  23  30
ENDBRANCH   1  25
TORSDOF 6
ENDMDL
MODEL 7
REMARK VINA RESULT:      -8.5      0.795      1.375
REMARK  Name = 
REMARK  8 active torsions:
REMARK  status: ('A' for Active; 'I' for Inactive)
REMARK    1  A    between atoms: C_2  and  C_3
REMARK    2  A    between atoms: N_5  and  C_6
REMARK    3  A    between atoms: C_9  and  C_10
REMARK    4  A    between atoms: N_12  and  C_13
REMARK    5  A    between atoms: C_16  and  C_17
REMARK    6  A    between atoms: C_18  and  N_19
REMARK    7  A    between atoms: C_22  and  C_23
REMARK    8  A    between atoms: C_25  and  C_26
REMARK                            x       y       z     vdW  Elec       q    Type
REMARK                         _______ _______ _______ _____ _____    ______ ____
ROOT
ATOM      1  C   UNL     1       6.874   6.765  16.744  0.00  0.00    +0.000 A 
ATOM      2  C   UNL     1       7.029   6.161  15.500  0.00  0.00    +0.000 A 
ATOM      3  C   UNL     1       6.495   4.896  15.247  0.00  0.00    +0.000 A 
ATOM      4  C   UNL     1       5.792   4.199  16.237  0.00  0.00    +0.000 A 
ATOM      5  C   UNL     1       5.326   2.801  15.935  0.00  0.00    +0.000 C 
ATOM      6  C   UNL     1       5.588   4.801  17.494  0.00  0.00    +0.000 A 
ATOM      7  C   UNL     1       6.152   6.078  17.724  0.00  0.00    +0.000 A 
ENDROOT
BRANCH   6   8
ATOM      8  N   UNL     1       4.903   4.111  18.509  0.00  0.00    +0.000 N 
ATOM      9  C   UNL     1       3.776   4.485  19.237  0.00  0.00    +0.000 A 
ATOM     10  N   UNL     1       3.274   3.604  20.111  0.00  0.00    +0.000 NA
ATOM     11  C   UNL     1       2.226   4.007  20.860  0.00  0.00    +0.000 A 
ATOM     12  C   UNL     1       1.643   3.020  21.826  0.00  0.00    +0.000 C 
ATOM     13  C   UNL     1       1.700   5.281  20.781  0.00  0.00    +0.000 A 
ATOM     14  C   UNL     1       2.282   6.132  19.869  0.00  0.00    +0.000 A 
ATOM     15  N   UNL     1       3.297   5.723  19.095  0.00  0.00    +0.000 NA
ATOM     16  H   UNL     1       5.345   3.313  18.935  0.00  0.00    +0.000 HD
BRANCH  14  17
ATOM     17  C   UNL     1       1.901   7.535  19.660  0.00  0.00    +0.000 A 
ATOM     18  C   UNL     1       1.256   8.312  20.628  0.00  0.00    +0.000 A 
ATOM     19  C   UNL     1       0.920   9.640  20.360  0.00  0.00    +0.000 A 
ATOM     20  C   UNL     1       1.233  10.161  19.117  0.00  0.00    +0.000 A 
ATOM     21  N   UNL     1       1.838   9.457  18.143  0.00  0.00    +0.000 NA
ATOM     22  C   UNL     1       2.156   8.172  18.438  0.00  0.00    +0.000 A 
ENDBRANCH  14  17
ENDBRANCH   6   8
BRANCH   1  25
ATOM     23  C   UNL     1       8.218   8.279  18.171  0.00  0.00    +0.000 C 
ATOM     24  O   UNL     1       8.623   7.444  18.970  0.00  0.00    +0.000 OA
ATOM     25  N   UNL     1       7.420   8.033  17.068  0.00  0.00    +0.000 N 
ATOM     26  H   UNL     1       7.304   8.769  16.383  0.00  0.00    +0.000 HD
BRANCH  23  30
ATOM     27  C   UNL     1       9.402  12.295  19.107  0.00  0.00    +0.000 A 
ATOM     28  C   UNL     1       9.740  11.212  19.917  0.00  0.00    +0.000 A 
ATOM     29  C   UNL     1       9.383   9.916  19.558  0.00  0.00    +0.000 A 
ATOM     30  C   UNL     1       8.683   9.671  18.375  0.00  0.00    +0.000 A 
ATOM     31  C   UNL     1       8.348  10.740  17.540  0.00  0.00    +0.000 A 
ATOM     32  C   UNL     1       8.699  12.053  17.913  0.00  0.00    +0.000 A 
BRANCH  27  35
ATOM     33  C   UNL     1      10.494  14.492  18.724  0.00  0.00    +0.000 C 
ATOM     34  O   UNL     1      10.939  14.289  17.600  0.00  0.00    +0.000 OA
ATOM     35  N   UNL     1       9.708  13.630  19.468  0.00  0.00    +0.000 N 
ATOM     36  H   UNL     1       9.286  13.978  20.317  0.00  0.00    +0.000 HD
BRANCH  33  38
ATOM     37  C   UNL     1      10.831  15.819  20.742  0.00  0.00    +0.000 C 
ATOM     38  C   UNL     1      10.756  15.791  19.404  0.00  0.00    +0.000 C 
ENDBRANCH  33  38
ENDBRANCH  27  35
ENDBRANCH  23  30
ENDBRANCH   1  25
TORSDOF 6
ENDMDL
MODEL 8
REMARK VINA RESULT:      -8.4      3.758      8.080
REMARK  Name = 
REMARK  8 active torsions:
REMARK  status: ('A' for Active; 'I' for Inactive)
REMARK    1  A    between atoms: C_2  and  C_3
REMARK    2  A    between atoms: N_5  and  C_6
REMARK    3  A    between atoms: C_9  and  C_10
REMARK    4  A    between atoms: N_12  and  C_13
REMARK    5  A    between atoms: C_16  and  C_17
REMARK    6  A    between atoms: C_18  and  N_19
REMARK    7  A    between atoms: C_22  and  C_23
REMARK    8  A    between atoms: C_25  and  C_26
REMARK                            x       y       z     vdW  Elec       q    Type
REMARK                         _______ _______ _______ _____ _____    ______ ____
ROOT
ATOM      1  C   UNL     1       1.937   5.086  20.435  0.00  0.00    +0.000 A 
ATOM      2  C   UNL     1       2.172   4.045  21.327  0.00  0.00    +0.000 A 
ATOM      3  C   UNL     1       2.790   2.867  20.906  0.00  0.00    +0.000 A 
ATOM      4  C   UNL     1       3.189   2.699  19.574  0.00  0.00    +0.000 A 
ATOM      5  C   UNL     1       3.761   1.371  19.160  0.00  0.00    +0.000 C 
ATOM      6  C   UNL     1       2.997   3.751  18.657  0.00  0.00    +0.000 A 
ATOM      7  C   UNL     1       2.356   4.926  19.112  0.00  0.00    +0.000 A 
ENDROOT
BRANCH   6   8
ATOM      8  N   UNL     1       3.371   3.596  17.310  0.00  0.00    +0.000 N 
ATOM      9  C   UNL     1       4.495   4.069  16.638  0.00  0.00    +0.000 A 
ATOM     10  N   UNL     1       4.651   3.719  15.355  0.00  0.00    +0.000 NA
ATOM     11  C   UNL     1       5.706   4.242  14.696  0.00  0.00    +0.000 A 
ATOM     12  C   UNL     1       5.902   3.838  13.265  0.00  0.00    +0.000 C 
ATOM     13  C   UNL     1       6.580   5.138  15.281  0.00  0.00    +0.000 A 
ATOM     14  C   UNL     1       6.342   5.458  16.598  0.00  0.00    +0.000 A 
ATOM     15  N   UNL     1       5.318   4.910  17.267  0.00  0.00    +0.000 NA
ATOM     16  H   UNL     1       2.686   3.260  16.653  0.00  0.00    +0.000 HD
BRANCH  14  17
ATOM     17  C   UNL     1       7.125   6.418  17.388  0.00  0.00    +0.000 A 
ATOM     18  C   UNL     1       7.772   6.087  18.584  0.00  0.00    +0.000 A 
ATOM     19  C   UNL     1       8.498   7.052  19.284  0.00  0.00    +0.000 A 
ATOM     20  C   UNL     1       8.554   8.336  18.773  0.00  0.00    +0.000 A 
ATOM     21  N   UNL     1       7.939   8.715  17.637  0.00  0.00    +0.000 NA
ATOM     22  C   UNL     1       7.248   7.752  16.978  0.00  0.00    +0.000 A 
ENDBRANCH  14  17
ENDBRANCH   6   8
BRANCH   1  25
ATOM     23  C   UNL     1       1.619   7.539  20.301  0.00  0.00    +0.000 C 
ATOM     24  O   UNL     1       2.456   7.772  19.437  0.00  0.00    +0.000 OA
ATOM     25  N   UNL     1       1.285   6.293  20.799  0.00  0.00    +0.000 N 
ATOM     26  H   UNL     1       0.455   6.208  21.371  0.00  0.00    +0.000 HD
BRANCH  23  30
ATOM     27  C   UNL     1      -0.335  11.124  21.620  0.00  0.00    +0.000 A 
ATOM     28  C   UNL     1      -0.009  10.903  20.283  0.00  0.00    +0.000 A 
ATOM     29  C   UNL     1       0.579   9.708  19.881  0.00  0.00    +0.000 A 
ATOM     30  C   UNL     1       0.851   8.701  20.808  0.00  0.00    +0.000 A 
ATOM     31  C   UNL     1       0.518   8.894  22.152  0.00  0.00    +0.000 A 
ATOM     32  C   UNL     1      -0.064  10.111  22.557  0.00  0.00    +0.000 A 
BRANCH  27  35
ATOM     33  C   UNL     1      -0.170  13.511  22.284  0.00  0.00    +0.000 C 
ATOM     34  O   UNL     1       1.010  13.703  22.012  0.00  0.00    +0.000 OA
ATOM     35  N   UNL     1      -0.888  12.348  22.068  0.00  0.00    +0.000 N 
ATOM     36  H   UNL     1      -1.890  12.371  22.202  0.00  0.00    +0.000 HD
BRANCH  33  38
ATOM     37  C   UNL     1      -1.817  14.324  23.889  0.00  0.00    +0.000 C 
ATOM     38  C   UNL     1      -0.984  14.608  22.878  0.00  0.00    +0.000 C 
ENDBRANCH  33  38
ENDBRANCH  27  35
ENDBRANCH  23  30
ENDBRANCH   1  25
TORSDOF 6
ENDMDL
MODEL 9
REMARK VINA RESULT:      -8.4      3.822      9.716
REMARK  Name = 
REMARK  8 active torsions:
REMARK  status: ('A' for Active; 'I' for Inactive)
REMARK    1  A    between atoms: C_2  and  C_3
REMARK    2  A    between atoms: N_5  and  C_6
REMARK    3  A    between atoms: C_9  and  C_10
REMARK    4  A    between atoms: N_12  and  C_13
REMARK    5  A    between atoms: C_16  and  C_17
REMARK    6  A    between atoms: C_18  and  N_19
REMARK    7  A    between atoms: C_22  and  C_23
REMARK    8  A    between atoms: C_25  and  C_26
REMARK                            x       y       z     vdW  Elec       q    Type
REMARK                         _______ _______ _______ _____ _____    ______ ____
ROOT
ATOM      1  C   UNL     1       9.582  10.403  19.281  0.00  0.00    +0.000 A 
ATOM      2  C   UNL     1      10.322  11.065  18.307  0.00  0.00    +0.000 A 
ATOM      3  C   UNL     1      10.857  12.331  18.551  0.00  0.00    +0.000 A 
ATOM      4  C   UNL     1      10.661  12.972  19.781  0.00  0.00    +0.000 A 
ATOM      5  C   UNL     1      11.179  14.374  19.948  0.00  0.00    +0.000 C 
ATOM      6  C   UNL     1       9.947  12.310  20.798  0.00  0.00    +0.000 A 
ATOM      7  C   UNL     1       9.407  11.034  20.516  0.00  0.00    +0.000 A 
ENDROOT
BRANCH   6   8
ATOM      8  N   UNL     1       9.721  12.943  22.034  0.00  0.00    +0.000 N 
ATOM      9  C   UNL     1       8.714  13.827  22.411  0.00  0.00    +0.000 A 
ATOM     10  N   UNL     1       8.686  14.237  23.685  0.00  0.00    +0.000 NA
ATOM     11  C   UNL     1       7.748  15.149  24.020  0.00  0.00    +0.000 A 
ATOM     12  C   UNL     1       7.694  15.598  25.450  0.00  0.00    +0.000 C 
ATOM     13  C   UNL     1       6.870  15.686  23.099  0.00  0.00    +0.000 A 
ATOM     14  C   UNL     1       6.973  15.223  21.807  0.00  0.00    +0.000 A 
ATOM     15  N   UNL     1       7.877  14.289  21.480  0.00  0.00    +0.000 NA
ATOM     16  H   UNL     1      10.456  12.935  22.722  0.00  0.00    +0.000 HD
BRANCH  14  17
ATOM     17  C   UNL     1       6.165  15.694  20.675  0.00  0.00    +0.000 A 
ATOM     18  C   UNL     1       5.159  14.929  20.074  0.00  0.00    +0.000 A 
ATOM     19  C   UNL     1       4.431  15.441  18.998  0.00  0.00    +0.000 A 
ATOM     20  C   UNL     1       4.734  16.711  18.540  0.00  0.00    +0.000 A 
ATOM     21  N   UNL     1       5.700  17.484  19.068  0.00  0.00    +0.000 NA
ATOM     22  C   UNL     1       6.384  16.960  20.116  0.00  0.00    +0.000 A 
ENDBRANCH  14  17
ENDBRANCH   6   8
BRANCH   1  25
ATOM     23  C   UNL     1       8.117   8.832  18.048  0.00  0.00    +0.000 C 
ATOM     24  O   UNL     1       7.794   9.582  17.135  0.00  0.00    +0.000 OA
ATOM     25  N   UNL     1       8.989   9.130  19.080  0.00  0.00    +0.000 N 
ATOM     26  H   UNL     1       9.319   8.375  19.666  0.00  0.00    +0.000 HD
BRANCH  23  30
ATOM     27  C   UNL     1       6.184   5.002  17.971  0.00  0.00    +0.000 A 
ATOM     28  C   UNL     1       5.806   6.044  17.125  0.00  0.00    +0.000 A 
ATOM     29  C   UNL     1       6.486   7.257  17.140  0.00  0.00    +0.000 A 
ATOM     30  C   UNL     1       7.568   7.456  18.001  0.00  0.00    +0.000 A 
ATOM     31  C   UNL     1       7.975   6.420  18.847  0.00  0.00    +0.000 A 
ATOM     32  C   UNL     1       7.274   5.198  18.837  0.00  0.00    +0.000 A 
BRANCH  27  35
ATOM     33  C   UNL     1       4.352   3.532  18.775  0.00  0.00    +0.000 C 
ATOM     34  O   UNL     1       3.719   4.357  19.425  0.00  0.00    +0.000 OA
ATOM     35  N   UNL     1       5.481   3.774  18.013  0.00  0.00    +0.000 N 
ATOM     36  H   UNL     1       5.819   3.037  17.409  0.00  0.00    +0.000 HD
BRANCH  33  38
ATOM     37  C   UNL     1       2.582   1.858  18.661  0.00  0.00    +0.000 C 
ATOM     38  C   UNL     1       3.896   2.115  18.727  0.00  0.00    +0.000 C 
ENDBRANCH  33  38
ENDBRANCH  27  35
ENDBRANCH  23  30
ENDBRANCH   1  25
TORSDOF 6
ENDMDL
