MODEL 1
REMARK VINA RESULT:      -7.5      0.000      0.000
REMARK  Name = 
REMARK  8 active torsions:
REMARK  status: ('A' for Active; 'I' for Inactive)
REMARK    1  A    between atoms: C_2  and  C_3
REMARK    2  A    between atoms: C_2  and  C_19
REMARK    3  A    between atoms: C_3  and  N_4
REMARK    4  A    between atoms: C_5  and  C_6
REMARK    5  A    between atoms: C_6  and  O_8
REMARK    6  A    between atoms: O_8  and  C_9
REMARK    7  A    between atoms: C_9  and  C_10
REMARK    8  A    between atoms: C_10  and  O_11
REMARK                            x       y       z     vdW  Elec       q    Type
REMARK                         _______ _______ _______ _____ _____    ______ ____
ROOT
ATOM      1  N   UNL     1       3.619   5.579  18.104  0.00  0.00    +0.000 N 
ATOM      2  C   UNL     1       4.426   5.156  17.054  0.00  0.00    +0.000 A 
ATOM      3  C   UNL     1       4.066   3.844  16.794  0.00  0.00    +0.000 A 
ATOM      4  C   UNL     1       3.013   3.470  17.659  0.00  0.00    +0.000 A 
ATOM      5  C   UNL     1       2.255   2.292  17.808  0.00  0.00    +0.000 A 
ATOM      6  C   UNL     1       1.244   2.243  18.769  0.00  0.00    +0.000 A 
ATOM      7  C   UNL     1       0.983   3.347  19.574  0.00  0.00    +0.000 A 
ATOM      8  C   UNL     1       1.724   4.527  19.442  0.00  0.00    +0.000 A 
ATOM      9  C   UNL     1       2.741   4.569  18.475  0.00  0.00    +0.000 A 
ENDROOT
BRANCH   2  10
ATOM     10  C   UNL     1       5.396   5.968  16.349  0.00  0.00    +0.000 C 
ATOM     11  O   UNL     1       5.151   6.777  15.466  0.00  0.00    +0.000 OA
BRANCH  10  12
ATOM     12  O   UNL     1       6.651   5.662  16.787  0.00  0.00    +0.000 OA
BRANCH  12  13
ATOM     13  C   UNL     1       7.288   6.664  17.600  0.00  0.00    +0.000 C 
BRANCH  13  14
ATOM     14  C   UNL     1       7.818   6.119  18.921  0.00  0.00    +0.000 C 
BRANCH  14  15
ATOM     15  O   UNL     1       6.918   5.166  19.479  0.00  0.00    +0.000 OA
ATOM     16  H   UNL     1       6.254   5.669  19.984  0.00  0.00    +0.000 HD
ENDBRANCH  14  15
ENDBRANCH  13  14
ENDBRANCH  12  13
ENDBRANCH  10  12
ENDBRANCH   2  10
BRANCH   1  17
ATOM     17  C   UNL     1       3.691   6.877  18.775  0.00  0.00    +0.000 C 
BRANCH  17  19
ATOM     18  O   UNL     1       2.630   8.225  17.067  0.00  0.00    +0.000 OA
ATOM     19  C   UNL     1       2.695   7.894  18.250  0.00  0.00    +0.000 C 
BRANCH  19  20
ATOM     20  C   UNL     1       1.724   8.498  19.221  0.00  0.00    +0.000 A 
ATOM     21  C   UNL     1       0.934   9.576  18.797  0.00  0.00    +0.000 A 
ATOM     22  C   UNL     1      -0.011  10.146  19.653  0.00  0.00    +0.000 A 
ATOM     23  C   UNL     1      -0.167   9.651  20.946  0.00  0.00    +0.000 A 
ATOM     24  C   UNL     1       0.623   8.591  21.384  0.00  0.00    +0.000 A 
ATOM     25  C   UNL     1       1.568   8.013  20.528  0.00  0.00    +0.000 A 
ENDBRANCH  19  20
ENDBRANCH  17  19
ENDBRANCH   1  17
TORSDOF 8
ENDMDL
MODEL 2
REMARK VINA RESULT:      -7.3      0.517      1.127
REMARK  Name = 
REMARK  8 active torsions:
REMARK  status: ('A' for Active; 'I' for Inactive)
REMARK    1  A    between atoms: C_2  and  C_3
REMARK    2  A    between atoms: C_2  and  C_19
REMARK    3  A    between atoms: C_3  and  N_4
REMARK    4  A    between atoms: C_5  and  C_6
REMARK    5  A    between atoms: C_6  and  O_8
REMARK    6  A    between atoms: O_8  and  C_9
REMARK    7  A    between atoms: C_9  and  C_10
REMARK    8  A    between atoms: C_10  and  O_11
REMARK                            x       y       z     vdW  Elec       q    Type
REMARK                         _______ _______ _______ _____ _____    ______ ____
ROOT
ATOM      1  N   UNL     1       3.761   5.453  18.118  0.00  0.00    +0.000 N 
ATOM      2  C   UNL     1       4.643   4.973  17.157  0.00  0.00    +0.000 A 
ATOM      3  C   UNL     1       4.261   3.666  16.900  0.00  0.00    +0.000 A 
ATOM      4  C   UNL     1       3.123   3.352  17.677  0.00  0.00    +0.000 A 
ATOM      5  C   UNL     1       2.314   2.205  17.789  0.00  0.00    +0.000 A 
ATOM      6  C   UNL     1       1.221   2.218  18.658  0.00  0.00    +0.000 A 
ATOM      7  C   UNL     1       0.929   3.352  19.407  0.00  0.00    +0.000 A 
ATOM      8  C   UNL     1       1.720   4.504  19.310  0.00  0.00    +0.000 A 
ATOM      9  C   UNL     1       2.820   4.484  18.436  0.00  0.00    +0.000 A 
ENDROOT
BRANCH   2  10
ATOM     10  C   UNL     1       5.699   5.731  16.519  0.00  0.00    +0.000 C 
ATOM     11  O   UNL     1       5.566   6.794  15.929  0.00  0.00    +0.000 OA
BRANCH  10  12
ATOM     12  O   UNL     1       6.878   5.056  16.633  0.00  0.00    +0.000 OA
BRANCH  12  13
ATOM     13  C   UNL     1       7.280   4.727  17.975  0.00  0.00    +0.000 C 
BRANCH  13  14
ATOM     14  C   UNL     1       7.650   5.948  18.809  0.00  0.00    +0.000 C 
BRANCH  14  15
ATOM     15  O   UNL     1       7.818   5.599  20.180  0.00  0.00    +0.000 OA
ATOM     16  H   UNL     1       8.769   5.434  20.314  0.00  0.00    +0.000 HD
ENDBRANCH  14  15
ENDBRANCH  13  14
ENDBRANCH  12  13
ENDBRANCH  10  12
ENDBRANCH   2  10
BRANCH   1  17
ATOM     17  C   UNL     1       3.820   6.768  18.759  0.00  0.00    +0.000 C 
BRANCH  17  19
ATOM     18  O   UNL     1       2.812   8.083  16.993  0.00  0.00    +0.000 OA
ATOM     19  C   UNL     1       2.840   7.773  18.183  0.00  0.00    +0.000 C 
BRANCH  19  20
ATOM     20  C   UNL     1       1.836   8.391  19.112  0.00  0.00    +0.000 A 
ATOM     21  C   UNL     1       1.723   7.880  20.413  0.00  0.00    +0.000 A 
ATOM     22  C   UNL     1       0.831   8.448  21.326  0.00  0.00    +0.000 A 
ATOM     23  C   UNL     1       0.034   9.525  20.941  0.00  0.00    +0.000 A 
ATOM     24  C   UNL     1       0.126  10.030  19.647  0.00  0.00    +0.000 A 
ATOM     25  C   UNL     1       1.023   9.468  18.731  0.00  0.00    +0.000 A 
ENDBRANCH  19  20
ENDBRANCH  17  19
ENDBRANCH   1  17
TORSDOF 8
ENDMDL
MODEL 3
REMARK VINA RESULT:      -7.3      2.326      6.235
REMARK  Name = 
REMARK  8 active torsions:
REMARK  status: ('A' for Active; 'I' for Inactive)
REMARK    1  A    between atoms: C_2  and  C_3
REMARK    2  A    between atoms: C_2  and  C_19
REMARK    3  A    between atoms: C_3  and  N_4
REMARK    4  A    between atoms: C_5  and  C_6
REMARK    5  A    between atoms: C_6  and  O_8
REMARK    6  A    between atoms: O_8  and  C_9
REMARK    7  A    between atoms: C_9  and  C_10
REMARK    8  A    between atoms: C_10  and  O_11
REMARK                            x       y       z     vdW  Elec       q    Type
REMARK                         _______ _______ _______ _____ _____    ______ ____
ROOT
ATOM      1  N   UNL     1       2.322   6.162  19.132  0.00  0.00    +0.000 N 
ATOM      2  C   UNL     1       1.850   5.830  20.397  0.00  0.00    +0.000 A 
ATOM      3  C   UNL     1       1.387   7.010  20.958  0.00  0.00    +0.000 A 
ATOM      4  C   UNL     1       1.541   8.060  20.025  0.00  0.00    +0.000 A 
ATOM      5  C   UNL     1       1.216   9.431  20.049  0.00  0.00    +0.000 A 
ATOM      6  C   UNL     1       1.487  10.220  18.930  0.00  0.00    +0.000 A 
ATOM      7  C   UNL     1       2.070   9.661  17.798  0.00  0.00    +0.000 A 
ATOM      8  C   UNL     1       2.400   8.301  17.753  0.00  0.00    +0.000 A 
ATOM      9  C   UNL     1       2.128   7.513  18.883  0.00  0.00    +0.000 A 
ENDROOT
BRANCH   2  10
ATOM     10  C   UNL     1       1.803   4.499  20.964  0.00  0.00    +0.000 C 
ATOM     11  O   UNL     1       2.553   4.055  21.821  0.00  0.00    +0.000 OA
BRANCH  10  12
ATOM     12  O   UNL     1       0.813   3.780  20.360  0.00  0.00    +0.000 OA
BRANCH  12  13
ATOM     13  C   UNL     1       1.128   2.407  20.071  0.00  0.00    +0.000 C 
BRANCH  13  14
ATOM     14  C   UNL     1       1.266   2.122  18.580  0.00  0.00    +0.000 C 
BRANCH  14  15
ATOM     15  O   UNL     1       2.544   1.569  18.280  0.00  0.00    +0.000 OA
ATOM     16  H   UNL     1       2.387   0.683  17.907  0.00  0.00    +0.000 HD
ENDBRANCH  14  15
ENDBRANCH  13  14
ENDBRANCH  12  13
ENDBRANCH  10  12
ENDBRANCH   2  10
BRANCH   1  17
ATOM     17  C   UNL     1       2.978   5.250  18.193  0.00  0.00    +0.000 C 
BRANCH  17  19
ATOM     18  O   UNL     1       4.473   3.650  19.225  0.00  0.00    +0.000 OA
ATOM     19  C   UNL     1       4.323   4.740  18.674  0.00  0.00    +0.000 C 
BRANCH  19  20
ATOM     20  C   UNL     1       5.530   5.597  18.434  0.00  0.00    +0.000 A 
ATOM     21  C   UNL     1       6.664   5.399  19.235  0.00  0.00    +0.000 A 
ATOM     22  C   UNL     1       7.825   6.146  19.024  0.00  0.00    +0.000 A 
ATOM     23  C   UNL     1       7.860   7.108  18.016  0.00  0.00    +0.000 A 
ATOM     24  C   UNL     1       6.735   7.325  17.224  0.00  0.00    +0.000 A 
ATOM     25  C   UNL     1       5.570   6.574  17.429  0.00  0.00    +0.000 A 
ENDBRANCH  19  20
ENDBRANCH  17  19
ENDBRANCH   1  17
TORSDOF 8
ENDMDL
MODEL 4
REMARK VINA RESULT:      -7.2      2.334      5.016
REMARK  Name = 
REMARK  8 active torsions:
REMARK  status: ('A' for Active; 'I' for Inactive)
REMARK    1  A    between atoms: C_2  and  C_3
REMARK    2  A    between atoms: C_2  and  C_19
REMARK    3  A    between atoms: C_3  and  N_4
REMARK    4  A    between atoms: C_5  and  C_6
REMARK    5  A    between atoms: C_6  and  O_8
REMARK    6  A    between atoms: O_8  and  C_9
REMARK    7  A    between atoms: C_9  and  C_10
REMARK    8  A    between atoms: C_10  and  O_11
REMARK                            x       y       z     vdW  Elec       q    Type
REMARK                         _______ _______ _______ _____ _____    ______ ____
ROOT
ATOM      1  N   UNL     1       4.876   5.279  17.797  0.00  0.00    +0.000 N 
ATOM      2  C   UNL     1       5.436   5.766  16.622  0.00  0.00    +0.000 A 
ATOM      3  C   UNL     1       4.782   6.957  16.348  0.00  0.00    +0.000 A 
ATOM      4  C   UNL     1       3.845   7.220  17.372  0.00  0.00    +0.000 A 
ATOM      5  C   UNL     1       2.951   8.281  17.616  0.00  0.00    +0.000 A 
ATOM      6  C   UNL     1       2.149   8.253  18.759  0.00  0.00    +0.000 A 
ATOM      7  C   UNL     1       2.231   7.190  19.652  0.00  0.00    +0.000 A 
ATOM      8  C   UNL     1       3.114   6.127  19.428  0.00  0.00    +0.000 A 
ATOM      9  C   UNL     1       3.916   6.159  18.276  0.00  0.00    +0.000 A 
ENDROOT
BRANCH   2  10
ATOM     10  C   UNL     1       6.529   5.163  15.889  0.00  0.00    +0.000 C 
ATOM     11  O   UNL     1       7.603   4.812  16.356  0.00  0.00    +0.000 OA
BRANCH  10  12
ATOM     12  O   UNL     1       6.202   5.083  14.567  0.00  0.00    +0.000 OA
BRANCH  12  13
ATOM     13  C   UNL     1       6.053   3.751  14.042  0.00  0.00    +0.000 C 
BRANCH  13  14
ATOM     14  C   UNL     1       6.397   3.646  12.561  0.00  0.00    +0.000 C 
BRANCH  14  15
ATOM     15  O   UNL     1       6.044   2.366  12.044  0.00  0.00    +0.000 OA
ATOM     16  H   UNL     1       6.870   1.949  11.737  0.00  0.00    +0.000 HD
ENDBRANCH  14  15
ENDBRANCH  13  14
ENDBRANCH  12  13
ENDBRANCH  10  12
ENDBRANCH   2  10
BRANCH   1  17
ATOM     17  C   UNL     1       5.196   4.002  18.437  0.00  0.00    +0.000 C 
BRANCH  17  19
ATOM     18  O   UNL     1       4.024   2.155  17.398  0.00  0.00    +0.000 OA
ATOM     19  C   UNL     1       4.095   2.966  18.321  0.00  0.00    +0.000 C 
BRANCH  19  20
ATOM     20  C   UNL     1       3.061   2.911  19.407  0.00  0.00    +0.000 A 
ATOM     21  C   UNL     1       1.709   3.037  19.054  0.00  0.00    +0.000 A 
ATOM     22  C   UNL     1       0.708   2.954  20.024  0.00  0.00    +0.000 A 
ATOM     23  C   UNL     1       1.050   2.755  21.361  0.00  0.00    +0.000 A 
ATOM     24  C   UNL     1       2.389   2.644  21.726  0.00  0.00    +0.000 A 
ATOM     25  C   UNL     1       3.396   2.721  20.755  0.00  0.00    +0.000 A 
ENDBRANCH  19  20
ENDBRANCH  17  19
ENDBRANCH   1  17
TORSDOF 8
ENDMDL
MODEL 5
REMARK VINA RESULT:      -7.2      2.292      5.023
REMARK  Name = 
REMARK  8 active torsions:
REMARK  status: ('A' for Active; 'I' for Inactive)
REMARK    1  A    between atoms: C_2  and  C_3
REMARK    2  A    between atoms: C_2  and  C_19
REMARK    3  A    between atoms: C_3  and  N_4
REMARK    4  A    between atoms: C_5  and  C_6
REMARK    5  A    between atoms: C_6  and  O_8
REMARK    6  A    between atoms: O_8  and  C_9
REMARK    7  A    between atoms: C_9  and  C_10
REMARK    8  A    between atoms: C_10  and  O_11
REMARK                            x       y       z     vdW  Elec       q    Type
REMARK                         _______ _______ _______ _____ _____    ______ ____
ROOT
ATOM      1  N   UNL     1       4.851   5.301  17.803  0.00  0.00    +0.000 N 
ATOM      2  C   UNL     1       5.385   5.770  16.608  0.00  0.00    +0.000 A 
ATOM      3  C   UNL     1       4.715   6.949  16.322  0.00  0.00    +0.000 A 
ATOM      4  C   UNL     1       3.794   7.224  17.359  0.00  0.00    +0.000 A 
ATOM      5  C   UNL     1       2.895   8.281  17.599  0.00  0.00    +0.000 A 
ATOM      6  C   UNL     1       2.115   8.269  18.756  0.00  0.00    +0.000 A 
ATOM      7  C   UNL     1       2.224   7.225  19.669  0.00  0.00    +0.000 A 
ATOM      8  C   UNL     1       3.112   6.165  19.450  0.00  0.00    +0.000 A 
ATOM      9  C   UNL     1       3.892   6.182  18.282  0.00  0.00    +0.000 A 
ENDROOT
BRANCH   2  10
ATOM     10  C   UNL     1       6.470   5.162  15.866  0.00  0.00    +0.000 C 
ATOM     11  O   UNL     1       7.602   5.607  15.753  0.00  0.00    +0.000 OA
BRANCH  10  12
ATOM     12  O   UNL     1       6.026   4.023  15.261  0.00  0.00    +0.000 OA
BRANCH  12  13
ATOM     13  C   UNL     1       5.449   4.197  13.954  0.00  0.00    +0.000 C 
BRANCH  13  14
ATOM     14  C   UNL     1       6.237   3.500  12.851  0.00  0.00    +0.000 C 
BRANCH  14  15
ATOM     15  O   UNL     1       7.199   4.379  12.276  0.00  0.00    +0.000 OA
ATOM     16  H   UNL     1       7.170   4.237  11.313  0.00  0.00    +0.000 HD
ENDBRANCH  14  15
ENDBRANCH  13  14
ENDBRANCH  12  13
ENDBRANCH  10  12
ENDBRANCH   2  10
BRANCH   1  17
ATOM     17  C   UNL     1       5.196   4.040  18.462  0.00  0.00    +0.000 C 
BRANCH  17  19
ATOM     18  O   UNL     1       4.151   2.132  17.399  0.00  0.00    +0.000 OA
ATOM     19  C   UNL     1       4.141   2.961  18.308  0.00  0.00    +0.000 C 
BRANCH  19  20
ATOM     20  C   UNL     1       3.052   2.886  19.338  0.00  0.00    +0.000 A 
ATOM     21  C   UNL     1       3.411   2.692  20.680  0.00  0.00    +0.000 A 
ATOM     22  C   UNL     1       2.436   2.654  21.679  0.00  0.00    +0.000 A 
ATOM     23  C   UNL     1       1.090   2.798  21.344  0.00  0.00    +0.000 A 
ATOM     24  C   UNL     1       0.721   2.975  20.014  0.00  0.00    +0.000 A 
ATOM     25  C   UNL     1       1.696   3.019  19.009  0.00  0.00    +0.000 A 
ENDBRANCH  19  20
ENDBRANCH  17  19
ENDBRANCH   1  17
TORSDOF 8
ENDMDL
MODEL 6
REMARK VINA RESULT:      -7.1      1.684      2.399
REMARK  Name = 
REMARK  8 active torsions:
REMARK  status: ('A' for Active; 'I' for Inactive)
REMARK    1  A    between atoms: C_2  and  C_3
REMARK    2  A    between atoms: C_2  and  C_19
REMARK    3  A    between atoms: C_3  and  N_4
REMARK    4  A    between atoms: C_5  and  C_6
REMARK    5  A    between atoms: C_6  and  O_8
REMARK    6  A    between atoms: O_8  and  C_9
REMARK    7  A    between atoms: C_9  and  C_10
REMARK    8  A    between atoms: C_10  and  O_11
REMARK                            x       y       z     vdW  Elec       q    Type
REMARK                         _______ _______ _______ _____ _____    ______ ____
ROOT
ATOM      1  N   UNL     1       3.449   4.613  18.416  0.00  0.00    +0.000 N 
ATOM      2  C   UNL     1       4.754   4.134  18.449  0.00  0.00    +0.000 A 
ATOM      3  C   UNL     1       4.815   3.253  19.516  0.00  0.00    +0.000 A 
ATOM      4  C   UNL     1       3.540   3.161  20.118  0.00  0.00    +0.000 A 
ATOM      5  C   UNL     1       3.030   2.408  21.193  0.00  0.00    +0.000 A 
ATOM      6  C   UNL     1       1.683   2.532  21.540  0.00  0.00    +0.000 A 
ATOM      7  C   UNL     1       0.849   3.390  20.831  0.00  0.00    +0.000 A 
ATOM      8  C   UNL     1       1.336   4.147  19.759  0.00  0.00    +0.000 A 
ATOM      9  C   UNL     1       2.692   4.019  19.416  0.00  0.00    +0.000 A 
ENDROOT
BRANCH   2  10
ATOM     10  C   UNL     1       5.802   4.460  17.504  0.00  0.00    +0.000 C 
ATOM     11  O   UNL     1       6.679   5.296  17.662  0.00  0.00    +0.000 OA
BRANCH  10  12
ATOM     12  O   UNL     1       5.640   3.718  16.370  0.00  0.00    +0.000 OA
BRANCH  12  13
ATOM     13  C   UNL     1       5.433   4.468  15.160  0.00  0.00    +0.000 C 
BRANCH  13  14
ATOM     14  C   UNL     1       6.665   4.518  14.265  0.00  0.00    +0.000 C 
BRANCH  14  15
ATOM     15  O   UNL     1       7.684   5.329  14.843  0.00  0.00    +0.000 OA
ATOM     16  H   UNL     1       8.218   4.746  15.412  0.00  0.00    +0.000 HD
ENDBRANCH  14  15
ENDBRANCH  13  14
ENDBRANCH  12  13
ENDBRANCH  10  12
ENDBRANCH   2  10
BRANCH   1  17
ATOM     17  C   UNL     1       2.930   5.631  17.502  0.00  0.00    +0.000 C 
BRANCH  17  19
ATOM     18  O   UNL     1       4.405   7.551  17.498  0.00  0.00    +0.000 OA
ATOM     19  C   UNL     1       3.344   7.045  17.862  0.00  0.00    +0.000 C 
BRANCH  19  20
ATOM     20  C   UNL     1       2.394   7.874  18.676  0.00  0.00    +0.000 A 
ATOM     21  C   UNL     1       1.766   8.969  18.064  0.00  0.00    +0.000 A 
ATOM     22  C   UNL     1       0.844   9.747  18.769  0.00  0.00    +0.000 A 
ATOM     23  C   UNL     1       0.552   9.444  20.098  0.00  0.00    +0.000 A 
ATOM     24  C   UNL     1       1.181   8.370  20.721  0.00  0.00    +0.000 A 
ATOM     25  C   UNL     1       2.101   7.583  20.016  0.00  0.00    +0.000 A 
ENDBRANCH  19  20
ENDBRANCH  17  19
ENDBRANCH   1  17
TORSDOF 8
ENDMDL
MODEL 7
REMARK VINA RESULT:      -7.0      1.748      2.681
REMARK  Name = 
REMARK  8 active torsions:
REMARK  status: ('A' for Active; 'I' for Inactive)
REMARK    1  A    between atoms: C_2  and  C_3
REMARK    2  A    between atoms: C_2  and  C_19
REMARK    3  A    between atoms: C_3  and  N_4
REMARK    4  A    between atoms: C_5  and  C_6
REMARK    5  A    between atoms: C_6  and  O_8
REMARK    6  A    between atoms: O_8  and  C_9
REMARK    7  A    between atoms: C_9  and  C_10
REMARK    8  A    between atoms: C_10  and  O_11
REMARK                            x       y       z     vdW  Elec       q    Type
REMARK                         _______ _______ _______ _____ _____    ______ ____
ROOT
ATOM      1  N   UNL     1       3.437   4.529  18.458  0.00  0.00    +0.000 N 
ATOM      2  C   UNL     1       4.735   4.034  18.495  0.00  0.00    +0.000 A 
ATOM      3  C   UNL     1       4.791   3.177  19.583  0.00  0.00    +0.000 A 
ATOM      4  C   UNL     1       3.518   3.117  20.194  0.00  0.00    +0.000 A 
ATOM      5  C   UNL     1       3.004   2.397  21.291  0.00  0.00    +0.000 A 
ATOM      6  C   UNL     1       1.662   2.548  21.642  0.00  0.00    +0.000 A 
ATOM      7  C   UNL     1       0.835   3.400  20.917  0.00  0.00    +0.000 A 
ATOM      8  C   UNL     1       1.325   4.124  19.824  0.00  0.00    +0.000 A 
ATOM      9  C   UNL     1       2.678   3.970  19.477  0.00  0.00    +0.000 A 
ENDROOT
BRANCH   2  10
ATOM     10  C   UNL     1       5.781   4.322  17.536  0.00  0.00    +0.000 C 
ATOM     11  O   UNL     1       6.859   4.842  17.783  0.00  0.00    +0.000 OA
BRANCH  10  12
ATOM     12  O   UNL     1       5.366   3.964  16.287  0.00  0.00    +0.000 OA
BRANCH  12  13
ATOM     13  C   UNL     1       5.655   4.909  15.241  0.00  0.00    +0.000 C 
BRANCH  13  14
ATOM     14  C   UNL     1       6.811   4.479  14.345  0.00  0.00    +0.000 C 
BRANCH  14  15
ATOM     15  O   UNL     1       7.768   5.525  14.206  0.00  0.00    +0.000 OA
ATOM     16  H   UNL     1       7.439   6.278  14.732  0.00  0.00    +0.000 HD
ENDBRANCH  14  15
ENDBRANCH  13  14
ENDBRANCH  12  13
ENDBRANCH  10  12
ENDBRANCH   2  10
BRANCH   1  17
ATOM     17  C   UNL     1       2.925   5.532  17.523  0.00  0.00    +0.000 C 
BRANCH  17  19
ATOM     18  O   UNL     1       4.475   7.392  17.544  0.00  0.00    +0.000 OA
ATOM     19  C   UNL     1       3.367   6.948  17.842  0.00  0.00    +0.000 C 
BRANCH  19  20
ATOM     20  C   UNL     1       2.387   7.855  18.525  0.00  0.00    +0.000 A 
ATOM     21  C   UNL     1       2.096   7.631  19.879  0.00  0.00    +0.000 A 
ATOM     22  C   UNL     1       1.220   8.473  20.568  0.00  0.00    +0.000 A 
ATOM     23  C   UNL     1       0.617   9.541  19.906  0.00  0.00    +0.000 A 
ATOM     24  C   UNL     1       0.885   9.764  18.558  0.00  0.00    +0.000 A 
ATOM     25  C   UNL     1       1.767   8.926  17.865  0.00  0.00    +0.000 A 
ENDBRANCH  19  20
ENDBRANCH  17  19
ENDBRANCH   1  17
TORSDOF 8
ENDMDL
MODEL 8
REMARK VINA RESULT:      -6.9      1.496      1.748
REMARK  Name = 
REMARK  8 active torsions:
REMARK  status: ('A' for Active; 'I' for Inactive)
REMARK    1  A    between atoms: C_2  and  C_3
REMARK    2  A    between atoms: C_2  and  C_19
REMARK    3  A    between atoms: C_3  and  N_4
REMARK    4  A    between atoms: C_5  and  C_6
REMARK    5  A    between atoms: C_6  and  O_8
REMARK    6  A    between atoms: O_8  and  C_9
REMARK    7  A    between atoms: C_9  and  C_10
REMARK    8  A    between atoms: C_10  and  O_11
REMARK                            x       y       z     vdW  Elec       q    Type
REMARK                         _______ _______ _______ _____ _____    ______ ____
ROOT
ATOM      1  N   UNL     1       3.236   4.574  18.363  0.00  0.00    +0.000 N 
ATOM      2  C   UNL     1       4.498   4.021  18.184  0.00  0.00    +0.000 A 
ATOM      3  C   UNL     1       4.673   3.114  19.217  0.00  0.00    +0.000 A 
ATOM      4  C   UNL     1       3.505   3.083  20.011  0.00  0.00    +0.000 A 
ATOM      5  C   UNL     1       3.125   2.337  21.144  0.00  0.00    +0.000 A 
ATOM      6  C   UNL     1       1.860   2.531  21.701  0.00  0.00    +0.000 A 
ATOM      7  C   UNL     1       0.978   3.451  21.143  0.00  0.00    +0.000 A 
ATOM      8  C   UNL     1       1.336   4.201  20.017  0.00  0.00    +0.000 A 
ATOM      9  C   UNL     1       2.611   4.004  19.463  0.00  0.00    +0.000 A 
ENDROOT
BRANCH   2  10
ATOM     10  C   UNL     1       5.402   4.306  17.089  0.00  0.00    +0.000 C 
ATOM     11  O   UNL     1       5.458   3.704  16.026  0.00  0.00    +0.000 OA
BRANCH  10  12
ATOM     12  O   UNL     1       6.231   5.333  17.437  0.00  0.00    +0.000 OA
BRANCH  12  13
ATOM     13  C   UNL     1       7.557   4.951  17.844  0.00  0.00    +0.000 C 
BRANCH  13  14
ATOM     14  C   UNL     1       8.059   5.725  19.058  0.00  0.00    +0.000 C 
BRANCH  14  15
ATOM     15  O   UNL     1       7.338   5.359  20.231  0.00  0.00    +0.000 OA
ATOM     16  H   UNL     1       6.559   4.853  19.936  0.00  0.00    +0.000 HD
ENDBRANCH  14  15
ENDBRANCH  13  14
ENDBRANCH  12  13
ENDBRANCH  10  12
ENDBRANCH   2  10
BRANCH   1  17
ATOM     17  C   UNL     1       2.642   5.641  17.556  0.00  0.00    +0.000 C 
BRANCH  17  19
ATOM     18  O   UNL     1       4.200   7.494  17.534  0.00  0.00    +0.000 OA
ATOM     19  C   UNL     1       3.128   7.030  17.923  0.00  0.00    +0.000 C 
BRANCH  19  20
ATOM     20  C   UNL     1       2.240   7.887  18.775  0.00  0.00    +0.000 A 
ATOM     21  C   UNL     1       1.617   8.999  18.188  0.00  0.00    +0.000 A 
ATOM     22  C   UNL     1       0.751   9.804  18.931  0.00  0.00    +0.000 A 
ATOM     23  C   UNL     1       0.507   9.512  20.272  0.00  0.00    +0.000 A 
ATOM     24  C   UNL     1       1.132   8.421  20.869  0.00  0.00    +0.000 A 
ATOM     25  C   UNL     1       1.997   7.607  20.127  0.00  0.00    +0.000 A 
ENDBRANCH  19  20
ENDBRANCH  17  19
ENDBRANCH   1  17
TORSDOF 8
ENDMDL
MODEL 9
REMARK VINA RESULT:      -6.9      1.384      2.339
REMARK  Name = 
REMARK  8 active torsions:
REMARK  status: ('A' for Active; 'I' for Inactive)
REMARK    1  A    between atoms: C_2  and  C_3
REMARK    2  A    between atoms: C_2  and  C_19
REMARK    3  A    between atoms: C_3  and  N_4
REMARK    4  A    between atoms: C_5  and  C_6
REMARK    5  A    between atoms: C_6  and  O_8
REMARK    6  A    between atoms: O_8  and  C_9
REMARK    7  A    between atoms: C_9  and  C_10
REMARK    8  A    between atoms: C_10  and  O_11
REMARK                            x       y       z     vdW  Elec       q    Type
REMARK                         _______ _______ _______ _____ _____    ______ ____
ROOT
ATOM      1  N   UNL     1       3.810   4.822  18.442  0.00  0.00    +0.000 N 
ATOM      2  C   UNL     1       4.595   4.027  17.614  0.00  0.00    +0.000 A 
ATOM      3  C   UNL     1       3.979   2.786  17.573  0.00  0.00    +0.000 A 
ATOM      4  C   UNL     1       2.797   2.828  18.345  0.00  0.00    +0.000 A 
ATOM      5  C   UNL     1       1.787   1.884  18.620  0.00  0.00    +0.000 A 
ATOM      6  C   UNL     1       0.709   2.249  19.428  0.00  0.00    +0.000 A 
ATOM      7  C   UNL     1       0.627   3.533  19.957  0.00  0.00    +0.000 A 
ATOM      8  C   UNL     1       1.619   4.486  19.694  0.00  0.00    +0.000 A 
ATOM      9  C   UNL     1       2.702   4.112  18.883  0.00  0.00    +0.000 A 
ENDROOT
BRANCH   2  10
ATOM     10  C   UNL     1       5.779   4.456  16.900  0.00  0.00    +0.000 C 
ATOM     11  O   UNL     1       6.921   4.458  17.335  0.00  0.00    +0.000 OA
BRANCH  10  12
ATOM     12  O   UNL     1       5.426   4.910  15.663  0.00  0.00    +0.000 OA
BRANCH  12  13
ATOM     13  C   UNL     1       5.840   4.089  14.556  0.00  0.00    +0.000 C 
BRANCH  13  14
ATOM     14  C   UNL     1       7.063   4.635  13.827  0.00  0.00    +0.000 C 
BRANCH  14  15
ATOM     15  O   UNL     1       7.737   5.609  14.619  0.00  0.00    +0.000 OA
ATOM     16  H   UNL     1       7.083   6.299  14.832  0.00  0.00    +0.000 HD
ENDBRANCH  14  15
ENDBRANCH  13  14
ENDBRANCH  12  13
ENDBRANCH  10  12
ENDBRANCH   2  10
BRANCH   1  17
ATOM     17  C   UNL     1       4.106   6.196  18.847  0.00  0.00    +0.000 C 
BRANCH  17  19
ATOM     18  O   UNL     1       3.767   7.421  16.786  0.00  0.00    +0.000 OA
ATOM     19  C   UNL     1       3.460   7.248  17.965  0.00  0.00    +0.000 C 
BRANCH  19  20
ATOM     20  C   UNL     1       2.370   8.092  18.557  0.00  0.00    +0.000 A 
ATOM     21  C   UNL     1       2.036   7.907  19.906  0.00  0.00    +0.000 A 
ATOM     22  C   UNL     1       1.055   8.696  20.512  0.00  0.00    +0.000 A 
ATOM     23  C   UNL     1       0.389   9.669  19.769  0.00  0.00    +0.000 A 
ATOM     24  C   UNL     1       0.700   9.851  18.425  0.00  0.00    +0.000 A 
ATOM     25  C   UNL     1       1.687   9.066  17.815  0.00  0.00    +0.000 A 
ENDBRANCH  19  20
ENDBRANCH  17  19
ENDBRANCH   1  17
TORSDOF 8
ENDMDL
