MODEL 1
REMARK VINA RESULT:      -7.3      0.000      0.000
REMARK  Name = 
REMARK  5 active torsions:
REMARK  status: ('A' for Active; 'I' for Inactive)
REMARK    1  A    between atoms: C_1  and  C_2
REMARK    2  A    between atoms: C_2  and  S_3
REMARK    3  A    between atoms: S_3  and  C_4
REMARK    4  A    between atoms: C_9  and  C_10
REMARK    5  A    between atoms: C_13  and  C_14
REMARK                            x       y       z     vdW  Elec       q    Type
REMARK                         _______ _______ _______ _____ _____    ______ ____
ROOT
ATOM      1  C   UNL     1       3.423   3.925  20.155  0.00  0.00    +0.000 C 
ATOM      2  O   UNL     1       4.299   3.077  20.058  0.00  0.00    +0.000 OA
ATOM      3  N   UNL     1       3.266   5.071  19.339  0.00  0.00    +0.000 N 
ATOM      4  C   UNL     1       2.379   6.136  19.815  0.00  0.00    +0.000 C 
ATOM      5  C   UNL     1       2.446   7.392  19.068  0.00  0.00    +0.000 A 
ATOM      6  C   UNL     1       1.844   8.612  19.290  0.00  0.00    +0.000 A 
ATOM      7  N   UNL     1       2.169   9.488  18.282  0.00  0.00    +0.000 NA
ATOM      8  C   UNL     1       2.956   8.803  17.475  0.00  0.00    +0.000 A 
ATOM      9  N   UNL     1       3.170   7.523  17.924  0.00  0.00    +0.000 N 
ATOM     10  C   UNL     1       3.937   6.476  17.387  0.00  0.00    +0.000 A 
ATOM     11  C   UNL     1       4.638   6.669  16.184  0.00  0.00    +0.000 A 
ATOM     12  C   UNL     1       5.376   5.623  15.640  0.00  0.00    +0.000 A 
ATOM     13  C   UNL     1       5.402   4.395  16.287  0.00  0.00    +0.000 A 
ATOM     14  C   UNL     1       4.709   4.212  17.491  0.00  0.00    +0.000 A 
ATOM     15  C   UNL     1       3.974   5.249  18.088  0.00  0.00    +0.000 A 
ENDROOT
BRANCH   6  16
ATOM     16  C   UNL     1       0.967   8.968  20.413  0.00  0.00    +0.000 A 
ATOM     17  N   UNL     1       0.315   8.111  21.206  0.00  0.00    +0.000 NA
ATOM     18  O   UNL     1      -0.357   8.952  22.099  0.00  0.00    +0.000 OA
ATOM     19  C   UNL     1      -0.043  10.236  21.745  0.00  0.00    +0.000 A 
ATOM     20  N   UNL     1       0.768  10.297  20.714  0.00  0.00    +0.000 NA
BRANCH  19  21
ATOM     21  C   UNL     1      -0.584  11.458  22.476  0.00  0.00    +0.000 C 
ATOM     22  C   UNL     1      -1.837  12.129  21.946  0.00  0.00    +0.000 C 
ATOM     23  C   UNL     1      -1.908  11.339  23.206  0.00  0.00    +0.000 C 
ENDBRANCH  19  21
ENDBRANCH   6  16
BRANCH   1  24
ATOM     24  S   UNL     1       2.192   3.716  21.422  0.00  0.00    +0.000 S 
BRANCH  24  26
ATOM     25  C   UNL     1       0.808   2.730  19.315  0.00  0.00    +0.000 C 
ATOM     26  C   UNL     1       1.219   2.357  20.731  0.00  0.00    +0.000 C 
ENDBRANCH  24  26
ENDBRANCH   1  24
TORSDOF 4
ENDMDL
MODEL 2
REMARK VINA RESULT:      -7.1      2.658      4.403
REMARK  Name = 
REMARK  5 active torsions:
REMARK  status: ('A' for Active; 'I' for Inactive)
REMARK    1  A    between atoms: C_1  and  C_2
REMARK    2  A    between atoms: C_2  and  S_3
REMARK    3  A    between atoms: S_3  and  C_4
REMARK    4  A    between atoms: C_9  and  C_10
REMARK    5  A    between atoms: C_13  and  C_14
REMARK                            x       y       z     vdW  Elec       q    Type
REMARK                         _______ _______ _______ _____ _____    ______ ____
ROOT
ATOM      1  C   UNL     1       4.501   4.919  17.131  0.00  0.00    +0.000 C 
ATOM      2  O   UNL     1       4.701   3.762  16.787  0.00  0.00    +0.000 OA
ATOM      3  N   UNL     1       3.768   5.345  18.264  0.00  0.00    +0.000 N 
ATOM      4  C   UNL     1       3.349   6.748  18.322  0.00  0.00    +0.000 C 
ATOM      5  C   UNL     1       2.389   7.076  19.377  0.00  0.00    +0.000 A 
ATOM      6  C   UNL     1       1.715   8.245  19.657  0.00  0.00    +0.000 A 
ATOM      7  N   UNL     1       0.950   8.088  20.788  0.00  0.00    +0.000 NA
ATOM      8  C   UNL     1       1.161   6.844  21.172  0.00  0.00    +0.000 A 
ATOM      9  N   UNL     1       2.018   6.180  20.330  0.00  0.00    +0.000 N 
ATOM     10  C   UNL     1       2.499   4.861  20.360  0.00  0.00    +0.000 A 
ATOM     11  C   UNL     1       2.099   3.994  21.391  0.00  0.00    +0.000 A 
ATOM     12  C   UNL     1       2.596   2.695  21.434  0.00  0.00    +0.000 A 
ATOM     13  C   UNL     1       3.493   2.274  20.461  0.00  0.00    +0.000 A 
ATOM     14  C   UNL     1       3.881   3.140  19.430  0.00  0.00    +0.000 A 
ATOM     15  C   UNL     1       3.381   4.449  19.335  0.00  0.00    +0.000 A 
ENDROOT
BRANCH   6  16
ATOM     16  C   UNL     1       1.781   9.502  18.900  0.00  0.00    +0.000 A 
ATOM     17  N   UNL     1       2.282   9.655  17.669  0.00  0.00    +0.000 NA
ATOM     18  O   UNL     1       2.099  11.018  17.418  0.00  0.00    +0.000 OA
ATOM     19  C   UNL     1       1.509  11.549  18.533  0.00  0.00    +0.000 A 
ATOM     20  N   UNL     1       1.294  10.656  19.471  0.00  0.00    +0.000 NA
BRANCH  19  21
ATOM     21  C   UNL     1       1.147  13.024  18.663  0.00  0.00    +0.000 C 
ATOM     22  C   UNL     1      -0.269  13.458  18.335  0.00  0.00    +0.000 C 
ATOM     23  C   UNL     1       0.180  13.439  19.755  0.00  0.00    +0.000 C 
ENDBRANCH  19  21
ENDBRANCH   6  16
BRANCH   1  24
ATOM     24  S   UNL     1       5.209   6.220  16.146  0.00  0.00    +0.000 S 
BRANCH  24  26
ATOM     25  C   UNL     1       7.348   6.890  17.666  0.00  0.00    +0.000 C 
ATOM     26  C   UNL     1       6.969   5.994  16.496  0.00  0.00    +0.000 C 
ENDBRANCH  24  26
ENDBRANCH   1  24
TORSDOF 4
ENDMDL
MODEL 3
REMARK VINA RESULT:      -6.9      3.680      8.023
REMARK  Name = 
REMARK  5 active torsions:
REMARK  status: ('A' for Active; 'I' for Inactive)
REMARK    1  A    between atoms: C_1  and  C_2
REMARK    2  A    between atoms: C_2  and  S_3
REMARK    3  A    between atoms: S_3  and  C_4
REMARK    4  A    between atoms: C_9  and  C_10
REMARK    5  A    between atoms: C_13  and  C_14
REMARK                            x       y       z     vdW  Elec       q    Type
REMARK                         _______ _______ _______ _____ _____    ______ ____
ROOT
ATOM      1  C   UNL     1       5.670   5.953  16.899  0.00  0.00    +0.000 C 
ATOM      2  O   UNL     1       5.939   7.064  16.462  0.00  0.00    +0.000 OA
ATOM      3  N   UNL     1       4.653   5.639  17.831  0.00  0.00    +0.000 N 
ATOM      4  C   UNL     1       4.705   4.330  18.488  0.00  0.00    +0.000 C 
ATOM      5  C   UNL     1       3.787   4.154  19.614  0.00  0.00    +0.000 A 
ATOM      6  C   UNL     1       3.639   3.116  20.509  0.00  0.00    +0.000 A 
ATOM      7  N   UNL     1       2.602   3.382  21.371  0.00  0.00    +0.000 NA
ATOM      8  C   UNL     1       2.144   4.561  21.000  0.00  0.00    +0.000 A 
ATOM      9  N   UNL     1       2.848   5.081  19.943  0.00  0.00    +0.000 N 
ATOM     10  C   UNL     1       2.706   6.295  19.251  0.00  0.00    +0.000 A 
ATOM     11  C   UNL     1       1.694   7.197  19.622  0.00  0.00    +0.000 A 
ATOM     12  C   UNL     1       1.538   8.388  18.919  0.00  0.00    +0.000 A 
ATOM     13  C   UNL     1       2.377   8.665  17.849  0.00  0.00    +0.000 A 
ATOM     14  C   UNL     1       3.390   7.766  17.489  0.00  0.00    +0.000 A 
ATOM     15  C   UNL     1       3.599   6.567  18.189  0.00  0.00    +0.000 A 
ENDROOT
BRANCH   6  16
ATOM     16  C   UNL     1       4.435   1.883  20.564  0.00  0.00    +0.000 A 
ATOM     17  N   UNL     1       4.536   0.966  19.596  0.00  0.00    +0.000 NA
ATOM     18  O   UNL     1       5.404   0.017  20.146  0.00  0.00    +0.000 OA
ATOM     19  C   UNL     1       5.733   0.461  21.398  0.00  0.00    +0.000 A 
ATOM     20  N   UNL     1       5.162   1.603  21.700  0.00  0.00    +0.000 NA
BRANCH  19  21
ATOM     21  C   UNL     1       6.664  -0.300  22.334  0.00  0.00    +0.000 C 
ATOM     22  C   UNL     1       6.192  -1.618  22.918  0.00  0.00    +0.000 C 
ATOM     23  C   UNL     1       7.245  -1.619  21.864  0.00  0.00    +0.000 C 
ENDBRANCH  19  21
ENDBRANCH   6  16
BRANCH   1  24
ATOM     24  S   UNL     1       6.617   4.569  16.307  0.00  0.00    +0.000 S 
BRANCH  24  26
ATOM     25  C   UNL     1       6.540   4.140  13.635  0.00  0.00    +0.000 C 
ATOM     26  C   UNL     1       7.063   5.144  14.651  0.00  0.00    +0.000 C 
ENDBRANCH  24  26
ENDBRANCH   1  24
TORSDOF 4
ENDMDL
MODEL 4
REMARK VINA RESULT:      -6.9      3.878      8.759
REMARK  Name = 
REMARK  5 active torsions:
REMARK  status: ('A' for Active; 'I' for Inactive)
REMARK    1  A    between atoms: C_1  and  C_2
REMARK    2  A    between atoms: C_2  and  S_3
REMARK    3  A    between atoms: S_3  and  C_4
REMARK    4  A    between atoms: C_9  and  C_10
REMARK    5  A    between atoms: C_13  and  C_14
REMARK                            x       y       z     vdW  Elec       q    Type
REMARK                         _______ _______ _______ _____ _____    ______ ____
ROOT
ATOM      1  C   UNL     1      -3.809  11.266  17.706  0.00  0.00    +0.000 C 
ATOM      2  O   UNL     1      -4.767  11.995  17.488  0.00  0.00    +0.000 OA
ATOM      3  N   UNL     1      -2.870  11.402  18.755  0.00  0.00    +0.000 N 
ATOM      4  C   UNL     1      -1.615  10.653  18.654  0.00  0.00    +0.000 C 
ATOM      5  C   UNL     1      -0.583  11.018  19.626  0.00  0.00    +0.000 A 
ATOM      6  C   UNL     1       0.725  10.604  19.757  0.00  0.00    +0.000 A 
ATOM      7  N   UNL     1       1.296  11.190  20.861  0.00  0.00    +0.000 NA
ATOM      8  C   UNL     1       0.345  11.944  21.377  0.00  0.00    +0.000 A 
ATOM      9  N   UNL     1      -0.815  11.887  20.645  0.00  0.00    +0.000 N 
ATOM     10  C   UNL     1      -2.051  12.529  20.828  0.00  0.00    +0.000 A 
ATOM     11  C   UNL     1      -2.234  13.394  21.920  0.00  0.00    +0.000 A 
ATOM     12  C   UNL     1      -3.467  14.010  22.115  0.00  0.00    +0.000 A 
ATOM     13  C   UNL     1      -4.507  13.753  21.232  0.00  0.00    +0.000 A 
ATOM     14  C   UNL     1      -4.315  12.897  20.138  0.00  0.00    +0.000 A 
ATOM     15  C   UNL     1      -3.079  12.277  19.891  0.00  0.00    +0.000 A 
ENDROOT
BRANCH   6  16
ATOM     16  C   UNL     1       1.443   9.667  18.883  0.00  0.00    +0.000 A 
ATOM     17  N   UNL     1       1.942   9.943  17.673  0.00  0.00    +0.000 NA
ATOM     18  O   UNL     1       2.521   8.731  17.283  0.00  0.00    +0.000 OA
ATOM     19  C   UNL     1       2.302   7.843  18.302  0.00  0.00    +0.000 A 
ATOM     20  N   UNL     1       1.644   8.372  19.307  0.00  0.00    +0.000 NA
BRANCH  19  21
ATOM     21  C   UNL     1       2.777   6.396  18.263  0.00  0.00    +0.000 C 
ATOM     22  C   UNL     1       4.261   6.111  18.390  0.00  0.00    +0.000 C 
ATOM     23  C   UNL     1       3.354   5.788  19.526  0.00  0.00    +0.000 C 
ENDBRANCH  19  21
ENDBRANCH   6  16
BRANCH   1  24
ATOM     24  S   UNL     1      -3.555   9.873  16.630  0.00  0.00    +0.000 S 
BRANCH  24  26
ATOM     25  C   UNL     1      -3.584  10.041  13.928  0.00  0.00    +0.000 C 
ATOM     26  C   UNL     1      -2.944  10.698  15.141  0.00  0.00    +0.000 C 
ENDBRANCH  24  26
ENDBRANCH   1  24
TORSDOF 4
ENDMDL
MODEL 5
REMARK VINA RESULT:      -6.8      2.874      4.608
REMARK  Name = 
REMARK  5 active torsions:
REMARK  status: ('A' for Active; 'I' for Inactive)
REMARK    1  A    between atoms: C_1  and  C_2
REMARK    2  A    between atoms: C_2  and  S_3
REMARK    3  A    between atoms: S_3  and  C_4
REMARK    4  A    between atoms: C_9  and  C_10
REMARK    5  A    between atoms: C_13  and  C_14
REMARK                            x       y       z     vdW  Elec       q    Type
REMARK                         _______ _______ _______ _____ _____    ______ ____
ROOT
ATOM      1  C   UNL     1       4.497   4.784  17.160  0.00  0.00    +0.000 C 
ATOM      2  O   UNL     1       4.674   3.619  16.831  0.00  0.00    +0.000 OA
ATOM      3  N   UNL     1       3.770   5.240  18.285  0.00  0.00    +0.000 N 
ATOM      4  C   UNL     1       3.379   6.651  18.324  0.00  0.00    +0.000 C 
ATOM      5  C   UNL     1       2.423   7.011  19.372  0.00  0.00    +0.000 A 
ATOM      6  C   UNL     1       1.772   8.197  19.636  0.00  0.00    +0.000 A 
ATOM      7  N   UNL     1       1.002   8.070  20.767  0.00  0.00    +0.000 NA
ATOM      8  C   UNL     1       1.187   6.827  21.168  0.00  0.00    +0.000 A 
ATOM      9  N   UNL     1       2.033   6.136  20.336  0.00  0.00    +0.000 N 
ATOM     10  C   UNL     1       2.487   4.808  20.383  0.00  0.00    +0.000 A 
ATOM     11  C   UNL     1       2.067   3.962  21.425  0.00  0.00    +0.000 A 
ATOM     12  C   UNL     1       2.538   2.654  21.485  0.00  0.00    +0.000 A 
ATOM     13  C   UNL     1       3.428   2.202  20.520  0.00  0.00    +0.000 A 
ATOM     14  C   UNL     1       3.836   3.047  19.479  0.00  0.00    +0.000 A 
ATOM     15  C   UNL     1       3.363   4.365  19.366  0.00  0.00    +0.000 A 
ENDROOT
BRANCH   6  16
ATOM     16  C   UNL     1       1.866   9.443  18.863  0.00  0.00    +0.000 A 
ATOM     17  N   UNL     1       2.277   9.555  17.596  0.00  0.00    +0.000 NA
ATOM     18  O   UNL     1       2.170  10.927  17.346  0.00  0.00    +0.000 OA
ATOM     19  C   UNL     1       1.707  11.503  18.498  0.00  0.00    +0.000 A 
ATOM     20  N   UNL     1       1.505  10.631  19.459  0.00  0.00    +0.000 NA
BRANCH  19  21
ATOM     21  C   UNL     1       1.458  12.999  18.640  0.00  0.00    +0.000 C 
ATOM     22  C   UNL     1       2.345  13.801  19.574  0.00  0.00    +0.000 C 
ATOM     23  C   UNL     1       2.498  13.961  18.101  0.00  0.00    +0.000 C 
ENDBRANCH  19  21
ENDBRANCH   6  16
BRANCH   1  24
ATOM     24  S   UNL     1       5.232   6.058  16.160  0.00  0.00    +0.000 S 
BRANCH  24  26
ATOM     25  C   UNL     1       6.756   4.781  14.322  0.00  0.00    +0.000 C 
ATOM     26  C   UNL     1       6.821   5.297  15.752  0.00  0.00    +0.000 C 
ENDBRANCH  24  26
ENDBRANCH   1  24
TORSDOF 4
ENDMDL
MODEL 6
REMARK VINA RESULT:      -6.6      3.278      8.314
REMARK  Name = 
REMARK  5 active torsions:
REMARK  status: ('A' for Active; 'I' for Inactive)
REMARK    1  A    between atoms: C_1  and  C_2
REMARK    2  A    between atoms: C_2  and  S_3
REMARK    3  A    between atoms: S_3  and  C_4
REMARK    4  A    between atoms: C_9  and  C_10
REMARK    5  A    between atoms: C_13  and  C_14
REMARK                            x       y       z     vdW  Elec       q    Type
REMARK                         _______ _______ _______ _____ _____    ______ ____
ROOT
ATOM      1  C   UNL     1      -2.075  11.268  18.184  0.00  0.00    +0.000 C 
ATOM      2  O   UNL     1      -2.648  12.328  17.975  0.00  0.00    +0.000 OA
ATOM      3  N   UNL     1      -1.465  10.865  19.395  0.00  0.00    +0.000 N 
ATOM      4  C   UNL     1      -0.542   9.728  19.354  0.00  0.00    +0.000 C 
ATOM      5  C   UNL     1       0.247   9.513  20.568  0.00  0.00    +0.000 A 
ATOM      6  C   UNL     1       1.263   8.623  20.842  0.00  0.00    +0.000 A 
ATOM      7  N   UNL     1       1.670   8.760  22.147  0.00  0.00    +0.000 NA
ATOM      8  C   UNL     1       0.914   9.721  22.641  0.00  0.00    +0.000 A 
ATOM      9  N   UNL     1       0.042  10.225  21.708  0.00  0.00    +0.000 N 
ATOM     10  C   UNL     1      -0.919  11.244  21.803  0.00  0.00    +0.000 A 
ATOM     11  C   UNL     1      -1.102  11.922  23.021  0.00  0.00    +0.000 A 
ATOM     12  C   UNL     1      -2.072  12.914  23.121  0.00  0.00    +0.000 A 
ATOM     13  C   UNL     1      -2.858  13.216  22.017  0.00  0.00    +0.000 A 
ATOM     14  C   UNL     1      -2.665  12.544  20.802  0.00  0.00    +0.000 A 
ATOM     15  C   UNL     1      -1.678  11.555  20.652  0.00  0.00    +0.000 A 
ENDROOT
BRANCH   6  16
ATOM     16  C   UNL     1       1.848   7.643  19.916  0.00  0.00    +0.000 A 
ATOM     17  N   UNL     1       2.426   7.916  18.742  0.00  0.00    +0.000 NA
ATOM     18  O   UNL     1       2.811   6.655  18.276  0.00  0.00    +0.000 OA
ATOM     19  C   UNL     1       2.417   5.747  19.221  0.00  0.00    +0.000 A 
ATOM     20  N   UNL     1       1.820   6.306  20.248  0.00  0.00    +0.000 NA
BRANCH  19  21
ATOM     21  C   UNL     1       2.650   4.247  19.086  0.00  0.00    +0.000 C 
ATOM     22  C   UNL     1       1.742   3.449  18.169  0.00  0.00    +0.000 C 
ATOM     23  C   UNL     1       3.150   3.709  17.759  0.00  0.00    +0.000 C 
ENDBRANCH  19  21
ENDBRANCH   6  16
BRANCH   1  24
ATOM     24  S   UNL     1      -2.005  10.079  16.863  0.00  0.00    +0.000 S 
BRANCH  24  26
ATOM     25  C   UNL     1      -3.107  10.129  14.390  0.00  0.00    +0.000 C 
ATOM     26  C   UNL     1      -3.329  10.683  15.789  0.00  0.00    +0.000 C 
ENDBRANCH  24  26
ENDBRANCH   1  24
TORSDOF 4
ENDMDL
MODEL 7
REMARK VINA RESULT:      -6.6      2.739      7.402
REMARK  Name = 
REMARK  5 active torsions:
REMARK  status: ('A' for Active; 'I' for Inactive)
REMARK    1  A    between atoms: C_1  and  C_2
REMARK    2  A    between atoms: C_2  and  S_3
REMARK    3  A    between atoms: S_3  and  C_4
REMARK    4  A    between atoms: C_9  and  C_10
REMARK    5  A    between atoms: C_13  and  C_14
REMARK                            x       y       z     vdW  Elec       q    Type
REMARK                         _______ _______ _______ _____ _____    ______ ____
ROOT
ATOM      1  C   UNL     1       3.019   3.505  20.153  0.00  0.00    +0.000 C 
ATOM      2  O   UNL     1       2.091   3.188  20.884  0.00  0.00    +0.000 OA
ATOM      3  N   UNL     1       3.213   4.764  19.537  0.00  0.00    +0.000 N 
ATOM      4  C   UNL     1       4.178   4.849  18.438  0.00  0.00    +0.000 C 
ATOM      5  C   UNL     1       4.158   6.098  17.676  0.00  0.00    +0.000 A 
ATOM      6  C   UNL     1       4.839   6.478  16.540  0.00  0.00    +0.000 A 
ATOM      7  N   UNL     1       4.529   7.777  16.217  0.00  0.00    +0.000 NA
ATOM      8  C   UNL     1       3.672   8.164  17.142  0.00  0.00    +0.000 A 
ATOM      9  N   UNL     1       3.400   7.165  18.045  0.00  0.00    +0.000 N 
ATOM     10  C   UNL     1       2.553   7.143  19.164  0.00  0.00    +0.000 A 
ATOM     11  C   UNL     1       1.818   8.292  19.508  0.00  0.00    +0.000 A 
ATOM     12  C   UNL     1       0.999   8.277  20.633  0.00  0.00    +0.000 A 
ATOM     13  C   UNL     1       0.925   7.129  21.410  0.00  0.00    +0.000 A 
ATOM     14  C   UNL     1       1.651   5.984  21.056  0.00  0.00    +0.000 A 
ATOM     15  C   UNL     1       2.469   5.948  19.915  0.00  0.00    +0.000 A 
ENDROOT
BRANCH   6  16
ATOM     16  C   UNL     1       5.779   5.659  15.763  0.00  0.00    +0.000 A 
ATOM     17  N   UNL     1       7.109   5.648  15.894  0.00  0.00    +0.000 NA
ATOM     18  O   UNL     1       7.515   4.708  14.941  0.00  0.00    +0.000 OA
ATOM     19  C   UNL     1       6.380   4.253  14.327  0.00  0.00    +0.000 A 
ATOM     20  N   UNL     1       5.288   4.808  14.798  0.00  0.00    +0.000 NA
BRANCH  19  21
ATOM     21  C   UNL     1       6.394   3.212  13.214  0.00  0.00    +0.000 C 
ATOM     22  C   UNL     1       5.452   3.389  12.038  0.00  0.00    +0.000 C 
ATOM     23  C   UNL     1       6.911   3.620  11.848  0.00  0.00    +0.000 C 
ENDBRANCH  19  21
ENDBRANCH   6  16
BRANCH   1  24
ATOM     24  S   UNL     1       4.283   2.295  19.831  0.00  0.00    +0.000 S 
BRANCH  24  26
ATOM     25  C   UNL     1       2.486   2.128  17.812  0.00  0.00    +0.000 C 
ATOM     26  C   UNL     1       3.458   1.261  18.598  0.00  0.00    +0.000 C 
ENDBRANCH  24  26
ENDBRANCH   1  24
TORSDOF 4
ENDMDL
MODEL 8
REMARK VINA RESULT:      -6.6      5.861      8.082
REMARK  Name = 
REMARK  5 active torsions:
REMARK  status: ('A' for Active; 'I' for Inactive)
REMARK    1  A    between atoms: C_1  and  C_2
REMARK    2  A    between atoms: C_2  and  S_3
REMARK    3  A    between atoms: S_3  and  C_4
REMARK    4  A    between atoms: C_9  and  C_10
REMARK    5  A    between atoms: C_13  and  C_14
REMARK                            x       y       z     vdW  Elec       q    Type
REMARK                         _______ _______ _______ _____ _____    ______ ____
ROOT
ATOM      1  C   UNL     1      -0.151  11.315  19.453  0.00  0.00    +0.000 C 
ATOM      2  O   UNL     1       0.580  11.212  18.478  0.00  0.00    +0.000 OA
ATOM      3  N   UNL     1      -1.556  11.483  19.438  0.00  0.00    +0.000 N 
ATOM      4  C   UNL     1      -2.207  11.928  20.673  0.00  0.00    +0.000 C 
ATOM      5  C   UNL     1      -3.609  12.327  20.538  0.00  0.00    +0.000 A 
ATOM      6  C   UNL     1      -4.485  12.881  21.446  0.00  0.00    +0.000 A 
ATOM      7  N   UNL     1      -5.723  13.038  20.871  0.00  0.00    +0.000 NA
ATOM      8  C   UNL     1      -5.585  12.589  19.638  0.00  0.00    +0.000 A 
ATOM      9  N   UNL     1      -4.306  12.162  19.382  0.00  0.00    +0.000 N 
ATOM     10  C   UNL     1      -3.730  11.629  18.218  0.00  0.00    +0.000 A 
ATOM     11  C   UNL     1      -4.515  11.457  17.065  0.00  0.00    +0.000 A 
ATOM     12  C   UNL     1      -3.949  10.904  15.919  0.00  0.00    +0.000 A 
ATOM     13  C   UNL     1      -2.616  10.518  15.933  0.00  0.00    +0.000 A 
ATOM     14  C   UNL     1      -1.835  10.701  17.083  0.00  0.00    +0.000 A 
ATOM     15  C   UNL     1      -2.360  11.280  18.250  0.00  0.00    +0.000 A 
ENDROOT
BRANCH   6  16
ATOM     16  C   UNL     1      -4.191  13.253  22.836  0.00  0.00    +0.000 A 
ATOM     17  N   UNL     1      -4.362  12.477  23.912  0.00  0.00    +0.000 NA
ATOM     18  O   UNL     1      -3.932  13.292  24.964  0.00  0.00    +0.000 OA
ATOM     19  C   UNL     1      -3.552  14.484  24.410  0.00  0.00    +0.000 A 
ATOM     20  N   UNL     1      -3.693  14.508  23.105  0.00  0.00    +0.000 NA
BRANCH  19  21
ATOM     21  C   UNL     1      -3.023  15.654  25.230  0.00  0.00    +0.000 C 
ATOM     22  C   UNL     1      -1.621  15.569  25.802  0.00  0.00    +0.000 C 
ATOM     23  C   UNL     1      -1.891  16.486  24.660  0.00  0.00    +0.000 C 
ENDBRANCH  19  21
ENDBRANCH   6  16
BRANCH   1  24
ATOM     24  S   UNL     1       0.589  11.223  21.068  0.00  0.00    +0.000 S 
BRANCH  24  26
ATOM     25  C   UNL     1      -0.142   9.441  22.972  0.00  0.00    +0.000 C 
ATOM     26  C   UNL     1       0.247   9.501  21.502  0.00  0.00    +0.000 C 
ENDBRANCH  24  26
ENDBRANCH   1  24
TORSDOF 4
ENDMDL
MODEL 9
REMARK VINA RESULT:      -6.5      1.429      1.762
REMARK  Name = 
REMARK  5 active torsions:
REMARK  status: ('A' for Active; 'I' for Inactive)
REMARK    1  A    between atoms: C_1  and  C_2
REMARK    2  A    between atoms: C_2  and  S_3
REMARK    3  A    between atoms: S_3  and  C_4
REMARK    4  A    between atoms: C_9  and  C_10
REMARK    5  A    between atoms: C_13  and  C_14
REMARK                            x       y       z     vdW  Elec       q    Type
REMARK                         _______ _______ _______ _____ _____    ______ ____
ROOT
ATOM      1  C   UNL     1       2.454   3.333  18.837  0.00  0.00    +0.000 C 
ATOM      2  O   UNL     1       3.101   2.295  18.862  0.00  0.00    +0.000 OA
ATOM      3  N   UNL     1       2.841   4.553  18.234  0.00  0.00    +0.000 N 
ATOM      4  C   UNL     1       2.102   5.764  18.600  0.00  0.00    +0.000 C 
ATOM      5  C   UNL     1       2.695   7.024  18.150  0.00  0.00    +0.000 A 
ATOM      6  C   UNL     1       2.337   8.332  18.394  0.00  0.00    +0.000 A 
ATOM      7  N   UNL     1       3.171   9.184  17.710  0.00  0.00    +0.000 NA
ATOM      8  C   UNL     1       4.015   8.396  17.073  0.00  0.00    +0.000 A 
ATOM      9  N   UNL     1       3.776   7.068  17.327  0.00  0.00    +0.000 N 
ATOM     10  C   UNL     1       4.430   5.912  16.870  0.00  0.00    +0.000 A 
ATOM     11  C   UNL     1       5.525   6.028  15.996  0.00  0.00    +0.000 A 
ATOM     12  C   UNL     1       6.156   4.881  15.524  0.00  0.00    +0.000 A 
ATOM     13  C   UNL     1       5.689   3.633  15.915  0.00  0.00    +0.000 A 
ATOM     14  C   UNL     1       4.603   3.525  16.794  0.00  0.00    +0.000 A 
ATOM     15  C   UNL     1       3.955   4.657  17.315  0.00  0.00    +0.000 A 
ENDROOT
BRANCH   6  16
ATOM     16  C   UNL     1       1.229   8.798  19.239  0.00  0.00    +0.000 A 
ATOM     17  N   UNL     1       0.225   9.593  18.854  0.00  0.00    +0.000 NA
ATOM     18  O   UNL     1      -0.544   9.720  20.016  0.00  0.00    +0.000 OA
ATOM     19  C   UNL     1       0.085   8.988  20.987  0.00  0.00    +0.000 A 
ATOM     20  N   UNL     1       1.179   8.403  20.557  0.00  0.00    +0.000 NA
BRANCH  19  21
ATOM     21  C   UNL     1      -0.438   8.874  22.414  0.00  0.00    +0.000 C 
ATOM     22  C   UNL     1       0.369   9.496  23.538  0.00  0.00    +0.000 C 
ATOM     23  C   UNL     1      -0.909  10.132  23.115  0.00  0.00    +0.000 C 
ENDBRANCH  19  21
ENDBRANCH   6  16
BRANCH   1  24
ATOM     24  S   UNL     1       0.850   3.337  19.606  0.00  0.00    +0.000 S 
BRANCH  24  26
ATOM     25  C   UNL     1       2.320   3.675  21.855  0.00  0.00    +0.000 C 
ATOM     26  C   UNL     1       1.266   2.750  21.266  0.00  0.00    +0.000 C 
ENDBRANCH  24  26
ENDBRANCH   1  24
TORSDOF 4
ENDMDL
