MODEL 1
REMARK VINA RESULT:      -6.2      0.000      0.000
REMARK  Name = 
REMARK  5 active torsions:
REMARK  status: ('A' for Active; 'I' for Inactive)
REMARK    1  A    between atoms: C_1  and  N_2
REMARK    2  A    between atoms: N_2  and  C_3
REMARK    3  A    between atoms: C_4  and  C_6
REMARK    4  A    between atoms: C_8  and  C_9
REMARK    5  A    between atoms: C_16  and  O_17
REMARK                            x       y       z     vdW  Elec       q    Type
REMARK                         _______ _______ _______ _____ _____    ______ ____
ROOT
ATOM      1  C   UNL     1       4.919   4.299  18.365  0.00  0.00    +0.000 A 
ATOM      2  S   UNL     1       4.476   3.890  16.741  0.00  0.00    +0.000 S 
ATOM      3  C   UNL     1       6.012   4.415  16.172  0.00  0.00    +0.000 A 
ATOM      4  N   UNL     1       6.825   4.847  17.116  0.00  0.00    +0.000 NA
ATOM      5  C   UNL     1       6.218   4.759  18.338  0.00  0.00    +0.000 A 
ENDROOT
BRANCH   3   6
ATOM      6  C   UNL     1       6.394   4.343  14.751  0.00  0.00    +0.000 A 
ATOM      7  C   UNL     1       5.766   3.507  13.823  0.00  0.00    +0.000 A 
ATOM      8  C   UNL     1       6.189   3.545  12.503  0.00  0.00    +0.000 A 
ATOM      9  N   UNL     1       7.180   4.339  12.051  0.00  0.00    +0.000 NA
ATOM     10  C   UNL     1       7.775   5.142  12.956  0.00  0.00    +0.000 A 
ATOM     11  C   UNL     1       7.422   5.180  14.293  0.00  0.00    +0.000 A 
ENDBRANCH   3   6
BRANCH   1  15
ATOM     12  C   UNL     1       2.174   4.752  20.934  0.00  0.00    +0.000 C 
ATOM     13  N   UNL     1       3.063   5.056  19.826  0.00  0.00    +0.000 N 
ATOM     14  C   UNL     1       2.915   6.361  19.205  0.00  0.00    +0.000 C 
ATOM     15  C   UNL     1       3.955   4.048  19.423  0.00  0.00    +0.000 C 
ATOM     16  O   UNL     1       3.881   2.941  19.962  0.00  0.00    +0.000 OA
ENDBRANCH   1  15
BRANCH   5  17
ATOM     17  O   UNL     1       6.914   5.102  19.427  0.00  0.00    +0.000 OA
ATOM     18  H   UNL     1       6.276   5.089  20.162  0.00  0.00    +0.000 HD
ENDBRANCH   5  17
TORSDOF 3
ENDMDL
MODEL 2
REMARK VINA RESULT:      -6.2      0.342      1.188
REMARK  Name = 
REMARK  5 active torsions:
REMARK  status: ('A' for Active; 'I' for Inactive)
REMARK    1  A    between atoms: C_1  and  N_2
REMARK    2  A    between atoms: N_2  and  C_3
REMARK    3  A    between atoms: C_4  and  C_6
REMARK    4  A    between atoms: C_8  and  C_9
REMARK    5  A    between atoms: C_16  and  O_17
REMARK                            x       y       z     vdW  Elec       q    Type
REMARK                         _______ _______ _______ _____ _____    ______ ____
ROOT
ATOM      1  C   UNL     1       4.868   4.106  18.545  0.00  0.00    +0.000 A 
ATOM      2  S   UNL     1       4.499   3.669  16.911  0.00  0.00    +0.000 S 
ATOM      3  C   UNL     1       5.954   4.407  16.367  0.00  0.00    +0.000 A 
ATOM      4  N   UNL     1       6.693   4.930  17.326  0.00  0.00    +0.000 NA
ATOM      5  C   UNL     1       6.092   4.739  18.540  0.00  0.00    +0.000 A 
ENDROOT
BRANCH   3   6
ATOM      6  C   UNL     1       6.354   4.413  14.948  0.00  0.00    +0.000 A 
ATOM      7  C   UNL     1       7.425   5.159  14.451  0.00  0.00    +0.000 A 
ATOM      8  C   UNL     1       7.729   5.064  13.101  0.00  0.00    +0.000 A 
ATOM      9  N   UNL     1       7.051   4.295  12.227  0.00  0.00    +0.000 NA
ATOM     10  C   UNL     1       6.021   3.578  12.722  0.00  0.00    +0.000 A 
ATOM     11  C   UNL     1       5.642   3.602  14.052  0.00  0.00    +0.000 A 
ENDBRANCH   3   6
BRANCH   1  15
ATOM     12  C   UNL     1       2.148   4.173  21.180  0.00  0.00    +0.000 C 
ATOM     13  N   UNL     1       2.999   4.623  20.091  0.00  0.00    +0.000 N 
ATOM     14  C   UNL     1       2.767   5.968  19.591  0.00  0.00    +0.000 C 
ATOM     15  C   UNL     1       3.939   3.708  19.590  0.00  0.00    +0.000 C 
ATOM     16  O   UNL     1       3.936   2.555  20.029  0.00  0.00    +0.000 OA
ENDBRANCH   1  15
BRANCH   5  17
ATOM     17  O   UNL     1       6.727   5.155  19.642  0.00  0.00    +0.000 OA
ATOM     18  H   UNL     1       7.078   4.350  20.063  0.00  0.00    +0.000 HD
ENDBRANCH   5  17
TORSDOF 3
ENDMDL
MODEL 3
REMARK VINA RESULT:      -6.1      1.895      6.297
REMARK  Name = 
REMARK  5 active torsions:
REMARK  status: ('A' for Active; 'I' for Inactive)
REMARK    1  A    between atoms: C_1  and  N_2
REMARK    2  A    between atoms: N_2  and  C_3
REMARK    3  A    between atoms: C_4  and  C_6
REMARK    4  A    between atoms: C_8  and  C_9
REMARK    5  A    between atoms: C_16  and  O_17
REMARK                            x       y       z     vdW  Elec       q    Type
REMARK                         _______ _______ _______ _____ _____    ______ ____
ROOT
ATOM      1  C   UNL     1       6.224   4.846  16.980  0.00  0.00    +0.000 A 
ATOM      2  S   UNL     1       4.508   4.682  16.815  0.00  0.00    +0.000 S 
ATOM      3  C   UNL     1       4.386   4.141  18.443  0.00  0.00    +0.000 A 
ATOM      4  N   UNL     1       5.534   4.101  19.092  0.00  0.00    +0.000 NA
ATOM      5  C   UNL     1       6.550   4.517  18.277  0.00  0.00    +0.000 A 
ENDROOT
BRANCH   3   6
ATOM      6  C   UNL     1       3.096   3.793  19.065  0.00  0.00    +0.000 A 
ATOM      7  C   UNL     1       2.674   4.294  20.299  0.00  0.00    +0.000 A 
ATOM      8  C   UNL     1       1.426   3.921  20.774  0.00  0.00    +0.000 A 
ATOM      9  N   UNL     1       0.585   3.095  20.120  0.00  0.00    +0.000 NA
ATOM     10  C   UNL     1       1.005   2.622  18.929  0.00  0.00    +0.000 A 
ATOM     11  C   UNL     1       2.229   2.938  18.369  0.00  0.00    +0.000 A 
ENDBRANCH   3   6
BRANCH   1  15
ATOM     12  C   UNL     1       7.673   5.226  13.502  0.00  0.00    +0.000 C 
ATOM     13  N   UNL     1       6.836   4.728  14.579  0.00  0.00    +0.000 N 
ATOM     14  C   UNL     1       5.892   3.674  14.243  0.00  0.00    +0.000 C 
ATOM     15  C   UNL     1       6.980   5.334  15.838  0.00  0.00    +0.000 C 
ATOM     16  O   UNL     1       7.732   6.305  15.945  0.00  0.00    +0.000 OA
ENDBRANCH   1  15
BRANCH   5  17
ATOM     17  O   UNL     1       7.786   4.597  18.784  0.00  0.00    +0.000 OA
ATOM     18  H   UNL     1       7.677   4.560  19.751  0.00  0.00    +0.000 HD
ENDBRANCH   5  17
TORSDOF 3
ENDMDL
MODEL 4
REMARK VINA RESULT:      -6.1      1.033      1.813
REMARK  Name = 
REMARK  5 active torsions:
REMARK  status: ('A' for Active; 'I' for Inactive)
REMARK    1  A    between atoms: C_1  and  N_2
REMARK    2  A    between atoms: N_2  and  C_3
REMARK    3  A    between atoms: C_4  and  C_6
REMARK    4  A    between atoms: C_8  and  C_9
REMARK    5  A    between atoms: C_16  and  O_17
REMARK                            x       y       z     vdW  Elec       q    Type
REMARK                         _______ _______ _______ _____ _____    ______ ____
ROOT
ATOM      1  C   UNL     1       5.005   4.694  18.257  0.00  0.00    +0.000 A 
ATOM      2  S   UNL     1       4.499   4.464  16.616  0.00  0.00    +0.000 S 
ATOM      3  C   UNL     1       6.123   4.629  16.076  0.00  0.00    +0.000 A 
ATOM      4  N   UNL     1       7.003   4.819  17.039  0.00  0.00    +0.000 NA
ATOM      5  C   UNL     1       6.376   4.831  18.254  0.00  0.00    +0.000 A 
ENDROOT
BRANCH   3   6
ATOM      6  C   UNL     1       6.496   4.523  14.654  0.00  0.00    +0.000 A 
ATOM      7  C   UNL     1       7.519   5.272  14.065  0.00  0.00    +0.000 A 
ATOM      8  C   UNL     1       7.803   5.067  12.724  0.00  0.00    +0.000 A 
ATOM      9  N   UNL     1       7.148   4.188  11.939  0.00  0.00    +0.000 NA
ATOM     10  C   UNL     1       6.166   3.470  12.521  0.00  0.00    +0.000 A 
ATOM     11  C   UNL     1       5.811   3.599  13.851  0.00  0.00    +0.000 A 
ENDBRANCH   3   6
BRANCH   1  15
ATOM     12  C   UNL     1       2.579   3.425  20.874  0.00  0.00    +0.000 C 
ATOM     13  N   UNL     1       3.643   3.410  19.885  0.00  0.00    +0.000 N 
ATOM     14  C   UNL     1       4.277   2.129  19.623  0.00  0.00    +0.000 C 
ATOM     15  C   UNL     1       3.995   4.638  19.301  0.00  0.00    +0.000 C 
ATOM     16  O   UNL     1       3.455   5.667  19.715  0.00  0.00    +0.000 OA
ENDBRANCH   1  15
BRANCH   5  17
ATOM     17  O   UNL     1       7.119   4.957  19.359  0.00  0.00    +0.000 OA
ATOM     18  H   UNL     1       6.504   5.242  20.058  0.00  0.00    +0.000 HD
ENDBRANCH   5  17
TORSDOF 3
ENDMDL
MODEL 5
REMARK VINA RESULT:      -6.1      1.092      1.493
REMARK  Name = 
REMARK  5 active torsions:
REMARK  status: ('A' for Active; 'I' for Inactive)
REMARK    1  A    between atoms: C_1  and  N_2
REMARK    2  A    between atoms: N_2  and  C_3
REMARK    3  A    between atoms: C_4  and  C_6
REMARK    4  A    between atoms: C_8  and  C_9
REMARK    5  A    between atoms: C_16  and  O_17
REMARK                            x       y       z     vdW  Elec       q    Type
REMARK                         _______ _______ _______ _____ _____    ______ ____
ROOT
ATOM      1  C   UNL     1       4.720   4.501  18.560  0.00  0.00    +0.000 A 
ATOM      2  S   UNL     1       4.296   4.082  16.934  0.00  0.00    +0.000 S 
ATOM      3  C   UNL     1       5.869   4.520  16.393  0.00  0.00    +0.000 A 
ATOM      4  N   UNL     1       6.680   4.931  17.349  0.00  0.00    +0.000 NA
ATOM      5  C   UNL     1       6.040   4.897  18.556  0.00  0.00    +0.000 A 
ENDROOT
BRANCH   3   6
ATOM      6  C   UNL     1       6.280   4.402  14.983  0.00  0.00    +0.000 A 
ATOM      7  C   UNL     1       5.621   3.595  14.052  0.00  0.00    +0.000 A 
ATOM      8  C   UNL     1       6.079   3.585  12.743  0.00  0.00    +0.000 A 
ATOM      9  N   UNL     1       7.131   4.305  12.305  0.00  0.00    +0.000 NA
ATOM     10  C   UNL     1       7.755   5.081  13.214  0.00  0.00    +0.000 A 
ATOM     11  C   UNL     1       7.372   5.163  14.541  0.00  0.00    +0.000 A 
ENDBRANCH   3   6
BRANCH   1  15
ATOM     12  C   UNL     1       2.527   2.952  21.232  0.00  0.00    +0.000 C 
ATOM     13  N   UNL     1       3.592   3.080  20.251  0.00  0.00    +0.000 N 
ATOM     14  C   UNL     1       4.456   1.926  20.066  0.00  0.00    +0.000 C 
ATOM     15  C   UNL     1       3.720   4.318  19.599  0.00  0.00    +0.000 C 
ATOM     16  O   UNL     1       2.993   5.250  19.950  0.00  0.00    +0.000 OA
ENDBRANCH   1  15
BRANCH   5  17
ATOM     17  O   UNL     1       6.727   5.227  19.656  0.00  0.00    +0.000 OA
ATOM     18  H   UNL     1       6.479   6.148  19.854  0.00  0.00    +0.000 HD
ENDBRANCH   5  17
TORSDOF 3
ENDMDL
MODEL 6
REMARK VINA RESULT:      -6.0      1.900      6.377
REMARK  Name = 
REMARK  5 active torsions:
REMARK  status: ('A' for Active; 'I' for Inactive)
REMARK    1  A    between atoms: C_1  and  N_2
REMARK    2  A    between atoms: N_2  and  C_3
REMARK    3  A    between atoms: C_4  and  C_6
REMARK    4  A    between atoms: C_8  and  C_9
REMARK    5  A    between atoms: C_16  and  O_17
REMARK                            x       y       z     vdW  Elec       q    Type
REMARK                         _______ _______ _______ _____ _____    ______ ____
ROOT
ATOM      1  C   UNL     1       6.238   4.983  17.192  0.00  0.00    +0.000 A 
ATOM      2  S   UNL     1       4.517   4.790  17.170  0.00  0.00    +0.000 S 
ATOM      3  C   UNL     1       4.536   4.275  18.810  0.00  0.00    +0.000 A 
ATOM      4  N   UNL     1       5.732   4.263  19.365  0.00  0.00    +0.000 NA
ATOM      5  C   UNL     1       6.673   4.680  18.464  0.00  0.00    +0.000 A 
ENDROOT
BRANCH   3   6
ATOM      6  C   UNL     1       3.306   3.919  19.540  0.00  0.00    +0.000 A 
ATOM      7  C   UNL     1       2.047   4.441  19.232  0.00  0.00    +0.000 A 
ATOM      8  C   UNL     1       0.953   4.011  19.968  0.00  0.00    +0.000 A 
ATOM      9  N   UNL     1       1.025   3.117  20.975  0.00  0.00    +0.000 NA
ATOM     10  C   UNL     1       2.246   2.620  21.259  0.00  0.00    +0.000 A 
ATOM     11  C   UNL     1       3.395   2.982  20.581  0.00  0.00    +0.000 A 
ENDBRANCH   3   6
BRANCH   1  15
ATOM     12  C   UNL     1       7.498   5.258  13.631  0.00  0.00    +0.000 C 
ATOM     13  N   UNL     1       6.762   4.755  14.779  0.00  0.00    +0.000 N 
ATOM     14  C   UNL     1       5.923   3.588  14.560  0.00  0.00    +0.000 C 
ATOM     15  C   UNL     1       6.891   5.462  15.986  0.00  0.00    +0.000 C 
ATOM     16  O   UNL     1       7.540   6.511  15.991  0.00  0.00    +0.000 OA
ENDBRANCH   1  15
BRANCH   5  17
ATOM     17  O   UNL     1       7.944   4.787  18.867  0.00  0.00    +0.000 OA
ATOM     18  H   UNL     1       8.434   5.137  18.102  0.00  0.00    +0.000 HD
ENDBRANCH   5  17
TORSDOF 3
ENDMDL
MODEL 7
REMARK VINA RESULT:      -5.9      2.010      6.356
REMARK  Name = 
REMARK  5 active torsions:
REMARK  status: ('A' for Active; 'I' for Inactive)
REMARK    1  A    between atoms: C_1  and  N_2
REMARK    2  A    between atoms: N_2  and  C_3
REMARK    3  A    between atoms: C_4  and  C_6
REMARK    4  A    between atoms: C_8  and  C_9
REMARK    5  A    between atoms: C_16  and  O_17
REMARK                            x       y       z     vdW  Elec       q    Type
REMARK                         _______ _______ _______ _____ _____    ______ ____
ROOT
ATOM      1  C   UNL     1       6.601   5.071  15.628  0.00  0.00    +0.000 A 
ATOM      2  S   UNL     1       5.079   5.880  15.793  0.00  0.00    +0.000 S 
ATOM      3  C   UNL     1       5.066   5.545  17.480  0.00  0.00    +0.000 A 
ATOM      4  N   UNL     1       6.127   4.895  17.916  0.00  0.00    +0.000 NA
ATOM      5  C   UNL     1       6.989   4.654  16.882  0.00  0.00    +0.000 A 
ENDROOT
BRANCH   3   6
ATOM      6  C   UNL     1       3.973   5.988  18.364  0.00  0.00    +0.000 A 
ATOM      7  C   UNL     1       3.552   5.275  19.490  0.00  0.00    +0.000 A 
ATOM      8  C   UNL     1       2.533   5.804  20.267  0.00  0.00    +0.000 A 
ATOM      9  N   UNL     1       1.912   6.971  20.004  0.00  0.00    +0.000 NA
ATOM     10  C   UNL     1       2.330   7.649  18.917  0.00  0.00    +0.000 A 
ATOM     11  C   UNL     1       3.340   7.208  18.082  0.00  0.00    +0.000 A 
ENDBRANCH   3   6
BRANCH   1  15
ATOM     12  C   UNL     1       7.347   4.201  12.018  0.00  0.00    +0.000 C 
ATOM     13  N   UNL     1       6.642   4.251  13.287  0.00  0.00    +0.000 N 
ATOM     14  C   UNL     1       5.382   3.530  13.366  0.00  0.00    +0.000 C 
ATOM     15  C   UNL     1       7.215   5.024  14.310  0.00  0.00    +0.000 C 
ATOM     16  O   UNL     1       8.224   5.686  14.058  0.00  0.00    +0.000 OA
ENDBRANCH   1  15
BRANCH   5  17
ATOM     17  O   UNL     1       8.154   4.050  17.145  0.00  0.00    +0.000 OA
ATOM     18  H   UNL     1       7.960   3.096  17.148  0.00  0.00    +0.000 HD
ENDBRANCH   5  17
TORSDOF 3
ENDMDL
MODEL 8
REMARK VINA RESULT:      -5.8      4.972      6.643
REMARK  Name = 
REMARK  5 active torsions:
REMARK  status: ('A' for Active; 'I' for Inactive)
REMARK    1  A    between atoms: C_1  and  N_2
REMARK    2  A    between atoms: N_2  and  C_3
REMARK    3  A    between atoms: C_4  and  C_6
REMARK    4  A    between atoms: C_8  and  C_9
REMARK    5  A    between atoms: C_16  and  O_17
REMARK                            x       y       z     vdW  Elec       q    Type
REMARK                         _______ _______ _______ _____ _____    ______ ____
ROOT
ATOM      1  C   UNL     1       1.331   9.329  19.490  0.00  0.00    +0.000 A 
ATOM      2  S   UNL     1       1.639   7.792  20.227  0.00  0.00    +0.000 S 
ATOM      3  C   UNL     1       2.407   7.239  18.791  0.00  0.00    +0.000 A 
ATOM      4  N   UNL     1       2.463   8.132  17.823  0.00  0.00    +0.000 NA
ATOM      5  C   UNL     1       1.881   9.301  18.227  0.00  0.00    +0.000 A 
ENDROOT
BRANCH   3   6
ATOM      6  C   UNL     1       2.989   5.889  18.678  0.00  0.00    +0.000 A 
ATOM      7  C   UNL     1       4.168   5.500  19.320  0.00  0.00    +0.000 A 
ATOM      8  C   UNL     1       4.607   4.194  19.164  0.00  0.00    +0.000 A 
ATOM      9  N   UNL     1       3.968   3.266  18.424  0.00  0.00    +0.000 NA
ATOM     10  C   UNL     1       2.831   3.655  17.812  0.00  0.00    +0.000 A 
ATOM     11  C   UNL     1       2.310   4.932  17.909  0.00  0.00    +0.000 A 
ENDBRANCH   3   6
BRANCH   1  15
ATOM     12  C   UNL     1      -1.175  11.905  20.685  0.00  0.00    +0.000 C 
ATOM     13  N   UNL     1      -0.595  10.842  19.883  0.00  0.00    +0.000 N 
ATOM     14  C   UNL     1      -1.388  10.356  18.766  0.00  0.00    +0.000 C 
ATOM     15  C   UNL     1       0.659  10.347  20.280  0.00  0.00    +0.000 C 
ATOM     16  O   UNL     1       1.157  10.769  21.326  0.00  0.00    +0.000 OA
ENDBRANCH   1  15
BRANCH   5  17
ATOM     17  O   UNL     1       1.894  10.347  17.392  0.00  0.00    +0.000 OA
ATOM     18  H   UNL     1       1.565  11.102  17.911  0.00  0.00    +0.000 HD
ENDBRANCH   5  17
TORSDOF 3
ENDMDL
MODEL 9
REMARK VINA RESULT:      -5.8      4.907      6.523
REMARK  Name = 
REMARK  5 active torsions:
REMARK  status: ('A' for Active; 'I' for Inactive)
REMARK    1  A    between atoms: C_1  and  N_2
REMARK    2  A    between atoms: N_2  and  C_3
REMARK    3  A    between atoms: C_4  and  C_6
REMARK    4  A    between atoms: C_8  and  C_9
REMARK    5  A    between atoms: C_16  and  O_17
REMARK                            x       y       z     vdW  Elec       q    Type
REMARK                         _______ _______ _______ _____ _____    ______ ____
ROOT
ATOM      1  C   UNL     1       1.340   9.307  19.492  0.00  0.00    +0.000 A 
ATOM      2  S   UNL     1       1.643   7.762  20.214  0.00  0.00    +0.000 S 
ATOM      3  C   UNL     1       2.401   7.218  18.769  0.00  0.00    +0.000 A 
ATOM      4  N   UNL     1       2.458   8.120  17.809  0.00  0.00    +0.000 NA
ATOM      5  C   UNL     1       1.885   9.289  18.227  0.00  0.00    +0.000 A 
ENDROOT
BRANCH   3   6
ATOM      6  C   UNL     1       2.976   5.867  18.640  0.00  0.00    +0.000 A 
ATOM      7  C   UNL     1       2.399   4.853  17.870  0.00  0.00    +0.000 A 
ATOM      8  C   UNL     1       3.045   3.628  17.798  0.00  0.00    +0.000 A 
ATOM      9  N   UNL     1       4.200   3.345  18.431  0.00  0.00    +0.000 NA
ATOM     10  C   UNL     1       4.746   4.333  19.168  0.00  0.00    +0.000 A 
ATOM     11  C   UNL     1       4.182   5.589  19.299  0.00  0.00    +0.000 A 
ENDBRANCH   3   6
BRANCH   1  15
ATOM     12  C   UNL     1      -1.145  11.887  20.721  0.00  0.00    +0.000 C 
ATOM     13  N   UNL     1      -0.574  10.829  19.906  0.00  0.00    +0.000 N 
ATOM     14  C   UNL     1      -1.374  10.360  18.786  0.00  0.00    +0.000 C 
ATOM     15  C   UNL     1       0.676  10.322  20.295  0.00  0.00    +0.000 C 
ATOM     16  O   UNL     1       1.181  10.729  21.344  0.00  0.00    +0.000 OA
ENDBRANCH   1  15
BRANCH   5  17
ATOM     17  O   UNL     1       1.900  10.342  17.402  0.00  0.00    +0.000 OA
ATOM     18  H   UNL     1       1.045  10.789  17.531  0.00  0.00    +0.000 HD
ENDBRANCH   5  17
TORSDOF 3
ENDMDL
