MODEL 1
REMARK VINA RESULT:      -8.7      0.000      0.000
REMARK  Name = 
REMARK  5 active torsions:
REMARK  status: ('A' for Active; 'I' for Inactive)
REMARK    1  A    between atoms: C_6  and  C_7
REMARK    2  A    between atoms: C_6  and  C_24
REMARK    3  A    between atoms: C_7  and  N_8
REMARK    4  A    between atoms: C_9  and  C_11
REMARK    5  A    between atoms: N_14  and  C_15
REMARK                            x       y       z     vdW  Elec       q    Type
REMARK                         _______ _______ _______ _____ _____    ______ ____
ROOT
ATOM      1  N   UNL     1       4.130   4.992  17.392  0.00  0.00    +0.000 N 
ATOM      2  C   UNL     1       4.167   4.792  18.757  0.00  0.00    +0.000 C 
ATOM      3  O   UNL     1       4.990   4.066  19.299  0.00  0.00    +0.000 OA
ATOM      4  H   UNL     1       3.450   5.670  17.042  0.00  0.00    +0.000 HD
ENDROOT
BRANCH   2   5
ATOM      5  C   UNL     1       3.157   5.526  19.506  0.00  0.00    +0.000 A 
ATOM      6  C   UNL     1       2.261   5.012  20.454  0.00  0.00    +0.000 A 
ATOM      7  N   UNL     1       1.487   5.985  20.937  0.00  0.00    +0.000 NA
ATOM      8  N   UNL     1       1.928   7.073  20.249  0.00  0.00    +0.000 N 
ATOM      9  N   UNL     1       2.949   6.848  19.381  0.00  0.00    +0.000 NA
BRANCH   8  10
ATOM     10  C   UNL     1       1.359   8.353  20.449  0.00  0.00    +0.000 A 
ATOM     11  C   UNL     1       1.001   8.766  21.745  0.00  0.00    +0.000 A 
ATOM     12  C   UNL     1       0.456  10.037  21.941  0.00  0.00    +0.000 A 
ATOM     13  C   UNL     1       0.267  10.881  20.853  0.00  0.00    +0.000 A 
ATOM     14  F   UNL     1      -0.249  12.100  21.044  0.00  0.00    +0.000 F 
ATOM     15  C   UNL     1       0.604  10.479  19.567  0.00  0.00    +0.000 A 
ATOM     16  C   UNL     1       1.149   9.216  19.370  0.00  0.00    +0.000 A 
ATOM     17  F   UNL     1       1.463   8.873  18.112  0.00  0.00    +0.000 F 
ENDBRANCH   8  10
ENDBRANCH   2   5
BRANCH   1  18
ATOM     18  C   UNL     1       5.094   4.357  16.501  0.00  0.00    +0.000 C 
BRANCH  18  24
ATOM     19  O   UNL     1       6.996   8.440  17.335  0.00  0.00    +0.000 OA
ATOM     20  C   UNL     1       6.960   7.258  17.044  0.00  0.00    +0.000 C 
ATOM     21  N   UNL     1       7.810   6.307  17.494  0.00  0.00    +0.000 N 
ATOM     22  C   UNL     1       7.482   5.087  16.987  0.00  0.00    +0.000 C 
ATOM     23  O   UNL     1       8.070   4.051  17.266  0.00  0.00    +0.000 OA
ATOM     24  C   UNL     1       6.275   5.241  16.047  0.00  0.00    +0.000 C 
ATOM     25  N   UNL     1       6.042   6.667  16.218  0.00  0.00    +0.000 N 
ATOM     26  H   UNL     1       8.567   6.485  18.130  0.00  0.00    +0.000 HD
ATOM     27  H   UNL     1       5.366   7.206  15.691  0.00  0.00    +0.000 HD
BRANCH  24  28
ATOM     28  C   UNL     1       6.710   4.946  14.622  0.00  0.00    +0.000 A 
ATOM     29  N   UNL     1       7.746   5.503  14.017  0.00  0.00    +0.000 NA
ATOM     30  C   UNL     1       7.897   4.981  12.746  0.00  0.00    +0.000 A 
ATOM     31  C   UNL     1       6.955   4.053  12.368  0.00  0.00    +0.000 A 
ATOM     32  S   UNL     1       5.821   3.838  13.628  0.00  0.00    +0.000 S 
ENDBRANCH  24  28
ENDBRANCH  18  24
ENDBRANCH   1  18
TORSDOF 5
ENDMDL
MODEL 2
REMARK VINA RESULT:      -8.5      1.776      2.434
REMARK  Name = 
REMARK  5 active torsions:
REMARK  status: ('A' for Active; 'I' for Inactive)
REMARK    1  A    between atoms: C_6  and  C_7
REMARK    2  A    between atoms: C_6  and  C_24
REMARK    3  A    between atoms: C_7  and  N_8
REMARK    4  A    between atoms: C_9  and  C_11
REMARK    5  A    between atoms: N_14  and  C_15
REMARK                            x       y       z     vdW  Elec       q    Type
REMARK                         _______ _______ _______ _____ _____    ______ ____
ROOT
ATOM      1  N   UNL     1       3.886   6.674  17.829  0.00  0.00    +0.000 N 
ATOM      2  C   UNL     1       2.982   6.631  18.872  0.00  0.00    +0.000 C 
ATOM      3  O   UNL     1       2.861   5.658  19.604  0.00  0.00    +0.000 OA
ATOM      4  H   UNL     1       3.962   7.556  17.318  0.00  0.00    +0.000 HD
ENDROOT
BRANCH   2   5
ATOM      5  C   UNL     1       2.192   7.842  19.041  0.00  0.00    +0.000 A 
ATOM      6  C   UNL     1       1.974   8.854  18.095  0.00  0.00    +0.000 A 
ATOM      7  N   UNL     1       1.193   9.807  18.605  0.00  0.00    +0.000 NA
ATOM      8  N   UNL     1       0.969   9.350  19.868  0.00  0.00    +0.000 N 
ATOM      9  N   UNL     1       1.542   8.156  20.174  0.00  0.00    +0.000 NA
BRANCH   8  10
ATOM     10  C   UNL     1       0.174  10.077  20.785  0.00  0.00    +0.000 A 
ATOM     11  C   UNL     1      -0.647  11.123  20.326  0.00  0.00    +0.000 A 
ATOM     12  C   UNL     1      -1.444  11.827  21.231  0.00  0.00    +0.000 A 
ATOM     13  C   UNL     1      -1.414  11.493  22.580  0.00  0.00    +0.000 A 
ATOM     14  F   UNL     1      -2.183  12.164  23.444  0.00  0.00    +0.000 F 
ATOM     15  C   UNL     1      -0.598  10.472  23.048  0.00  0.00    +0.000 A 
ATOM     16  C   UNL     1       0.194   9.767  22.148  0.00  0.00    +0.000 A 
ATOM     17  F   UNL     1       0.963   8.787  22.644  0.00  0.00    +0.000 F 
ENDBRANCH   8  10
ENDBRANCH   2   5
BRANCH   1  18
ATOM     18  C   UNL     1       4.777   5.556  17.545  0.00  0.00    +0.000 C 
BRANCH  18  24
ATOM     19  O   UNL     1       7.927   8.874  17.775  0.00  0.00    +0.000 OA
ATOM     20  C   UNL     1       7.500   7.739  17.670  0.00  0.00    +0.000 C 
ATOM     21  N   UNL     1       8.009   6.643  18.277  0.00  0.00    +0.000 N 
ATOM     22  C   UNL     1       7.288   5.534  17.958  0.00  0.00    +0.000 C 
ATOM     23  O   UNL     1       7.517   4.418  18.405  0.00  0.00    +0.000 OA
ATOM     24  C   UNL     1       6.166   5.927  16.983  0.00  0.00    +0.000 C 
ATOM     25  N   UNL     1       6.414   7.360  16.927  0.00  0.00    +0.000 N 
ATOM     26  H   UNL     1       8.804   6.660  18.892  0.00  0.00    +0.000 HD
ATOM     27  H   UNL     1       5.932   8.004  16.311  0.00  0.00    +0.000 HD
BRANCH  24  28
ATOM     28  C   UNL     1       6.436   5.294  15.629  0.00  0.00    +0.000 A 
ATOM     29  N   UNL     1       7.472   5.574  14.856  0.00  0.00    +0.000 NA
ATOM     30  C   UNL     1       7.448   4.790  13.718  0.00  0.00    +0.000 A 
ATOM     31  C   UNL     1       6.374   3.937  13.606  0.00  0.00    +0.000 A 
ATOM     32  S   UNL     1       5.339   4.135  14.951  0.00  0.00    +0.000 S 
ENDBRANCH  24  28
ENDBRANCH  18  24
ENDBRANCH   1  18
TORSDOF 5
ENDMDL
MODEL 3
REMARK VINA RESULT:      -8.5      1.538      2.077
REMARK  Name = 
REMARK  5 active torsions:
REMARK  status: ('A' for Active; 'I' for Inactive)
REMARK    1  A    between atoms: C_6  and  C_7
REMARK    2  A    between atoms: C_6  and  C_24
REMARK    3  A    between atoms: C_7  and  N_8
REMARK    4  A    between atoms: C_9  and  C_11
REMARK    5  A    between atoms: N_14  and  C_15
REMARK                            x       y       z     vdW  Elec       q    Type
REMARK                         _______ _______ _______ _____ _____    ______ ____
ROOT
ATOM      1  N   UNL     1       3.814   6.438  17.706  0.00  0.00    +0.000 N 
ATOM      2  C   UNL     1       3.201   6.517  18.940  0.00  0.00    +0.000 C 
ATOM      3  O   UNL     1       3.394   5.699  19.830  0.00  0.00    +0.000 OA
ATOM      4  H   UNL     1       3.643   7.207  17.054  0.00  0.00    +0.000 HD
ENDROOT
BRANCH   2   5
ATOM      5  C   UNL     1       2.316   7.662  19.106  0.00  0.00    +0.000 A 
ATOM      6  C   UNL     1       1.919   8.579  18.123  0.00  0.00    +0.000 A 
ATOM      7  N   UNL     1       1.097   9.491  18.643  0.00  0.00    +0.000 NA
ATOM      8  N   UNL     1       1.030   9.108  19.948  0.00  0.00    +0.000 N 
ATOM      9  N   UNL     1       1.741   7.996  20.274  0.00  0.00    +0.000 NA
BRANCH   8  10
ATOM     10  C   UNL     1       0.253   9.824  20.888  0.00  0.00    +0.000 A 
ATOM     11  C   UNL     1       0.068   9.309  22.184  0.00  0.00    +0.000 A 
ATOM     12  C   UNL     1      -0.684  10.027  23.116  0.00  0.00    +0.000 A 
ATOM     13  C   UNL     1      -1.249  11.244  22.752  0.00  0.00    +0.000 A 
ATOM     14  F   UNL     1      -1.964  11.935  23.648  0.00  0.00    +0.000 F 
ATOM     15  C   UNL     1      -1.085  11.758  21.473  0.00  0.00    +0.000 A 
ATOM     16  C   UNL     1      -0.334  11.045  20.545  0.00  0.00    +0.000 A 
ATOM     17  F   UNL     1      -0.199  11.582  19.323  0.00  0.00    +0.000 F 
ENDBRANCH   8  10
ENDBRANCH   2   5
BRANCH   1  18
ATOM     18  C   UNL     1       4.756   5.372  17.388  0.00  0.00    +0.000 C 
BRANCH  18  24
ATOM     19  O   UNL     1       7.728   8.843  17.705  0.00  0.00    +0.000 OA
ATOM     20  C   UNL     1       7.361   7.690  17.575  0.00  0.00    +0.000 C 
ATOM     21  N   UNL     1       7.922   6.611  18.167  0.00  0.00    +0.000 N 
ATOM     22  C   UNL     1       7.262   5.472  17.822  0.00  0.00    +0.000 C 
ATOM     23  O   UNL     1       7.544   4.361  18.250  0.00  0.00    +0.000 OA
ATOM     24  C   UNL     1       6.128   5.825  16.845  0.00  0.00    +0.000 C 
ATOM     25  N   UNL     1       6.302   7.269  16.817  0.00  0.00    +0.000 N 
ATOM     26  H   UNL     1       8.710   6.657  18.789  0.00  0.00    +0.000 HD
ATOM     27  H   UNL     1       5.792   7.899  16.209  0.00  0.00    +0.000 HD
BRANCH  24  28
ATOM     28  C   UNL     1       6.440   5.231  15.482  0.00  0.00    +0.000 A 
ATOM     29  N   UNL     1       7.540   5.471  14.786  0.00  0.00    +0.000 NA
ATOM     30  C   UNL     1       7.535   4.739  13.614  0.00  0.00    +0.000 A 
ATOM     31  C   UNL     1       6.416   3.969  13.398  0.00  0.00    +0.000 A 
ATOM     32  S   UNL     1       5.313   4.181  14.685  0.00  0.00    +0.000 S 
ENDBRANCH  24  28
ENDBRANCH  18  24
ENDBRANCH   1  18
TORSDOF 5
ENDMDL
MODEL 4
REMARK VINA RESULT:      -8.4      1.880      2.368
REMARK  Name = 
REMARK  5 active torsions:
REMARK  status: ('A' for Active; 'I' for Inactive)
REMARK    1  A    between atoms: C_6  and  C_7
REMARK    2  A    between atoms: C_6  and  C_24
REMARK    3  A    between atoms: C_7  and  N_8
REMARK    4  A    between atoms: C_9  and  C_11
REMARK    5  A    between atoms: N_14  and  C_15
REMARK                            x       y       z     vdW  Elec       q    Type
REMARK                         _______ _______ _______ _____ _____    ______ ____
ROOT
ATOM      1  N   UNL     1       4.005   6.598  18.164  0.00  0.00    +0.000 N 
ATOM      2  C   UNL     1       2.848   6.338  18.870  0.00  0.00    +0.000 C 
ATOM      3  O   UNL     1       2.437   5.204  19.076  0.00  0.00    +0.000 OA
ATOM      4  H   UNL     1       4.302   7.574  18.105  0.00  0.00    +0.000 HD
ENDROOT
BRANCH   2   5
ATOM      5  C   UNL     1       2.160   7.522  19.366  0.00  0.00    +0.000 A 
ATOM      6  C   UNL     1       1.647   7.731  20.654  0.00  0.00    +0.000 A 
ATOM      7  N   UNL     1       1.088   8.938  20.742  0.00  0.00    +0.000 NA
ATOM      8  N   UNL     1       1.264   9.429  19.484  0.00  0.00    +0.000 N 
ATOM      9  N   UNL     1       1.921   8.613  18.619  0.00  0.00    +0.000 NA
BRANCH   8  10
ATOM     10  C   UNL     1       0.799  10.715  19.124  0.00  0.00    +0.000 A 
ATOM     11  C   UNL     1       1.710  11.781  18.998  0.00  0.00    +0.000 A 
ATOM     12  C   UNL     1       1.250  13.045  18.624  0.00  0.00    +0.000 A 
ATOM     13  C   UNL     1      -0.105  13.242  18.384  0.00  0.00    +0.000 A 
ATOM     14  F   UNL     1      -0.543  14.452  18.019  0.00  0.00    +0.000 F 
ATOM     15  C   UNL     1      -1.015  12.202  18.517  0.00  0.00    +0.000 A 
ATOM     16  C   UNL     1      -0.559  10.942  18.886  0.00  0.00    +0.000 A 
ATOM     17  F   UNL     1      -1.474   9.967  18.998  0.00  0.00    +0.000 F 
ENDBRANCH   8  10
ENDBRANCH   2   5
BRANCH   1  18
ATOM     18  C   UNL     1       4.830   5.522  17.629  0.00  0.00    +0.000 C 
BRANCH  18  24
ATOM     19  O   UNL     1       7.830   8.982  17.738  0.00  0.00    +0.000 OA
ATOM     20  C   UNL     1       7.453   7.827  17.657  0.00  0.00    +0.000 C 
ATOM     21  N   UNL     1       8.027   6.764  18.263  0.00  0.00    +0.000 N 
ATOM     22  C   UNL     1       7.349   5.619  17.976  0.00  0.00    +0.000 C 
ATOM     23  O   UNL     1       7.640   4.520  18.429  0.00  0.00    +0.000 OA
ATOM     24  C   UNL     1       6.186   5.949  17.026  0.00  0.00    +0.000 C 
ATOM     25  N   UNL     1       6.367   7.390  16.948  0.00  0.00    +0.000 N 
ATOM     26  H   UNL     1       8.836   6.824  18.857  0.00  0.00    +0.000 HD
ATOM     27  H   UNL     1       5.840   8.004  16.337  0.00  0.00    +0.000 HD
BRANCH  24  28
ATOM     28  C   UNL     1       6.449   5.311  15.673  0.00  0.00    +0.000 A 
ATOM     29  N   UNL     1       7.485   5.585  14.896  0.00  0.00    +0.000 NA
ATOM     30  C   UNL     1       7.453   4.799  13.760  0.00  0.00    +0.000 A 
ATOM     31  C   UNL     1       6.376   3.951  13.653  0.00  0.00    +0.000 A 
ATOM     32  S   UNL     1       5.345   4.156  15.000  0.00  0.00    +0.000 S 
ENDBRANCH  24  28
ENDBRANCH  18  24
ENDBRANCH   1  18
TORSDOF 5
ENDMDL
MODEL 5
REMARK VINA RESULT:      -8.3      0.908      1.274
REMARK  Name = 
REMARK  5 active torsions:
REMARK  status: ('A' for Active; 'I' for Inactive)
REMARK    1  A    between atoms: C_6  and  C_7
REMARK    2  A    between atoms: C_6  and  C_24
REMARK    3  A    between atoms: C_7  and  N_8
REMARK    4  A    between atoms: C_9  and  C_11
REMARK    5  A    between atoms: N_14  and  C_15
REMARK                            x       y       z     vdW  Elec       q    Type
REMARK                         _______ _______ _______ _____ _____    ______ ____
ROOT
ATOM      1  N   UNL     1       4.095   5.113  17.384  0.00  0.00    +0.000 N 
ATOM      2  C   UNL     1       4.187   5.141  18.761  0.00  0.00    +0.000 C 
ATOM      3  O   UNL     1       5.084   4.580  19.377  0.00  0.00    +0.000 OA
ATOM      4  H   UNL     1       3.351   5.670  16.959  0.00  0.00    +0.000 HD
ENDROOT
BRANCH   2   5
ATOM      5  C   UNL     1       3.140   5.905  19.425  0.00  0.00    +0.000 A 
ATOM      6  C   UNL     1       2.219   5.439  20.373  0.00  0.00    +0.000 A 
ATOM      7  N   UNL     1       1.414   6.427  20.764  0.00  0.00    +0.000 NA
ATOM      8  N   UNL     1       1.862   7.476  20.020  0.00  0.00    +0.000 N 
ATOM      9  N   UNL     1       2.917   7.212  19.204  0.00  0.00    +0.000 NA
BRANCH   8  10
ATOM     10  C   UNL     1       1.267   8.755  20.115  0.00  0.00    +0.000 A 
ATOM     11  C   UNL     1       0.924   9.457  18.945  0.00  0.00    +0.000 A 
ATOM     12  C   UNL     1       0.319  10.712  19.041  0.00  0.00    +0.000 A 
ATOM     13  C   UNL     1       0.067  11.260  20.294  0.00  0.00    +0.000 A 
ATOM     14  F   UNL     1      -0.519  12.460  20.384  0.00  0.00    +0.000 F 
ATOM     15  C   UNL     1       0.412  10.583  21.456  0.00  0.00    +0.000 A 
ATOM     16  C   UNL     1       1.011   9.332  21.362  0.00  0.00    +0.000 A 
ATOM     17  F   UNL     1       1.323   8.714  22.510  0.00  0.00    +0.000 F 
ENDBRANCH   8  10
ENDBRANCH   2   5
BRANCH   1  18
ATOM     18  C   UNL     1       5.084   4.420  16.567  0.00  0.00    +0.000 C 
BRANCH  18  24
ATOM     19  O   UNL     1       7.094   8.462  17.342  0.00  0.00    +0.000 OA
ATOM     20  C   UNL     1       7.026   7.280  17.061  0.00  0.00    +0.000 C 
ATOM     21  N   UNL     1       7.858   6.312  17.508  0.00  0.00    +0.000 N 
ATOM     22  C   UNL     1       7.495   5.097  17.015  0.00  0.00    +0.000 C 
ATOM     23  O   UNL     1       8.062   4.049  17.295  0.00  0.00    +0.000 OA
ATOM     24  C   UNL     1       6.280   5.271  16.090  0.00  0.00    +0.000 C 
ATOM     25  N   UNL     1       6.083   6.704  16.253  0.00  0.00    +0.000 N 
ATOM     26  H   UNL     1       8.628   6.477  18.132  0.00  0.00    +0.000 HD
ATOM     27  H   UNL     1       5.413   7.256  15.730  0.00  0.00    +0.000 HD
BRANCH  24  28
ATOM     28  C   UNL     1       6.688   4.955  14.662  0.00  0.00    +0.000 A 
ATOM     29  N   UNL     1       7.717   5.498  14.032  0.00  0.00    +0.000 NA
ATOM     30  C   UNL     1       7.843   4.959  12.765  0.00  0.00    +0.000 A 
ATOM     31  C   UNL     1       6.890   4.030  12.417  0.00  0.00    +0.000 A 
ATOM     32  S   UNL     1       5.776   3.839  13.699  0.00  0.00    +0.000 S 
ENDBRANCH  24  28
ENDBRANCH  18  24
ENDBRANCH   1  18
TORSDOF 5
ENDMDL
MODEL 6
REMARK VINA RESULT:      -8.3      3.016      4.519
REMARK  Name = 
REMARK  5 active torsions:
REMARK  status: ('A' for Active; 'I' for Inactive)
REMARK    1  A    between atoms: C_6  and  C_7
REMARK    2  A    between atoms: C_6  and  C_24
REMARK    3  A    between atoms: C_7  and  N_8
REMARK    4  A    between atoms: C_9  and  C_11
REMARK    5  A    between atoms: N_14  and  C_15
REMARK                            x       y       z     vdW  Elec       q    Type
REMARK                         _______ _______ _______ _____ _____    ______ ____
ROOT
ATOM      1  N   UNL     1       2.205   6.113  18.228  0.00  0.00    +0.000 N 
ATOM      2  C   UNL     1       2.847   7.321  18.039  0.00  0.00    +0.000 C 
ATOM      3  O   UNL     1       3.946   7.412  17.510  0.00  0.00    +0.000 OA
ATOM      4  H   UNL     1       1.260   6.148  18.616  0.00  0.00    +0.000 HD
ENDROOT
BRANCH   2   5
ATOM      5  C   UNL     1       2.104   8.483  18.507  0.00  0.00    +0.000 A 
ATOM      6  C   UNL     1       1.956   9.716  17.855  0.00  0.00    +0.000 A 
ATOM      7  N   UNL     1       1.201  10.539  18.584  0.00  0.00    +0.000 NA
ATOM      8  N   UNL     1       0.923   9.780  19.680  0.00  0.00    +0.000 N 
ATOM      9  N   UNL     1       1.436   8.522  19.672  0.00  0.00    +0.000 NA
BRANCH   8  10
ATOM     10  C   UNL     1       0.134  10.281  20.742  0.00  0.00    +0.000 A 
ATOM     11  C   UNL     1      -0.718  11.380  20.526  0.00  0.00    +0.000 A 
ATOM     12  C   UNL     1      -1.508  11.860  21.572  0.00  0.00    +0.000 A 
ATOM     13  C   UNL     1      -1.442  11.252  22.821  0.00  0.00    +0.000 A 
ATOM     14  F   UNL     1      -2.205  11.710  23.820  0.00  0.00    +0.000 F 
ATOM     15  C   UNL     1      -0.595  10.176  23.050  0.00  0.00    +0.000 A 
ATOM     16  C   UNL     1       0.190   9.694  22.009  0.00  0.00    +0.000 A 
ATOM     17  F   UNL     1       0.989   8.650  22.276  0.00  0.00    +0.000 F 
ENDBRANCH   8  10
ENDBRANCH   2   5
BRANCH   1  18
ATOM     18  C   UNL     1       2.797   4.857  17.786  0.00  0.00    +0.000 C 
BRANCH  18  24
ATOM     19  O   UNL     1       2.660   2.943  21.945  0.00  0.00    +0.000 OA
ATOM     20  C   UNL     1       3.019   3.095  20.792  0.00  0.00    +0.000 C 
ATOM     21  N   UNL     1       3.214   2.106  19.889  0.00  0.00    +0.000 N 
ATOM     22  C   UNL     1       3.601   2.618  18.689  0.00  0.00    +0.000 C 
ATOM     23  O   UNL     1       3.807   1.940  17.691  0.00  0.00    +0.000 OA
ATOM     24  C   UNL     1       3.712   4.147  18.806  0.00  0.00    +0.000 C 
ATOM     25  N   UNL     1       3.278   4.295  20.187  0.00  0.00    +0.000 N 
ATOM     26  H   UNL     1       3.074   1.131  20.085  0.00  0.00    +0.000 HD
ATOM     27  H   UNL     1       3.288   5.167  20.703  0.00  0.00    +0.000 HD
BRANCH  24  28
ATOM     28  C   UNL     1       5.169   4.555  18.665  0.00  0.00    +0.000 A 
ATOM     29  N   UNL     1       5.924   5.013  19.651  0.00  0.00    +0.000 NA
ATOM     30  C   UNL     1       7.210   5.243  19.201  0.00  0.00    +0.000 A 
ATOM     31  C   UNL     1       7.427   4.996  17.865  0.00  0.00    +0.000 A 
ATOM     32  S   UNL     1       5.972   4.483  17.131  0.00  0.00    +0.000 S 
ENDBRANCH  24  28
ENDBRANCH  18  24
ENDBRANCH   1  18
TORSDOF 5
ENDMDL
MODEL 7
REMARK VINA RESULT:      -8.2      5.851      9.814
REMARK  Name = 
REMARK  5 active torsions:
REMARK  status: ('A' for Active; 'I' for Inactive)
REMARK    1  A    between atoms: C_6  and  C_7
REMARK    2  A    between atoms: C_6  and  C_24
REMARK    3  A    between atoms: C_7  and  N_8
REMARK    4  A    between atoms: C_9  and  C_11
REMARK    5  A    between atoms: N_14  and  C_15
REMARK                            x       y       z     vdW  Elec       q    Type
REMARK                         _______ _______ _______ _____ _____    ______ ____
ROOT
ATOM      1  N   UNL     1      -0.891  10.351  18.476  0.00  0.00    +0.000 N 
ATOM      2  C   UNL     1       0.456  10.532  18.719  0.00  0.00    +0.000 C 
ATOM      3  O   UNL     1       0.980  11.638  18.752  0.00  0.00    +0.000 OA
ATOM      4  H   UNL     1      -1.247   9.394  18.538  0.00  0.00    +0.000 HD
ENDROOT
BRANCH   2   5
ATOM      5  C   UNL     1       1.203   9.304  18.947  0.00  0.00    +0.000 A 
ATOM      6  C   UNL     1       1.400   8.643  20.168  0.00  0.00    +0.000 A 
ATOM      7  N   UNL     1       2.133   7.544  19.989  0.00  0.00    +0.000 NA
ATOM      8  N   UNL     1       2.378   7.576  18.650  0.00  0.00    +0.000 N 
ATOM      9  N   UNL     1       1.823   8.616  17.973  0.00  0.00    +0.000 NA
BRANCH   8  10
ATOM     10  C   UNL     1       3.151   6.574  18.017  0.00  0.00    +0.000 A 
ATOM     11  C   UNL     1       4.378   6.911  17.417  0.00  0.00    +0.000 A 
ATOM     12  C   UNL     1       5.148   5.916  16.809  0.00  0.00    +0.000 A 
ATOM     13  C   UNL     1       4.691   4.603  16.798  0.00  0.00    +0.000 A 
ATOM     14  F   UNL     1       5.433   3.650  16.221  0.00  0.00    +0.000 F 
ATOM     15  C   UNL     1       3.477   4.261  17.376  0.00  0.00    +0.000 A 
ATOM     16  C   UNL     1       2.710   5.249  17.985  0.00  0.00    +0.000 A 
ATOM     17  F   UNL     1       1.547   4.871  18.533  0.00  0.00    +0.000 F 
ENDBRANCH   8  10
ENDBRANCH   2   5
BRANCH   1  18
ATOM     18  C   UNL     1      -1.787  11.480  18.261  0.00  0.00    +0.000 C 
BRANCH  18  24
ATOM     19  O   UNL     1      -2.718  10.406  13.906  0.00  0.00    +0.000 OA
ATOM     20  C   UNL     1      -2.869  10.422  15.114  0.00  0.00    +0.000 C 
ATOM     21  N   UNL     1      -3.206   9.360  15.882  0.00  0.00    +0.000 N 
ATOM     22  C   UNL     1      -3.279   9.717  17.193  0.00  0.00    +0.000 C 
ATOM     23  O   UNL     1      -3.529   8.935  18.101  0.00  0.00    +0.000 OA
ATOM     24  C   UNL     1      -2.986  11.220  17.323  0.00  0.00    +0.000 C 
ATOM     25  N   UNL     1      -2.712  11.513  15.924  0.00  0.00    +0.000 N 
ATOM     26  H   UNL     1      -3.363   8.435  15.524  0.00  0.00    +0.000 HD
ATOM     27  H   UNL     1      -2.552  12.442  15.552  0.00  0.00    +0.000 HD
BRANCH  24  28
ATOM     28  C   UNL     1      -4.246  11.939  17.775  0.00  0.00    +0.000 A 
ATOM     29  N   UNL     1      -5.253  12.269  16.982  0.00  0.00    +0.000 NA
ATOM     30  C   UNL     1      -6.262  12.866  17.714  0.00  0.00    +0.000 A 
ATOM     31  C   UNL     1      -6.011  13.024  19.057  0.00  0.00    +0.000 A 
ATOM     32  S   UNL     1      -4.450  12.434  19.423  0.00  0.00    +0.000 S 
ENDBRANCH  24  28
ENDBRANCH  18  24
ENDBRANCH   1  18
TORSDOF 5
ENDMDL
MODEL 8
REMARK VINA RESULT:      -8.1      2.762      4.230
REMARK  Name = 
REMARK  5 active torsions:
REMARK  status: ('A' for Active; 'I' for Inactive)
REMARK    1  A    between atoms: C_6  and  C_7
REMARK    2  A    between atoms: C_6  and  C_24
REMARK    3  A    between atoms: C_7  and  N_8
REMARK    4  A    between atoms: C_9  and  C_11
REMARK    5  A    between atoms: N_14  and  C_15
REMARK                            x       y       z     vdW  Elec       q    Type
REMARK                         _______ _______ _______ _____ _____    ______ ____
ROOT
ATOM      1  N   UNL     1       3.156   6.853  18.421  0.00  0.00    +0.000 N 
ATOM      2  C   UNL     1       2.493   8.058  18.289  0.00  0.00    +0.000 C 
ATOM      3  O   UNL     1       2.552   8.739  17.273  0.00  0.00    +0.000 OA
ATOM      4  H   UNL     1       2.988   6.325  19.280  0.00  0.00    +0.000 HD
ENDROOT
BRANCH   2   5
ATOM      5  C   UNL     1       1.706   8.448  19.449  0.00  0.00    +0.000 A 
ATOM      6  C   UNL     1       1.590   7.763  20.667  0.00  0.00    +0.000 A 
ATOM      7  N   UNL     1       0.785   8.426  21.499  0.00  0.00    +0.000 NA
ATOM      8  N   UNL     1       0.417   9.501  20.747  0.00  0.00    +0.000 N 
ATOM      9  N   UNL     1       0.960   9.565  19.503  0.00  0.00    +0.000 NA
BRANCH   8  10
ATOM     10  C   UNL     1      -0.466  10.485  21.251  0.00  0.00    +0.000 A 
ATOM     11  C   UNL     1      -1.087  11.387  20.368  0.00  0.00    +0.000 A 
ATOM     12  C   UNL     1      -1.972  12.346  20.867  0.00  0.00    +0.000 A 
ATOM     13  C   UNL     1      -2.225  12.405  22.233  0.00  0.00    +0.000 A 
ATOM     14  F   UNL     1      -3.078  13.320  22.707  0.00  0.00    +0.000 F 
ATOM     15  C   UNL     1      -1.608  11.529  23.115  0.00  0.00    +0.000 A 
ATOM     16  C   UNL     1      -0.730  10.571  22.621  0.00  0.00    +0.000 A 
ATOM     17  F   UNL     1      -0.161   9.744  23.510  0.00  0.00    +0.000 F 
ENDBRANCH   8  10
ENDBRANCH   2   5
BRANCH   1  18
ATOM     18  C   UNL     1       3.960   6.302  17.337  0.00  0.00    +0.000 C 
BRANCH  18  24
ATOM     19  O   UNL     1       7.920   4.180  16.444  0.00  0.00    +0.000 OA
ATOM     20  C   UNL     1       6.947   4.508  17.097  0.00  0.00    +0.000 C 
ATOM     21  N   UNL     1       6.954   4.863  18.402  0.00  0.00    +0.000 N 
ATOM     22  C   UNL     1       5.700   5.186  18.822  0.00  0.00    +0.000 C 
ATOM     23  O   UNL     1       5.437   5.577  19.951  0.00  0.00    +0.000 OA
ATOM     24  C   UNL     1       4.715   4.994  17.657  0.00  0.00    +0.000 C 
ATOM     25  N   UNL     1       5.664   4.595  16.629  0.00  0.00    +0.000 N 
ATOM     26  H   UNL     1       7.781   4.895  18.972  0.00  0.00    +0.000 HD
ATOM     27  H   UNL     1       5.407   4.284  15.699  0.00  0.00    +0.000 HD
BRANCH  24  28
ATOM     28  C   UNL     1       3.776   3.844  17.981  0.00  0.00    +0.000 A 
ATOM     29  N   UNL     1       2.549   3.712  17.502  0.00  0.00    +0.000 NA
ATOM     30  C   UNL     1       1.984   2.534  17.952  0.00  0.00    +0.000 A 
ATOM     31  C   UNL     1       2.764   1.785  18.802  0.00  0.00    +0.000 A 
ATOM     32  S   UNL     1       4.248   2.586  19.077  0.00  0.00    +0.000 S 
ENDBRANCH  24  28
ENDBRANCH  18  24
ENDBRANCH   1  18
TORSDOF 5
ENDMDL
MODEL 9
REMARK VINA RESULT:      -8.1      2.972      4.474
REMARK  Name = 
REMARK  5 active torsions:
REMARK  status: ('A' for Active; 'I' for Inactive)
REMARK    1  A    between atoms: C_6  and  C_7
REMARK    2  A    between atoms: C_6  and  C_24
REMARK    3  A    between atoms: C_7  and  N_8
REMARK    4  A    between atoms: C_9  and  C_11
REMARK    5  A    between atoms: N_14  and  C_15
REMARK                            x       y       z     vdW  Elec       q    Type
REMARK                         _______ _______ _______ _____ _____    ______ ____
ROOT
ATOM      1  N   UNL     1       2.207   6.171  18.244  0.00  0.00    +0.000 N 
ATOM      2  C   UNL     1       2.831   7.385  18.035  0.00  0.00    +0.000 C 
ATOM      3  O   UNL     1       3.918   7.485  17.483  0.00  0.00    +0.000 OA
ATOM      4  H   UNL     1       1.270   6.196  18.652  0.00  0.00    +0.000 HD
ENDROOT
BRANCH   2   5
ATOM      5  C   UNL     1       2.085   8.541  18.513  0.00  0.00    +0.000 A 
ATOM      6  C   UNL     1       1.951   9.785  17.882  0.00  0.00    +0.000 A 
ATOM      7  N   UNL     1       1.189  10.598  18.614  0.00  0.00    +0.000 NA
ATOM      8  N   UNL     1       0.890   9.820  19.691  0.00  0.00    +0.000 N 
ATOM      9  N   UNL     1       1.400   8.560  19.668  0.00  0.00    +0.000 NA
BRANCH   8  10
ATOM     10  C   UNL     1       0.088  10.304  20.751  0.00  0.00    +0.000 A 
ATOM     11  C   UNL     1       0.106   9.654  21.998  0.00  0.00    +0.000 A 
ATOM     12  C   UNL     1      -0.674  10.145  23.047  0.00  0.00    +0.000 A 
ATOM     13  C   UNL     1      -1.466  11.270  22.848  0.00  0.00    +0.000 A 
ATOM     14  F   UNL     1      -2.207  11.743  23.857  0.00  0.00    +0.000 F 
ATOM     15  C   UNL     1      -1.503  11.913  21.619  0.00  0.00    +0.000 A 
ATOM     16  C   UNL     1      -0.725  11.428  20.574  0.00  0.00    +0.000 A 
ATOM     17  F   UNL     1      -0.789  12.083  19.406  0.00  0.00    +0.000 F 
ENDBRANCH   8  10
ENDBRANCH   2   5
BRANCH   1  18
ATOM     18  C   UNL     1       2.804   4.919  17.795  0.00  0.00    +0.000 C 
BRANCH  18  24
ATOM     19  O   UNL     1       2.629   2.979  21.941  0.00  0.00    +0.000 OA
ATOM     20  C   UNL     1       2.997   3.136  20.792  0.00  0.00    +0.000 C 
ATOM     21  N   UNL     1       3.195   2.153  19.884  0.00  0.00    +0.000 N 
ATOM     22  C   UNL     1       3.593   2.671  18.690  0.00  0.00    +0.000 C 
ATOM     23  O   UNL     1       3.804   1.999  17.689  0.00  0.00    +0.000 OA
ATOM     24  C   UNL     1       3.709   4.199  18.818  0.00  0.00    +0.000 C 
ATOM     25  N   UNL     1       3.265   4.339  20.196  0.00  0.00    +0.000 N 
ATOM     26  H   UNL     1       3.051   1.177  20.072  0.00  0.00    +0.000 HD
ATOM     27  H   UNL     1       3.274   5.208  20.718  0.00  0.00    +0.000 HD
BRANCH  24  28
ATOM     28  C   UNL     1       5.168   4.602  18.690  0.00  0.00    +0.000 A 
ATOM     29  N   UNL     1       5.906   5.090  19.675  0.00  0.00    +0.000 NA
ATOM     30  C   UNL     1       7.200   5.307  19.241  0.00  0.00    +0.000 A 
ATOM     31  C   UNL     1       7.440   5.019  17.917  0.00  0.00    +0.000 A 
ATOM     32  S   UNL     1       5.998   4.485  17.173  0.00  0.00    +0.000 S 
ENDBRANCH  24  28
ENDBRANCH  18  24
ENDBRANCH   1  18
TORSDOF 5
ENDMDL
