MODEL 1
REMARK VINA RESULT:      -7.6      0.000      0.000
REMARK  Name = 
REMARK  3 active torsions:
REMARK  status: ('A' for Active; 'I' for Inactive)
REMARK    1  A    between atoms: C_1  and  C_2
REMARK    2  A    between atoms: C_5  and  C_6
REMARK    3  A    between atoms: C_7  and  N_8
REMARK                            x       y       z     vdW  Elec       q    Type
REMARK                         _______ _______ _______ _____ _____    ______ ____
ROOT
ATOM      1  N   UNL     1       2.373   7.252  19.723  0.00  0.00    +0.000 N 
ATOM      2  C   UNL     1       1.666   8.385  19.319  0.00  0.00    +0.000 C 
ATOM      3  O   UNL     1       1.516   8.715  18.156  0.00  0.00    +0.000 OA
ATOM      4  N   UNL     1       1.128   9.120  20.377  0.00  0.00    +0.000 N 
ATOM      5  C   UNL     1       1.254   8.814  21.805  0.00  0.00    +0.000 C 
ATOM      6  C   UNL     1       0.113   9.409  22.660  0.00  0.00    +0.000 C 
ATOM      7  N   UNL     1      -0.132  10.845  22.398  0.00  0.00    +0.000 NA
ATOM      8  C   UNL     1      -1.298  11.323  23.160  0.00  0.00    +0.000 C 
ATOM      9  C   UNL     1      -1.588  12.802  22.885  0.00  0.00    +0.000 C 
ATOM     10  C   UNL     1      -1.767  13.068  21.395  0.00  0.00    +0.000 C 
ATOM     11  C   UNL     1      -0.559  12.547  20.629  0.00  0.00    +0.000 C 
ATOM     12  C   UNL     1      -0.327  11.061  20.941  0.00  0.00    +0.000 C 
ATOM     13  C   UNL     1       0.874  10.540  20.132  0.00  0.00    +0.000 C 
ATOM     14  H   UNL     1       2.320   6.985  20.686  0.00  0.00    +0.000 HD
ENDROOT
BRANCH   1  21
ATOM     15  C   UNL     1       5.451   6.176  16.022  0.00  0.00    +0.000 C 
ATOM     16  C   UNL     1       4.434   5.719  17.026  0.00  0.00    +0.000 A 
ATOM     17  C   UNL     1       4.038   4.385  17.103  0.00  0.00    +0.000 A 
ATOM     18  C   UNL     1       3.083   4.004  18.047  0.00  0.00    +0.000 A 
ATOM     19  C   UNL     1       2.515   4.937  18.937  0.00  0.00    +0.000 A 
ATOM     20  C   UNL     1       1.452   4.447  19.880  0.00  0.00    +0.000 C 
ATOM     21  C   UNL     1       2.891   6.285  18.834  0.00  0.00    +0.000 A 
ATOM     22  C   UNL     1       3.854   6.662  17.889  0.00  0.00    +0.000 A 
ENDBRANCH   1  21
TORSDOF 1
ENDMDL
MODEL 2
REMARK VINA RESULT:      -7.2      1.426      2.132
REMARK  Name = 
REMARK  3 active torsions:
REMARK  status: ('A' for Active; 'I' for Inactive)
REMARK    1  A    between atoms: C_1  and  C_2
REMARK    2  A    between atoms: C_5  and  C_6
REMARK    3  A    between atoms: C_7  and  N_8
REMARK                            x       y       z     vdW  Elec       q    Type
REMARK                         _______ _______ _______ _____ _____    ______ ____
ROOT
ATOM      1  N   UNL     1       2.563   7.368  18.064  0.00  0.00    +0.000 N 
ATOM      2  C   UNL     1       2.171   7.666  19.369  0.00  0.00    +0.000 C 
ATOM      3  O   UNL     1       2.497   7.013  20.343  0.00  0.00    +0.000 OA
ATOM      4  N   UNL     1       1.364   8.801  19.470  0.00  0.00    +0.000 N 
ATOM      5  C   UNL     1       0.912   9.651  18.364  0.00  0.00    +0.000 C 
ATOM      6  C   UNL     1       0.571  11.093  18.803  0.00  0.00    +0.000 C 
ATOM      7  N   UNL     1      -0.324  11.154  19.980  0.00  0.00    +0.000 NA
ATOM      8  C   UNL     1      -0.521  12.547  20.413  0.00  0.00    +0.000 C 
ATOM      9  C   UNL     1      -1.424  12.635  21.648  0.00  0.00    +0.000 C 
ATOM     10  C   UNL     1      -0.888  11.782  22.792  0.00  0.00    +0.000 C 
ATOM     11  C   UNL     1      -0.675  10.353  22.314  0.00  0.00    +0.000 C 
ATOM     12  C   UNL     1       0.243  10.333  21.082  0.00  0.00    +0.000 C 
ATOM     13  C   UNL     1       0.479   8.881  20.631  0.00  0.00    +0.000 C 
ATOM     14  H   UNL     1       2.365   8.041  17.349  0.00  0.00    +0.000 HD
ENDROOT
BRANCH   1  21
ATOM     15  C   UNL     1       7.219   6.087  17.056  0.00  0.00    +0.000 C 
ATOM     16  C   UNL     1       5.787   5.686  17.260  0.00  0.00    +0.000 A 
ATOM     17  C   UNL     1       5.384   4.356  17.153  0.00  0.00    +0.000 A 
ATOM     18  C   UNL     1       4.040   4.027  17.342  0.00  0.00    +0.000 A 
ATOM     19  C   UNL     1       3.079   5.009  17.652  0.00  0.00    +0.000 A 
ATOM     20  C   UNL     1       1.647   4.572  17.781  0.00  0.00    +0.000 C 
ATOM     21  C   UNL     1       3.483   6.352  17.726  0.00  0.00    +0.000 A 
ATOM     22  C   UNL     1       4.833   6.676  17.541  0.00  0.00    +0.000 A 
ENDBRANCH   1  21
TORSDOF 1
ENDMDL
MODEL 3
REMARK VINA RESULT:      -7.2      1.161      1.311
REMARK  Name = 
REMARK  3 active torsions:
REMARK  status: ('A' for Active; 'I' for Inactive)
REMARK    1  A    between atoms: C_1  and  C_2
REMARK    2  A    between atoms: C_5  and  C_6
REMARK    3  A    between atoms: C_7  and  N_8
REMARK                            x       y       z     vdW  Elec       q    Type
REMARK                         _______ _______ _______ _____ _____    ______ ____
ROOT
ATOM      1  N   UNL     1       2.872   6.922  18.832  0.00  0.00    +0.000 N 
ATOM      2  C   UNL     1       2.278   8.086  18.344  0.00  0.00    +0.000 C 
ATOM      3  O   UNL     1       2.341   8.446  17.182  0.00  0.00    +0.000 OA
ATOM      4  N   UNL     1       1.585   8.815  19.312  0.00  0.00    +0.000 N 
ATOM      5  C   UNL     1       1.453   8.473  20.732  0.00  0.00    +0.000 C 
ATOM      6  C   UNL     1       0.197   9.086  21.392  0.00  0.00    +0.000 C 
ATOM      7  N   UNL     1       0.042  10.534  21.131  0.00  0.00    +0.000 NA
ATOM      8  C   UNL     1      -1.224  11.033  21.692  0.00  0.00    +0.000 C 
ATOM      9  C   UNL     1      -1.421  12.526  21.412  0.00  0.00    +0.000 C 
ATOM     10  C   UNL     1      -1.331  12.830  19.921  0.00  0.00    +0.000 C 
ATOM     11  C   UNL     1      -0.023  12.288  19.362  0.00  0.00    +0.000 C 
ATOM     12  C   UNL     1       0.109  10.789  19.668  0.00  0.00    +0.000 C 
ATOM     13  C   UNL     1       1.417  10.246  19.066  0.00  0.00    +0.000 C 
ATOM     14  H   UNL     1       2.646   6.636  19.764  0.00  0.00    +0.000 HD
ENDROOT
BRANCH   1  21
ATOM     15  C   UNL     1       6.864   5.575  16.268  0.00  0.00    +0.000 C 
ATOM     16  C   UNL     1       5.489   5.253  16.775  0.00  0.00    +0.000 A 
ATOM     17  C   UNL     1       4.875   4.036  16.483  0.00  0.00    +0.000 A 
ATOM     18  C   UNL     1       3.590   3.780  16.968  0.00  0.00    +0.000 A 
ATOM     19  C   UNL     1       2.901   4.721  17.758  0.00  0.00    +0.000 A 
ATOM     20  C   UNL     1       1.501   4.384  18.186  0.00  0.00    +0.000 C 
ATOM     21  C   UNL     1       3.510   5.959  18.021  0.00  0.00    +0.000 A 
ATOM     22  C   UNL     1       4.800   6.209  17.537  0.00  0.00    +0.000 A 
ENDBRANCH   1  21
TORSDOF 1
ENDMDL
MODEL 4
REMARK VINA RESULT:      -7.0      1.690      3.082
REMARK  Name = 
REMARK  3 active torsions:
REMARK  status: ('A' for Active; 'I' for Inactive)
REMARK    1  A    between atoms: C_1  and  C_2
REMARK    2  A    between atoms: C_5  and  C_6
REMARK    3  A    between atoms: C_7  and  N_8
REMARK                            x       y       z     vdW  Elec       q    Type
REMARK                         _______ _______ _______ _____ _____    ______ ____
ROOT
ATOM      1  N   UNL     1       2.411   7.200  18.100  0.00  0.00    +0.000 N 
ATOM      2  C   UNL     1       1.935   7.776  19.278  0.00  0.00    +0.000 C 
ATOM      3  O   UNL     1       1.798   7.170  20.325  0.00  0.00    +0.000 OA
ATOM      4  N   UNL     1       1.630   9.133  19.158  0.00  0.00    +0.000 N 
ATOM      5  C   UNL     1       1.753   9.951  17.948  0.00  0.00    +0.000 C 
ATOM      6  C   UNL     1       1.926  11.458  18.244  0.00  0.00    +0.000 C 
ATOM      7  N   UNL     1       0.927  11.989  19.199  0.00  0.00    +0.000 NA
ATOM      8  C   UNL     1       1.212  13.396  19.523  0.00  0.00    +0.000 C 
ATOM      9  C   UNL     1       0.206  13.961  20.532  0.00  0.00    +0.000 C 
ATOM     10  C   UNL     1       0.149  13.113  21.797  0.00  0.00    +0.000 C 
ATOM     11  C   UNL     1      -0.127  11.661  21.433  0.00  0.00    +0.000 C 
ATOM     12  C   UNL     1       0.918  11.153  20.429  0.00  0.00    +0.000 C 
ATOM     13  C   UNL     1       0.649   9.675  20.098  0.00  0.00    +0.000 C 
ATOM     14  H   UNL     1       2.624   7.807  17.334  0.00  0.00    +0.000 HD
ENDROOT
BRANCH   1  21
ATOM     15  C   UNL     1       1.553   2.356  18.463  0.00  0.00    +0.000 C 
ATOM     16  C   UNL     1       2.499   3.477  18.147  0.00  0.00    +0.000 A 
ATOM     17  C   UNL     1       3.811   3.228  17.747  0.00  0.00    +0.000 A 
ATOM     18  C   UNL     1       4.661   4.301  17.471  0.00  0.00    +0.000 A 
ATOM     19  C   UNL     1       4.220   5.635  17.574  0.00  0.00    +0.000 A 
ATOM     20  C   UNL     1       5.221   6.725  17.313  0.00  0.00    +0.000 C 
ATOM     21  C   UNL     1       2.908   5.882  18.009  0.00  0.00    +0.000 A 
ATOM     22  C   UNL     1       2.057   4.803  18.281  0.00  0.00    +0.000 A 
ENDBRANCH   1  21
TORSDOF 1
ENDMDL
MODEL 5
REMARK VINA RESULT:      -6.9      2.070      7.673
REMARK  Name = 
REMARK  3 active torsions:
REMARK  status: ('A' for Active; 'I' for Inactive)
REMARK    1  A    between atoms: C_1  and  C_2
REMARK    2  A    between atoms: C_5  and  C_6
REMARK    3  A    between atoms: C_7  and  N_8
REMARK                            x       y       z     vdW  Elec       q    Type
REMARK                         _______ _______ _______ _____ _____    ______ ____
ROOT
ATOM      1  N   UNL     1       0.705   8.914  18.905  0.00  0.00    +0.000 N 
ATOM      2  C   UNL     1       1.878   8.939  18.151  0.00  0.00    +0.000 C 
ATOM      3  O   UNL     1       2.197   9.860  17.419  0.00  0.00    +0.000 OA
ATOM      4  N   UNL     1       2.676   7.805  18.310  0.00  0.00    +0.000 N 
ATOM      5  C   UNL     1       2.384   6.645  19.158  0.00  0.00    +0.000 C 
ATOM      6  C   UNL     1       3.649   5.872  19.593  0.00  0.00    +0.000 C 
ATOM      7  N   UNL     1       4.558   5.551  18.470  0.00  0.00    +0.000 NA
ATOM      8  C   UNL     1       5.791   4.915  18.963  0.00  0.00    +0.000 C 
ATOM      9  C   UNL     1       6.761   4.597  17.820  0.00  0.00    +0.000 C 
ATOM     10  C   UNL     1       7.082   5.839  16.999  0.00  0.00    +0.000 C 
ATOM     11  C   UNL     1       5.792   6.488  16.518  0.00  0.00    +0.000 C 
ATOM     12  C   UNL     1       4.869   6.789  17.708  0.00  0.00    +0.000 C 
ATOM     13  C   UNL     1       3.585   7.477  17.213  0.00  0.00    +0.000 C 
ATOM     14  H   UNL     1       0.600   8.185  19.583  0.00  0.00    +0.000 HD
ENDROOT
BRANCH   1  21
ATOM     15  C   UNL     1      -3.145  11.374  17.047  0.00  0.00    +0.000 C 
ATOM     16  C   UNL     1      -2.119  11.214  18.131  0.00  0.00    +0.000 A 
ATOM     17  C   UNL     1      -2.071  12.084  19.219  0.00  0.00    +0.000 A 
ATOM     18  C   UNL     1      -1.095  11.905  20.201  0.00  0.00    +0.000 A 
ATOM     19  C   UNL     1      -0.160  10.853  20.125  0.00  0.00    +0.000 A 
ATOM     20  C   UNL     1       0.890  10.773  21.197  0.00  0.00    +0.000 C 
ATOM     21  C   UNL     1      -0.191   9.999  19.011  0.00  0.00    +0.000 A 
ATOM     22  C   UNL     1      -1.175  10.180  18.031  0.00  0.00    +0.000 A 
ENDBRANCH   1  21
TORSDOF 1
ENDMDL
MODEL 6
REMARK VINA RESULT:      -6.8      1.951      7.760
REMARK  Name = 
REMARK  3 active torsions:
REMARK  status: ('A' for Active; 'I' for Inactive)
REMARK    1  A    between atoms: C_1  and  C_2
REMARK    2  A    between atoms: C_5  and  C_6
REMARK    3  A    between atoms: C_7  and  N_8
REMARK                            x       y       z     vdW  Elec       q    Type
REMARK                         _______ _______ _______ _____ _____    ______ ____
ROOT
ATOM      1  N   UNL     1       0.815   9.275  19.179  0.00  0.00    +0.000 N 
ATOM      2  C   UNL     1       1.892   9.200  18.296  0.00  0.00    +0.000 C 
ATOM      3  O   UNL     1       2.217  10.099  17.541  0.00  0.00    +0.000 OA
ATOM      4  N   UNL     1       2.586   7.990  18.353  0.00  0.00    +0.000 N 
ATOM      5  C   UNL     1       2.276   6.847  19.218  0.00  0.00    +0.000 C 
ATOM      6  C   UNL     1       3.498   5.945  19.500  0.00  0.00    +0.000 C 
ATOM      7  N   UNL     1       4.239   5.558  18.278  0.00  0.00    +0.000 NA
ATOM      8  C   UNL     1       5.449   4.795  18.621  0.00  0.00    +0.000 C 
ATOM      9  C   UNL     1       6.248   4.405  17.373  0.00  0.00    +0.000 C 
ATOM     10  C   UNL     1       6.598   5.627  16.531  0.00  0.00    +0.000 C 
ATOM     11  C   UNL     1       5.333   6.409  16.206  0.00  0.00    +0.000 C 
ATOM     12  C   UNL     1       4.584   6.775  17.497  0.00  0.00    +0.000 C 
ATOM     13  C   UNL     1       3.328   7.596  17.156  0.00  0.00    +0.000 C 
ATOM     14  H   UNL     1       0.714   8.546  19.857  0.00  0.00    +0.000 HD
ENDROOT
BRANCH   1  21
ATOM     15  C   UNL     1       0.125  13.423  21.756  0.00  0.00    +0.000 C 
ATOM     16  C   UNL     1      -0.292  12.519  20.634  0.00  0.00    +0.000 A 
ATOM     17  C   UNL     1      -1.376  12.832  19.814  0.00  0.00    +0.000 A 
ATOM     18  C   UNL     1      -1.735  11.959  18.786  0.00  0.00    +0.000 A 
ATOM     19  C   UNL     1      -1.020  10.769  18.547  0.00  0.00    +0.000 A 
ATOM     20  C   UNL     1      -1.515   9.862  17.456  0.00  0.00    +0.000 C 
ATOM     21  C   UNL     1       0.050  10.440  19.396  0.00  0.00    +0.000 A 
ATOM     22  C   UNL     1       0.410  11.322  20.423  0.00  0.00    +0.000 A 
ENDBRANCH   1  21
TORSDOF 1
ENDMDL
MODEL 7
REMARK VINA RESULT:      -6.8      1.745      7.759
REMARK  Name = 
REMARK  3 active torsions:
REMARK  status: ('A' for Active; 'I' for Inactive)
REMARK    1  A    between atoms: C_1  and  C_2
REMARK    2  A    between atoms: C_5  and  C_6
REMARK    3  A    between atoms: C_7  and  N_8
REMARK                            x       y       z     vdW  Elec       q    Type
REMARK                         _______ _______ _______ _____ _____    ______ ____
ROOT
ATOM      1  N   UNL     1       1.298   8.532  19.393  0.00  0.00    +0.000 N 
ATOM      2  C   UNL     1       2.202   8.539  18.331  0.00  0.00    +0.000 C 
ATOM      3  O   UNL     1       2.273   9.429  17.503  0.00  0.00    +0.000 OA
ATOM      4  N   UNL     1       3.042   7.424  18.298  0.00  0.00    +0.000 N 
ATOM      5  C   UNL     1       3.036   6.300  19.240  0.00  0.00    +0.000 C 
ATOM      6  C   UNL     1       4.392   5.565  19.321  0.00  0.00    +0.000 C 
ATOM      7  N   UNL     1       4.948   5.204  17.998  0.00  0.00    +0.000 NA
ATOM      8  C   UNL     1       6.286   4.608  18.138  0.00  0.00    +0.000 C 
ATOM      9  C   UNL     1       6.894   4.251  16.778  0.00  0.00    +0.000 C 
ATOM     10  C   UNL     1       6.933   5.459  15.850  0.00  0.00    +0.000 C 
ATOM     11  C   UNL     1       5.542   6.068  15.737  0.00  0.00    +0.000 C 
ATOM     12  C   UNL     1       4.994   6.410  17.130  0.00  0.00    +0.000 C 
ATOM     13  C   UNL     1       3.605   7.058  16.999  0.00  0.00    +0.000 C 
ATOM     14  H   UNL     1       1.410   7.833  20.100  0.00  0.00    +0.000 HD
ENDROOT
BRANCH   1  21
ATOM     15  C   UNL     1      -1.973  11.888  17.852  0.00  0.00    +0.000 C 
ATOM     16  C   UNL     1      -1.207  11.256  18.978  0.00  0.00    +0.000 A 
ATOM     17  C   UNL     1      -1.358  11.694  20.293  0.00  0.00    +0.000 A 
ATOM     18  C   UNL     1      -0.620  11.084  21.309  0.00  0.00    +0.000 A 
ATOM     19  C   UNL     1       0.268  10.024  21.039  0.00  0.00    +0.000 A 
ATOM     20  C   UNL     1       1.063   9.468  22.187  0.00  0.00    +0.000 C 
ATOM     21  C   UNL     1       0.442   9.609  19.709  0.00  0.00    +0.000 A 
ATOM     22  C   UNL     1      -0.304  10.220  18.694  0.00  0.00    +0.000 A 
ENDBRANCH   1  21
TORSDOF 1
ENDMDL
MODEL 8
REMARK VINA RESULT:      -6.8      1.900      3.509
REMARK  Name = 
REMARK  3 active torsions:
REMARK  status: ('A' for Active; 'I' for Inactive)
REMARK    1  A    between atoms: C_1  and  C_2
REMARK    2  A    between atoms: C_5  and  C_6
REMARK    3  A    between atoms: C_7  and  N_8
REMARK                            x       y       z     vdW  Elec       q    Type
REMARK                         _______ _______ _______ _____ _____    ______ ____
ROOT
ATOM      1  N   UNL     1       2.351   6.816  19.181  0.00  0.00    +0.000 N 
ATOM      2  C   UNL     1       1.785   7.723  20.078  0.00  0.00    +0.000 C 
ATOM      3  O   UNL     1       1.514   7.456  21.235  0.00  0.00    +0.000 OA
ATOM      4  N   UNL     1       1.554   8.987  19.532  0.00  0.00    +0.000 N 
ATOM      5  C   UNL     1       1.836   9.407  18.156  0.00  0.00    +0.000 C 
ATOM      6  C   UNL     1       2.046  10.932  18.015  0.00  0.00    +0.000 C 
ATOM      7  N   UNL     1       0.980  11.734  18.655  0.00  0.00    +0.000 NA
ATOM      8  C   UNL     1       1.293  13.171  18.581  0.00  0.00    +0.000 C 
ATOM      9  C   UNL     1       0.216  14.022  19.262  0.00  0.00    +0.000 C 
ATOM     10  C   UNL     1      -0.007  13.589  20.706  0.00  0.00    +0.000 C 
ATOM     11  C   UNL     1      -0.310  12.098  20.757  0.00  0.00    +0.000 C 
ATOM     12  C   UNL     1       0.808  11.302  20.067  0.00  0.00    +0.000 C 
ATOM     13  C   UNL     1       0.509   9.796  20.158  0.00  0.00    +0.000 C 
ATOM     14  H   UNL     1       2.668   7.166  18.299  0.00  0.00    +0.000 HD
ENDROOT
BRANCH   1  21
ATOM     15  C   UNL     1       1.500   2.604  21.603  0.00  0.00    +0.000 C 
ATOM     16  C   UNL     1       2.380   3.415  20.698  0.00  0.00    +0.000 A 
ATOM     17  C   UNL     1       3.577   2.902  20.199  0.00  0.00    +0.000 A 
ATOM     18  C   UNL     1       4.370   3.694  19.366  0.00  0.00    +0.000 A 
ATOM     19  C   UNL     1       3.984   5.000  19.006  0.00  0.00    +0.000 A 
ATOM     20  C   UNL     1       4.929   5.798  18.153  0.00  0.00    +0.000 C 
ATOM     21  C   UNL     1       2.795   5.525  19.537  0.00  0.00    +0.000 A 
ATOM     22  C   UNL     1       1.999   4.725  20.367  0.00  0.00    +0.000 A 
ENDBRANCH   1  21
TORSDOF 1
ENDMDL
MODEL 9
REMARK VINA RESULT:      -6.8      0.813      2.022
REMARK  Name = 
REMARK  3 active torsions:
REMARK  status: ('A' for Active; 'I' for Inactive)
REMARK    1  A    between atoms: C_1  and  C_2
REMARK    2  A    between atoms: C_5  and  C_6
REMARK    3  A    between atoms: C_7  and  N_8
REMARK                            x       y       z     vdW  Elec       q    Type
REMARK                         _______ _______ _______ _____ _____    ______ ____
ROOT
ATOM      1  N   UNL     1       2.670   6.790  19.461  0.00  0.00    +0.000 N 
ATOM      2  C   UNL     1       1.866   7.846  19.032  0.00  0.00    +0.000 C 
ATOM      3  O   UNL     1       1.592   8.063  17.865  0.00  0.00    +0.000 OA
ATOM      4  N   UNL     1       1.387   8.648  20.070  0.00  0.00    +0.000 N 
ATOM      5  C   UNL     1       1.661   8.477  21.501  0.00  0.00    +0.000 C 
ATOM      6  C   UNL     1       0.571   9.092  22.408  0.00  0.00    +0.000 C 
ATOM      7  N   UNL     1       0.223  10.485  22.049  0.00  0.00    +0.000 NA
ATOM      8  C   UNL     1      -0.894  10.972  22.876  0.00  0.00    +0.000 C 
ATOM      9  C   UNL     1      -1.290  12.405  22.505  0.00  0.00    +0.000 C 
ATOM     10  C   UNL     1      -1.621  12.526  21.023  0.00  0.00    +0.000 C 
ATOM     11  C   UNL     1      -0.460  11.998  20.191  0.00  0.00    +0.000 C 
ATOM     12  C   UNL     1      -0.117  10.559  20.604  0.00  0.00    +0.000 C 
ATOM     13  C   UNL     1       1.032  10.025  19.731  0.00  0.00    +0.000 C 
ATOM     14  H   UNL     1       2.721   6.609  20.444  0.00  0.00    +0.000 HD
ENDROOT
BRANCH   1  21
ATOM     15  C   UNL     1       2.272   2.166  17.790  0.00  0.00    +0.000 C 
ATOM     16  C   UNL     1       2.960   3.499  17.742  0.00  0.00    +0.000 A 
ATOM     17  C   UNL     1       4.022   3.737  16.870  0.00  0.00    +0.000 A 
ATOM     18  C   UNL     1       4.639   4.989  16.864  0.00  0.00    +0.000 A 
ATOM     19  C   UNL     1       4.206   6.027  17.712  0.00  0.00    +0.000 A 
ATOM     20  C   UNL     1       4.967   7.322  17.678  0.00  0.00    +0.000 C 
ATOM     21  C   UNL     1       3.159   5.773  18.612  0.00  0.00    +0.000 A 
ATOM     22  C   UNL     1       2.539   4.517  18.611  0.00  0.00    +0.000 A 
ENDBRANCH   1  21
TORSDOF 1
ENDMDL
