MODEL 1
REMARK VINA RESULT:      -8.5      0.000      0.000
REMARK  Name = 
REMARK  8 active torsions:
REMARK  status: ('A' for Active; 'I' for Inactive)
REMARK    1  A    between atoms: C_2  and  O_3
REMARK    2  A    between atoms: C_2  and  C_4
REMARK    3  A    between atoms: C_6  and  N_7
REMARK    4  A    between atoms: C_12  and  N_13
REMARK    5  A    between atoms: N_13  and  C_14
REMARK    6  A    between atoms: C_17  and  C_18
REMARK    7  A    between atoms: C_18  and  C_19
REMARK    8  A    between atoms: C_19  and  N_20
REMARK                            x       y       z     vdW  Elec       q    Type
REMARK                         _______ _______ _______ _____ _____    ______ ____
ROOT
ATOM      1  C   UNL     1       3.502   5.196  19.458  0.00  0.00    +0.000 A 
ATOM      2  C   UNL     1       2.668   4.716  20.475  0.00  0.00    +0.000 A 
ATOM      3  C   UNL     1       1.681   5.531  21.041  0.00  0.00    +0.000 A 
ATOM      4  C   UNL     1       1.531   6.856  20.623  0.00  0.00    +0.000 A 
ATOM      5  C   UNL     1       2.358   7.332  19.598  0.00  0.00    +0.000 A 
ATOM      6  C   UNL     1       3.358   6.526  19.056  0.00  0.00    +0.000 A 
ENDROOT
BRANCH   1   7
ATOM      7  N   UNL     1       4.551   4.360  18.984  0.00  0.00    +0.000 N 
ATOM      8  H   UNL     1       5.232   4.310  19.754  0.00  0.00    +0.000 HD
BRANCH   7  14
ATOM      9  C   UNL     1       6.497   5.095  17.641  0.00  0.00    +0.000 A 
ATOM     10  C   UNL     1       7.137   5.235  16.396  0.00  0.00    +0.000 A 
ATOM     11  C   UNL     1       6.549   4.687  15.250  0.00  0.00    +0.000 A 
ATOM     12  C   UNL     1       5.364   3.959  15.347  0.00  0.00    +0.000 A 
ATOM     13  C   UNL     1       4.749   3.813  16.591  0.00  0.00    +0.000 A 
ATOM     14  C   UNL     1       5.239   4.460  17.738  0.00  0.00    +0.000 A 
BRANCH  11  15
ATOM     15  N   UNL     1       7.189   4.853  13.940  0.00  0.00    +0.000 N 
ATOM     16  O   UNL     1       6.774   4.164  13.003  0.00  0.00    +0.000 OA
ATOM     17  O   UNL     1       8.115   5.675  13.857  0.00  0.00    +0.000 OA
ENDBRANCH  11  15
BRANCH   9  19
ATOM     18  O   UNL     1       7.083   5.213  19.945  0.00  0.00    +0.000 OA
ATOM     19  C   UNL     1       7.219   5.651  18.815  0.00  0.00    +0.000 C 
BRANCH  19  20
ATOM     20  O   UNL     1       8.007   6.710  18.529  0.00  0.00    +0.000 OA
ATOM     21  H   UNL     1       7.583   7.386  17.959  0.00  0.00    +0.000 HD
ENDBRANCH  19  20
ENDBRANCH   9  19
ENDBRANCH   7  14
ENDBRANCH   1   7
BRANCH   4  22
ATOM     22  C   UNL     1       0.510   7.801  21.213  0.00  0.00    +0.000 C 
BRANCH  22  23
ATOM     23  C   UNL     1       0.971   9.267  21.381  0.00  0.00    +0.000 C 
BRANCH  23  24
ATOM     24  N   UNL     1       0.059  10.221  20.726  0.00  0.00    +0.000 NA
ATOM     25  C   UNL     1       0.011  10.096  19.262  0.00  0.00    +0.000 C 
ATOM     26  C   UNL     1       1.251  10.648  18.561  0.00  0.00    +0.000 C 
ATOM     27  C   UNL     1       1.351  12.137  18.873  0.00  0.00    +0.000 C 
ATOM     28  C   UNL     1       2.519  12.810  18.154  0.00  0.00    +0.000 C 
ATOM     29  C   UNL     1       2.497  14.312  18.430  0.00  0.00    +0.000 C 
ATOM     30  C   UNL     1       2.520  14.610  19.927  0.00  0.00    +0.000 C 
ATOM     31  C   UNL     1       1.432  13.856  20.696  0.00  0.00    +0.000 C 
ATOM     32  C   UNL     1       1.445  12.346  20.395  0.00  0.00    +0.000 C 
ATOM     33  C   UNL     1       0.298  11.618  21.133  0.00  0.00    +0.000 C 
ENDBRANCH  23  24
ENDBRANCH  22  23
ENDBRANCH   4  22
TORSDOF 8
ENDMDL
MODEL 2
REMARK VINA RESULT:      -8.4      3.567      4.848
REMARK  Name = 
REMARK  8 active torsions:
REMARK  status: ('A' for Active; 'I' for Inactive)
REMARK    1  A    between atoms: C_2  and  O_3
REMARK    2  A    between atoms: C_2  and  C_4
REMARK    3  A    between atoms: C_6  and  N_7
REMARK    4  A    between atoms: C_12  and  N_13
REMARK    5  A    between atoms: N_13  and  C_14
REMARK    6  A    between atoms: C_17  and  C_18
REMARK    7  A    between atoms: C_18  and  C_19
REMARK    8  A    between atoms: C_19  and  N_20
REMARK                            x       y       z     vdW  Elec       q    Type
REMARK                         _______ _______ _______ _____ _____    ______ ____
ROOT
ATOM      1  C   UNL     1       2.524   7.198  19.136  0.00  0.00    +0.000 A 
ATOM      2  C   UNL     1       2.237   7.991  18.020  0.00  0.00    +0.000 A 
ATOM      3  C   UNL     1       1.427   9.128  18.134  0.00  0.00    +0.000 A 
ATOM      4  C   UNL     1       0.860   9.473  19.364  0.00  0.00    +0.000 A 
ATOM      5  C   UNL     1       1.158   8.685  20.483  0.00  0.00    +0.000 A 
ATOM      6  C   UNL     1       1.942   7.538  20.360  0.00  0.00    +0.000 A 
ENDROOT
BRANCH   1   7
ATOM      7  N   UNL     1       3.272   6.001  18.948  0.00  0.00    +0.000 N 
ATOM      8  H   UNL     1       3.789   5.860  19.826  0.00  0.00    +0.000 HD
BRANCH   7  14
ATOM      9  C   UNL     1       3.932   4.465  17.122  0.00  0.00    +0.000 A 
ATOM     10  C   UNL     1       4.796   4.128  16.064  0.00  0.00    +0.000 A 
ATOM     11  C   UNL     1       5.801   5.022  15.679  0.00  0.00    +0.000 A 
ATOM     12  C   UNL     1       5.914   6.265  16.301  0.00  0.00    +0.000 A 
ATOM     13  C   UNL     1       5.038   6.594  17.337  0.00  0.00    +0.000 A 
ATOM     14  C   UNL     1       4.105   5.671  17.838  0.00  0.00    +0.000 A 
BRANCH  11  15
ATOM     15  N   UNL     1       6.731   4.669  14.600  0.00  0.00    +0.000 N 
ATOM     16  O   UNL     1       6.411   3.750  13.840  0.00  0.00    +0.000 OA
ATOM     17  O   UNL     1       7.788   5.315  14.524  0.00  0.00    +0.000 OA
ENDBRANCH  11  15
BRANCH   9  19
ATOM     18  O   UNL     1       3.075   2.321  17.698  0.00  0.00    +0.000 OA
ATOM     19  C   UNL     1       2.854   3.489  17.424  0.00  0.00    +0.000 C 
BRANCH  19  20
ATOM     20  O   UNL     1       1.605   3.996  17.327  0.00  0.00    +0.000 OA
ATOM     21  H   UNL     1       0.931   3.512  17.850  0.00  0.00    +0.000 HD
ENDBRANCH  19  20
ENDBRANCH   9  19
ENDBRANCH   7  14
ENDBRANCH   1   7
BRANCH   4  22
ATOM     22  C   UNL     1      -0.048  10.666  19.553  0.00  0.00    +0.000 C 
BRANCH  22  23
ATOM     23  C   UNL     1      -1.463  10.535  18.942  0.00  0.00    +0.000 C 
BRANCH  23  24
ATOM     24  N   UNL     1      -2.007  11.832  18.505  0.00  0.00    +0.000 NA
ATOM     25  C   UNL     1      -2.186  12.805  19.593  0.00  0.00    +0.000 C 
ATOM     26  C   UNL     1      -3.377  12.498  20.497  0.00  0.00    +0.000 C 
ATOM     27  C   UNL     1      -4.644  12.547  19.651  0.00  0.00    +0.000 C 
ATOM     28  C   UNL     1      -5.912  12.330  20.476  0.00  0.00    +0.000 C 
ATOM     29  C   UNL     1      -7.140  12.494  19.586  0.00  0.00    +0.000 C 
ATOM     30  C   UNL     1      -7.094  11.556  18.382  0.00  0.00    +0.000 C 
ATOM     31  C   UNL     1      -5.782  11.665  17.599  0.00  0.00    +0.000 C 
ATOM     32  C   UNL     1      -4.548  11.522  18.507  0.00  0.00    +0.000 C 
ATOM     33  C   UNL     1      -3.239  11.700  17.704  0.00  0.00    +0.000 C 
ENDBRANCH  23  24
ENDBRANCH  22  23
ENDBRANCH   4  22
TORSDOF 8
ENDMDL
MODEL 3
REMARK VINA RESULT:      -8.4      1.554      2.674
REMARK  Name = 
REMARK  8 active torsions:
REMARK  status: ('A' for Active; 'I' for Inactive)
REMARK    1  A    between atoms: C_2  and  O_3
REMARK    2  A    between atoms: C_2  and  C_4
REMARK    3  A    between atoms: C_6  and  N_7
REMARK    4  A    between atoms: C_12  and  N_13
REMARK    5  A    between atoms: N_13  and  C_14
REMARK    6  A    between atoms: C_17  and  C_18
REMARK    7  A    between atoms: C_18  and  C_19
REMARK    8  A    between atoms: C_19  and  N_20
REMARK                            x       y       z     vdW  Elec       q    Type
REMARK                         _______ _______ _______ _____ _____    ______ ____
ROOT
ATOM      1  C   UNL     1       3.546   5.184  19.435  0.00  0.00    +0.000 A 
ATOM      2  C   UNL     1       2.678   4.672  20.406  0.00  0.00    +0.000 A 
ATOM      3  C   UNL     1       1.675   5.472  20.967  0.00  0.00    +0.000 A 
ATOM      4  C   UNL     1       1.542   6.811  20.590  0.00  0.00    +0.000 A 
ATOM      5  C   UNL     1       2.404   7.318  19.609  0.00  0.00    +0.000 A 
ATOM      6  C   UNL     1       3.420   6.527  19.074  0.00  0.00    +0.000 A 
ENDROOT
BRANCH   1   7
ATOM      7  N   UNL     1       4.609   4.359  18.968  0.00  0.00    +0.000 N 
ATOM      8  H   UNL     1       5.286   4.319  19.742  0.00  0.00    +0.000 HD
BRANCH   7  14
ATOM      9  C   UNL     1       6.548   5.126  17.633  0.00  0.00    +0.000 A 
ATOM     10  C   UNL     1       7.193   5.272  16.391  0.00  0.00    +0.000 A 
ATOM     11  C   UNL     1       6.624   4.706  15.245  0.00  0.00    +0.000 A 
ATOM     12  C   UNL     1       5.452   3.956  15.338  0.00  0.00    +0.000 A 
ATOM     13  C   UNL     1       4.832   3.805  16.579  0.00  0.00    +0.000 A 
ATOM     14  C   UNL     1       5.302   4.467  17.726  0.00  0.00    +0.000 A 
BRANCH  11  15
ATOM     15  N   UNL     1       7.268   4.879  13.938  0.00  0.00    +0.000 N 
ATOM     16  O   UNL     1       8.204   5.680  13.857  0.00  0.00    +0.000 OA
ATOM     17  O   UNL     1       6.825   4.211  12.991  0.00  0.00    +0.000 OA
ENDBRANCH  11  15
BRANCH   9  19
ATOM     18  O   UNL     1       7.123   5.262  19.938  0.00  0.00    +0.000 OA
ATOM     19  C   UNL     1       7.252   5.702  18.809  0.00  0.00    +0.000 C 
BRANCH  19  20
ATOM     20  O   UNL     1       8.012   6.781  18.523  0.00  0.00    +0.000 OA
ATOM     21  H   UNL     1       8.967   6.585  18.414  0.00  0.00    +0.000 HD
ENDBRANCH  19  20
ENDBRANCH   9  19
ENDBRANCH   7  14
ENDBRANCH   1   7
BRANCH   4  22
ATOM     22  C   UNL     1       0.505   7.739  21.177  0.00  0.00    +0.000 C 
BRANCH  22  23
ATOM     23  C   UNL     1       0.488   9.175  20.603  0.00  0.00    +0.000 C 
BRANCH  23  24
ATOM     24  N   UNL     1       0.923  10.178  21.590  0.00  0.00    +0.000 NA
ATOM     25  C   UNL     1       0.481   9.900  22.964  0.00  0.00    +0.000 C 
ATOM     26  C   UNL     1      -1.004  10.173  23.194  0.00  0.00    +0.000 C 
ATOM     27  C   UNL     1      -1.262  11.654  22.941  0.00  0.00    +0.000 C 
ATOM     28  C   UNL     1      -2.710  12.054  23.220  0.00  0.00    +0.000 C 
ATOM     29  C   UNL     1      -2.870  13.562  23.045  0.00  0.00    +0.000 C 
ATOM     30  C   UNL     1      -2.425  14.019  21.657  0.00  0.00    +0.000 C 
ATOM     31  C   UNL     1      -1.018  13.532  21.299  0.00  0.00    +0.000 C 
ATOM     32  C   UNL     1      -0.858  12.014  21.501  0.00  0.00    +0.000 C 
ATOM     33  C   UNL     1       0.588  11.559  21.193  0.00  0.00    +0.000 C 
ENDBRANCH  23  24
ENDBRANCH  22  23
ENDBRANCH   4  22
TORSDOF 8
ENDMDL
MODEL 4
REMARK VINA RESULT:      -8.3      0.145      1.036
REMARK  Name = 
REMARK  8 active torsions:
REMARK  status: ('A' for Active; 'I' for Inactive)
REMARK    1  A    between atoms: C_2  and  O_3
REMARK    2  A    between atoms: C_2  and  C_4
REMARK    3  A    between atoms: C_6  and  N_7
REMARK    4  A    between atoms: C_12  and  N_13
REMARK    5  A    between atoms: N_13  and  C_14
REMARK    6  A    between atoms: C_17  and  C_18
REMARK    7  A    between atoms: C_18  and  C_19
REMARK    8  A    between atoms: C_19  and  N_20
REMARK                            x       y       z     vdW  Elec       q    Type
REMARK                         _______ _______ _______ _____ _____    ______ ____
ROOT
ATOM      1  C   UNL     1       3.639   5.089  19.534  0.00  0.00    +0.000 A 
ATOM      2  C   UNL     1       3.477   6.354  18.959  0.00  0.00    +0.000 A 
ATOM      3  C   UNL     1       2.490   7.233  19.421  0.00  0.00    +0.000 A 
ATOM      4  C   UNL     1       1.622   6.849  20.446  0.00  0.00    +0.000 A 
ATOM      5  C   UNL     1       1.792   5.586  21.028  0.00  0.00    +0.000 A 
ATOM      6  C   UNL     1       2.758   4.703  20.547  0.00  0.00    +0.000 A 
ENDROOT
BRANCH   1   7
ATOM      7  N   UNL     1       4.592   4.198  18.964  0.00  0.00    +0.000 N 
ATOM      8  H   UNL     1       5.269   4.003  19.713  0.00  0.00    +0.000 HD
BRANCH   7  14
ATOM      9  C   UNL     1       6.512   5.030  17.640  0.00  0.00    +0.000 A 
ATOM     10  C   UNL     1       7.148   5.216  16.399  0.00  0.00    +0.000 A 
ATOM     11  C   UNL     1       6.584   4.669  15.242  0.00  0.00    +0.000 A 
ATOM     12  C   UNL     1       5.426   3.896  15.321  0.00  0.00    +0.000 A 
ATOM     13  C   UNL     1       4.814   3.705  16.561  0.00  0.00    +0.000 A 
ATOM     14  C   UNL     1       5.277   4.347  17.722  0.00  0.00    +0.000 A 
BRANCH  11  15
ATOM     15  N   UNL     1       7.219   4.884  13.937  0.00  0.00    +0.000 N 
ATOM     16  O   UNL     1       8.155   5.687  13.876  0.00  0.00    +0.000 OA
ATOM     17  O   UNL     1       6.769   4.247  12.971  0.00  0.00    +0.000 OA
ENDBRANCH  11  15
BRANCH   9  19
ATOM     18  O   UNL     1       7.083   5.129  19.948  0.00  0.00    +0.000 OA
ATOM     19  C   UNL     1       7.210   5.589  18.826  0.00  0.00    +0.000 C 
BRANCH  19  20
ATOM     20  O   UNL     1       7.965   6.677  18.561  0.00  0.00    +0.000 OA
ATOM     21  H   UNL     1       8.867   6.647  18.946  0.00  0.00    +0.000 HD
ENDBRANCH  19  20
ENDBRANCH   9  19
ENDBRANCH   7  14
ENDBRANCH   1   7
BRANCH   4  22
ATOM     22  C   UNL     1       0.515   7.733  20.971  0.00  0.00    +0.000 C 
BRANCH  22  23
ATOM     23  C   UNL     1       0.930   9.172  21.354  0.00  0.00    +0.000 C 
BRANCH  23  24
ATOM     24  N   UNL     1       0.051  10.189  20.752  0.00  0.00    +0.000 NA
ATOM     25  C   UNL     1      -0.065  10.091  19.289  0.00  0.00    +0.000 C 
ATOM     26  C   UNL     1       1.175  10.581  18.545  0.00  0.00    +0.000 C 
ATOM     27  C   UNL     1       1.377  12.056  18.873  0.00  0.00    +0.000 C 
ATOM     28  C   UNL     1       2.552  12.671  18.115  0.00  0.00    +0.000 C 
ATOM     29  C   UNL     1       2.631  14.166  18.413  0.00  0.00    +0.000 C 
ATOM     30  C   UNL     1       2.734  14.438  19.912  0.00  0.00    +0.000 C 
ATOM     31  C   UNL     1       1.636  13.736  20.715  0.00  0.00    +0.000 C 
ATOM     32  C   UNL     1       1.546  12.234  20.392  0.00  0.00    +0.000 C 
ATOM     33  C   UNL     1       0.389  11.563  21.168  0.00  0.00    +0.000 C 
ENDBRANCH  23  24
ENDBRANCH  22  23
ENDBRANCH   4  22
TORSDOF 8
ENDMDL
MODEL 5
REMARK VINA RESULT:      -8.2      3.228      4.681
REMARK  Name = 
REMARK  8 active torsions:
REMARK  status: ('A' for Active; 'I' for Inactive)
REMARK    1  A    between atoms: C_2  and  O_3
REMARK    2  A    between atoms: C_2  and  C_4
REMARK    3  A    between atoms: C_6  and  N_7
REMARK    4  A    between atoms: C_12  and  N_13
REMARK    5  A    between atoms: N_13  and  C_14
REMARK    6  A    between atoms: C_17  and  C_18
REMARK    7  A    between atoms: C_18  and  C_19
REMARK    8  A    between atoms: C_19  and  N_20
REMARK                            x       y       z     vdW  Elec       q    Type
REMARK                         _______ _______ _______ _____ _____    ______ ____
ROOT
ATOM      1  C   UNL     1       2.218   7.456  19.081  0.00  0.00    +0.000 A 
ATOM      2  C   UNL     1       1.700   7.946  20.285  0.00  0.00    +0.000 A 
ATOM      3  C   UNL     1       1.008   9.162  20.330  0.00  0.00    +0.000 A 
ATOM      4  C   UNL     1       0.849   9.929  19.173  0.00  0.00    +0.000 A 
ATOM      5  C   UNL     1       1.358   9.433  17.965  0.00  0.00    +0.000 A 
ATOM      6  C   UNL     1       2.071   8.235  17.930  0.00  0.00    +0.000 A 
ENDROOT
BRANCH   1   7
ATOM      7  N   UNL     1       2.996   6.265  19.107  0.00  0.00    +0.000 N 
ATOM      8  H   UNL     1       3.480   6.272  20.014  0.00  0.00    +0.000 HD
BRANCH   7  14
ATOM      9  C   UNL     1       3.662   4.553  17.446  0.00  0.00    +0.000 A 
ATOM     10  C   UNL     1       4.573   4.074  16.487  0.00  0.00    +0.000 A 
ATOM     11  C   UNL     1       5.676   4.856  16.127  0.00  0.00    +0.000 A 
ATOM     12  C   UNL     1       5.845   6.128  16.673  0.00  0.00    +0.000 A 
ATOM     13  C   UNL     1       4.924   6.599  17.610  0.00  0.00    +0.000 A 
ATOM     14  C   UNL     1       3.881   5.790  18.093  0.00  0.00    +0.000 A 
BRANCH  11  15
ATOM     15  N   UNL     1       6.652   4.354  15.154  0.00  0.00    +0.000 N 
ATOM     16  O   UNL     1       7.838   4.659  15.315  0.00  0.00    +0.000 OA
ATOM     17  O   UNL     1       6.222   3.658  14.221  0.00  0.00    +0.000 OA
ENDBRANCH  11  15
BRANCH   9  19
ATOM     18  O   UNL     1       2.583   2.572  18.202  0.00  0.00    +0.000 OA
ATOM     19  C   UNL     1       2.486   3.689  17.723  0.00  0.00    +0.000 C 
BRANCH  19  20
ATOM     20  O   UNL     1       1.304   4.231  17.358  0.00  0.00    +0.000 OA
ATOM     21  H   UNL     1       1.322   4.694  16.494  0.00  0.00    +0.000 HD
ENDBRANCH  19  20
ENDBRANCH   9  19
ENDBRANCH   7  14
ENDBRANCH   1   7
BRANCH   4  22
ATOM     22  C   UNL     1       0.143  11.265  19.154  0.00  0.00    +0.000 C 
BRANCH  22  23
ATOM     23  C   UNL     1      -1.126  11.365  20.033  0.00  0.00    +0.000 C 
BRANCH  23  24
ATOM     24  N   UNL     1      -1.274  12.693  20.654  0.00  0.00    +0.000 NA
ATOM     25  C   UNL     1      -0.738  12.779  22.021  0.00  0.00    +0.000 C 
ATOM     26  C   UNL     1      -1.612  12.085  23.063  0.00  0.00    +0.000 C 
ATOM     27  C   UNL     1      -2.973  12.772  23.079  0.00  0.00    +0.000 C 
ATOM     28  C   UNL     1      -3.906  12.205  24.148  0.00  0.00    +0.000 C 
ATOM     29  C   UNL     1      -5.206  13.004  24.175  0.00  0.00    +0.000 C 
ATOM     30  C   UNL     1      -5.880  13.029  22.805  0.00  0.00    +0.000 C 
ATOM     31  C   UNL     1      -4.934  13.482  21.690  0.00  0.00    +0.000 C 
ATOM     32  C   UNL     1      -3.616  12.688  21.684  0.00  0.00    +0.000 C 
ATOM     33  C   UNL     1      -2.654  13.207  20.591  0.00  0.00    +0.000 C 
ENDBRANCH  23  24
ENDBRANCH  22  23
ENDBRANCH   4  22
TORSDOF 8
ENDMDL
MODEL 6
REMARK VINA RESULT:      -8.2      3.297      4.828
REMARK  Name = 
REMARK  8 active torsions:
REMARK  status: ('A' for Active; 'I' for Inactive)
REMARK    1  A    between atoms: C_2  and  O_3
REMARK    2  A    between atoms: C_2  and  C_4
REMARK    3  A    between atoms: C_6  and  N_7
REMARK    4  A    between atoms: C_12  and  N_13
REMARK    5  A    between atoms: N_13  and  C_14
REMARK    6  A    between atoms: C_17  and  C_18
REMARK    7  A    between atoms: C_18  and  C_19
REMARK    8  A    between atoms: C_19  and  N_20
REMARK                            x       y       z     vdW  Elec       q    Type
REMARK                         _______ _______ _______ _____ _____    ______ ____
ROOT
ATOM      1  C   UNL     1       2.092   7.597  19.089  0.00  0.00    +0.000 A 
ATOM      2  C   UNL     1       2.067   8.393  17.939  0.00  0.00    +0.000 A 
ATOM      3  C   UNL     1       1.491   9.669  17.960  0.00  0.00    +0.000 A 
ATOM      4  C   UNL     1       0.898  10.160  19.126  0.00  0.00    +0.000 A 
ATOM      5  C   UNL     1       0.934   9.367  20.280  0.00  0.00    +0.000 A 
ATOM      6  C   UNL     1       1.483   8.086  20.248  0.00  0.00    +0.000 A 
ENDROOT
BRANCH   1   7
ATOM      7  N   UNL     1       2.601   6.271  18.990  0.00  0.00    +0.000 N 
ATOM      8  H   UNL     1       2.821   5.988  19.954  0.00  0.00    +0.000 HD
BRANCH   7  14
ATOM      9  C   UNL     1       3.500   4.560  17.443  0.00  0.00    +0.000 A 
ATOM     10  C   UNL     1       4.536   4.086  16.617  0.00  0.00    +0.000 A 
ATOM     11  C   UNL     1       5.668   4.879  16.402  0.00  0.00    +0.000 A 
ATOM     12  C   UNL     1       5.749   6.156  16.958  0.00  0.00    +0.000 A 
ATOM     13  C   UNL     1       4.707   6.620  17.761  0.00  0.00    +0.000 A 
ATOM     14  C   UNL     1       3.617   5.802  18.106  0.00  0.00    +0.000 A 
BRANCH  11  15
ATOM     15  N   UNL     1       6.771   4.384  15.570  0.00  0.00    +0.000 N 
ATOM     16  O   UNL     1       6.497   3.953  14.446  0.00  0.00    +0.000 OA
ATOM     17  O   UNL     1       7.913   4.423  16.053  0.00  0.00    +0.000 OA
ENDBRANCH  11  15
BRANCH   9  19
ATOM     18  O   UNL     1       1.167   4.090  17.422  0.00  0.00    +0.000 OA
ATOM     19  C   UNL     1       2.307   3.683  17.567  0.00  0.00    +0.000 C 
BRANCH  19  20
ATOM     20  O   UNL     1       2.593   2.404  17.896  0.00  0.00    +0.000 OA
ATOM     21  H   UNL     1       2.540   1.773  17.147  0.00  0.00    +0.000 HD
ENDBRANCH  19  20
ENDBRANCH   9  19
ENDBRANCH   7  14
ENDBRANCH   1   7
BRANCH   4  22
ATOM     22  C   UNL     1       0.231  11.513  19.212  0.00  0.00    +0.000 C 
BRANCH  22  23
ATOM     23  C   UNL     1      -1.081  11.564  20.029  0.00  0.00    +0.000 C 
BRANCH  23  24
ATOM     24  N   UNL     1      -1.312  12.885  20.637  0.00  0.00    +0.000 NA
ATOM     25  C   UNL     1      -0.773  13.023  21.998  0.00  0.00    +0.000 C 
ATOM     26  C   UNL     1      -1.590  12.284  23.056  0.00  0.00    +0.000 C 
ATOM     27  C   UNL     1      -2.993  12.879  23.076  0.00  0.00    +0.000 C 
ATOM     28  C   UNL     1      -3.877  12.262  24.159  0.00  0.00    +0.000 C 
ATOM     29  C   UNL     1      -5.227  12.974  24.189  0.00  0.00    +0.000 C 
ATOM     30  C   UNL     1      -5.913  12.939  22.825  0.00  0.00    +0.000 C 
ATOM     31  C   UNL     1      -5.009  13.441  21.696  0.00  0.00    +0.000 C 
ATOM     32  C   UNL     1      -3.641  12.736  21.687  0.00  0.00    +0.000 C 
ATOM     33  C   UNL     1      -2.725  13.306  20.580  0.00  0.00    +0.000 C 
ENDBRANCH  23  24
ENDBRANCH  22  23
ENDBRANCH   4  22
TORSDOF 8
ENDMDL
MODEL 7
REMARK VINA RESULT:      -8.2      1.698      2.990
REMARK  Name = 
REMARK  8 active torsions:
REMARK  status: ('A' for Active; 'I' for Inactive)
REMARK    1  A    between atoms: C_2  and  O_3
REMARK    2  A    between atoms: C_2  and  C_4
REMARK    3  A    between atoms: C_6  and  N_7
REMARK    4  A    between atoms: C_12  and  N_13
REMARK    5  A    between atoms: N_13  and  C_14
REMARK    6  A    between atoms: C_17  and  C_18
REMARK    7  A    between atoms: C_18  and  C_19
REMARK    8  A    between atoms: C_19  and  N_20
REMARK                            x       y       z     vdW  Elec       q    Type
REMARK                         _______ _______ _______ _____ _____    ______ ____
ROOT
ATOM      1  C   UNL     1       3.411   5.877  19.315  0.00  0.00    +0.000 A 
ATOM      2  C   UNL     1       3.203   6.994  18.498  0.00  0.00    +0.000 A 
ATOM      3  C   UNL     1       2.259   7.970  18.840  0.00  0.00    +0.000 A 
ATOM      4  C   UNL     1       1.479   7.829  19.990  0.00  0.00    +0.000 A 
ATOM      5  C   UNL     1       1.696   6.716  20.814  0.00  0.00    +0.000 A 
ATOM      6  C   UNL     1       2.617   5.733  20.456  0.00  0.00    +0.000 A 
ENDROOT
BRANCH   1   7
ATOM      7  N   UNL     1       4.312   4.867  18.874  0.00  0.00    +0.000 N 
ATOM      8  H   UNL     1       4.944   4.697  19.667  0.00  0.00    +0.000 HD
BRANCH   7  14
ATOM      9  C   UNL     1       6.385   5.309  17.594  0.00  0.00    +0.000 A 
ATOM     10  C   UNL     1       7.083   5.331  16.373  0.00  0.00    +0.000 A 
ATOM     11  C   UNL     1       6.472   4.833  15.217  0.00  0.00    +0.000 A 
ATOM     12  C   UNL     1       5.199   4.267  15.281  0.00  0.00    +0.000 A 
ATOM     13  C   UNL     1       4.525   4.236  16.503  0.00  0.00    +0.000 A 
ATOM     14  C   UNL     1       5.052   4.845  17.655  0.00  0.00    +0.000 A 
BRANCH  11  15
ATOM     15  N   UNL     1       7.175   4.881  13.930  0.00  0.00    +0.000 N 
ATOM     16  O   UNL     1       6.781   4.135  13.028  0.00  0.00    +0.000 OA
ATOM     17  O   UNL     1       8.131   5.665  13.831  0.00  0.00    +0.000 OA
ENDBRANCH  11  15
BRANCH   9  19
ATOM     18  O   UNL     1       7.039   5.276  19.882  0.00  0.00    +0.000 OA
ATOM     19  C   UNL     1       7.129   5.797  18.784  0.00  0.00    +0.000 C 
BRANCH  19  20
ATOM     20  O   UNL     1       7.882   6.895  18.552  0.00  0.00    +0.000 OA
ATOM     21  H   UNL     1       8.785   6.703  18.223  0.00  0.00    +0.000 HD
ENDBRANCH  19  20
ENDBRANCH   9  19
ENDBRANCH   7  14
ENDBRANCH   1   7
BRANCH   4  22
ATOM     22  C   UNL     1       0.421   8.825  20.402  0.00  0.00    +0.000 C 
BRANCH  22  23
ATOM     23  C   UNL     1       0.938  10.227  20.803  0.00  0.00    +0.000 C 
BRANCH  23  24
ATOM     24  N   UNL     1       0.794  11.210  19.716  0.00  0.00    +0.000 NA
ATOM     25  C   UNL     1       0.154  12.469  20.126  0.00  0.00    +0.000 C 
ATOM     26  C   UNL     1      -1.352  12.344  20.346  0.00  0.00    +0.000 C 
ATOM     27  C   UNL     1      -1.994  11.933  19.025  0.00  0.00    +0.000 C 
ATOM     28  C   UNL     1      -3.518  11.855  19.112  0.00  0.00    +0.000 C 
ATOM     29  C   UNL     1      -4.097  11.540  17.735  0.00  0.00    +0.000 C 
ATOM     30  C   UNL     1      -3.507  10.256  17.156  0.00  0.00    +0.000 C 
ATOM     31  C   UNL     1      -1.975  10.255  17.164  0.00  0.00    +0.000 C 
ATOM     32  C   UNL     1      -1.399  10.596  18.550  0.00  0.00    +0.000 C 
ATOM     33  C   UNL     1       0.146  10.650  18.516  0.00  0.00    +0.000 C 
ENDBRANCH  23  24
ENDBRANCH  22  23
ENDBRANCH   4  22
TORSDOF 8
ENDMDL
MODEL 8
REMARK VINA RESULT:      -8.1      2.127      3.063
REMARK  Name = 
REMARK  8 active torsions:
REMARK  status: ('A' for Active; 'I' for Inactive)
REMARK    1  A    between atoms: C_2  and  O_3
REMARK    2  A    between atoms: C_2  and  C_4
REMARK    3  A    between atoms: C_6  and  N_7
REMARK    4  A    between atoms: C_12  and  N_13
REMARK    5  A    between atoms: N_13  and  C_14
REMARK    6  A    between atoms: C_17  and  C_18
REMARK    7  A    between atoms: C_18  and  C_19
REMARK    8  A    between atoms: C_19  and  N_20
REMARK                            x       y       z     vdW  Elec       q    Type
REMARK                         _______ _______ _______ _____ _____    ______ ____
ROOT
ATOM      1  C   UNL     1       2.415   7.080  19.258  0.00  0.00    +0.000 A 
ATOM      2  C   UNL     1       1.871   7.327  20.524  0.00  0.00    +0.000 A 
ATOM      3  C   UNL     1       1.139   8.494  20.777  0.00  0.00    +0.000 A 
ATOM      4  C   UNL     1       0.966   9.453  19.776  0.00  0.00    +0.000 A 
ATOM      5  C   UNL     1       1.501   9.199  18.507  0.00  0.00    +0.000 A 
ATOM      6  C   UNL     1       2.252   8.050  18.266  0.00  0.00    +0.000 A 
ENDROOT
BRANCH   1   7
ATOM      7  N   UNL     1       3.231   5.928  19.080  0.00  0.00    +0.000 N 
ATOM      8  H   UNL     1       3.775   5.839  19.949  0.00  0.00    +0.000 HD
BRANCH   7  14
ATOM      9  C   UNL     1       3.848   4.463  17.182  0.00  0.00    +0.000 A 
ATOM     10  C   UNL     1       4.707   4.148  16.113  0.00  0.00    +0.000 A 
ATOM     11  C   UNL     1       5.747   5.023  15.779  0.00  0.00    +0.000 A 
ATOM     12  C   UNL     1       5.900   6.228  16.464  0.00  0.00    +0.000 A 
ATOM     13  C   UNL     1       5.029   6.536  17.510  0.00  0.00    +0.000 A 
ATOM     14  C   UNL     1       4.060   5.623  17.959  0.00  0.00    +0.000 A 
BRANCH  11  15
ATOM     15  N   UNL     1       6.671   4.691  14.689  0.00  0.00    +0.000 N 
ATOM     16  O   UNL     1       6.379   3.743  13.953  0.00  0.00    +0.000 OA
ATOM     17  O   UNL     1       7.695   5.382  14.578  0.00  0.00    +0.000 OA
ENDBRANCH  11  15
BRANCH   9  19
ATOM     18  O   UNL     1       2.910   2.324  17.638  0.00  0.00    +0.000 OA
ATOM     19  C   UNL     1       2.734   3.512  17.429  0.00  0.00    +0.000 C 
BRANCH  19  20
ATOM     20  O   UNL     1       1.505   4.070  17.359  0.00  0.00    +0.000 OA
ATOM     21  H   UNL     1       1.247   4.577  18.158  0.00  0.00    +0.000 HD
ENDBRANCH  19  20
ENDBRANCH   9  19
ENDBRANCH   7  14
ENDBRANCH   1   7
BRANCH   4  22
ATOM     22  C   UNL     1       0.216  10.748  19.989  0.00  0.00    +0.000 C 
BRANCH  22  23
ATOM     23  C   UNL     1       1.031  11.897  20.627  0.00  0.00    +0.000 C 
BRANCH  23  24
ATOM     24  N   UNL     1       0.762  13.197  19.988  0.00  0.00    +0.000 NA
ATOM     25  C   UNL     1       0.914  13.190  18.525  0.00  0.00    +0.000 C 
ATOM     26  C   UNL     1       2.370  13.153  18.064  0.00  0.00    +0.000 C 
ATOM     27  C   UNL     1       3.064  14.411  18.573  0.00  0.00    +0.000 C 
ATOM     28  C   UNL     1       4.513  14.515  18.099  0.00  0.00    +0.000 C 
ATOM     29  C   UNL     1       5.111  15.842  18.559  0.00  0.00    +0.000 C 
ATOM     30  C   UNL     1       5.007  16.013  20.073  0.00  0.00    +0.000 C 
ATOM     31  C   UNL     1       3.584  15.798  20.595  0.00  0.00    +0.000 C 
ATOM     32  C   UNL     1       2.979  14.469  20.108  0.00  0.00    +0.000 C 
ATOM     33  C   UNL     1       1.521  14.306  20.596  0.00  0.00    +0.000 C 
ENDBRANCH  23  24
ENDBRANCH  22  23
ENDBRANCH   4  22
TORSDOF 8
ENDMDL
MODEL 9
REMARK VINA RESULT:      -8.1      5.060      9.602
REMARK  Name = 
REMARK  8 active torsions:
REMARK  status: ('A' for Active; 'I' for Inactive)
REMARK    1  A    between atoms: C_2  and  O_3
REMARK    2  A    between atoms: C_2  and  C_4
REMARK    3  A    between atoms: C_6  and  N_7
REMARK    4  A    between atoms: C_12  and  N_13
REMARK    5  A    between atoms: N_13  and  C_14
REMARK    6  A    between atoms: C_17  and  C_18
REMARK    7  A    between atoms: C_18  and  C_19
REMARK    8  A    between atoms: C_19  and  N_20
REMARK                            x       y       z     vdW  Elec       q    Type
REMARK                         _______ _______ _______ _____ _____    ______ ____
ROOT
ATOM      1  C   UNL     1       1.119   9.532  18.685  0.00  0.00    +0.000 A 
ATOM      2  C   UNL     1       1.009   9.087  20.007  0.00  0.00    +0.000 A 
ATOM      3  C   UNL     1       1.623   7.899  20.420  0.00  0.00    +0.000 A 
ATOM      4  C   UNL     1       2.334   7.115  19.508  0.00  0.00    +0.000 A 
ATOM      5  C   UNL     1       2.454   7.567  18.187  0.00  0.00    +0.000 A 
ATOM      6  C   UNL     1       1.817   8.736  17.773  0.00  0.00    +0.000 A 
ENDROOT
BRANCH   1   7
ATOM      7  N   UNL     1       0.396  10.694  18.294  0.00  0.00    +0.000 N 
ATOM      8  H   UNL     1       0.779  11.461  18.863  0.00  0.00    +0.000 HD
BRANCH   7  14
ATOM      9  C   UNL     1      -1.717  11.831  18.905  0.00  0.00    +0.000 A 
ATOM     10  C   UNL     1      -3.119  11.921  18.832  0.00  0.00    +0.000 A 
ATOM     11  C   UNL     1      -3.825  11.052  17.992  0.00  0.00    +0.000 A 
ATOM     12  C   UNL     1      -3.143  10.138  17.191  0.00  0.00    +0.000 A 
ATOM     13  C   UNL     1      -1.751  10.071  17.261  0.00  0.00    +0.000 A 
ATOM     14  C   UNL     1      -1.019  10.834  18.187  0.00  0.00    +0.000 A 
BRANCH  11  15
ATOM     15  N   UNL     1      -5.290  11.112  17.931  0.00  0.00    +0.000 N 
ATOM     16  O   UNL     1      -5.931  10.363  18.674  0.00  0.00    +0.000 OA
ATOM     17  O   UNL     1      -5.795  11.910  17.126  0.00  0.00    +0.000 OA
ENDBRANCH  11  15
BRANCH   9  19
ATOM     18  O   UNL     1      -1.410  13.083  20.905  0.00  0.00    +0.000 OA
ATOM     19  C   UNL     1      -1.041  12.831  19.771  0.00  0.00    +0.000 C 
BRANCH  19  20
ATOM     20  O   UNL     1      -0.008  13.468  19.177  0.00  0.00    +0.000 OA
ATOM     21  H   UNL     1       0.065  14.419  19.405  0.00  0.00    +0.000 HD
ENDBRANCH  19  20
ENDBRANCH   9  19
ENDBRANCH   7  14
ENDBRANCH   1   7
BRANCH   4  22
ATOM     22  C   UNL     1       2.994   5.806  19.876  0.00  0.00    +0.000 C 
BRANCH  22  23
ATOM     23  C   UNL     1       2.723   4.624  18.916  0.00  0.00    +0.000 C 
BRANCH  23  24
ATOM     24  N   UNL     1       3.873   3.710  18.813  0.00  0.00    +0.000 NA
ATOM     25  C   UNL     1       5.110   4.233  19.412  0.00  0.00    +0.000 C 
ATOM     26  C   UNL     1       5.778   5.324  18.579  0.00  0.00    +0.000 C 
ATOM     27  C   UNL     1       6.161   4.728  17.229  0.00  0.00    +0.000 C 
ATOM     28  C   UNL     1       6.911   5.719  16.340  0.00  0.00    +0.000 C 
ATOM     29  C   UNL     1       7.350   5.026  15.053  0.00  0.00    +0.000 C 
ATOM     30  C   UNL     1       6.166   4.404  14.316  0.00  0.00    +0.000 C 
ATOM     31  C   UNL     1       5.323   3.495  15.215  0.00  0.00    +0.000 C 
ATOM     32  C   UNL     1       4.904   4.192  16.521  0.00  0.00    +0.000 C 
ATOM     33  C   UNL     1       4.109   3.234  17.437  0.00  0.00    +0.000 C 
ENDBRANCH  23  24
ENDBRANCH  22  23
ENDBRANCH   4  22
TORSDOF 8
ENDMDL
