MODEL 1
REMARK VINA RESULT:      -8.2      0.000      0.000
REMARK  Name = 
REMARK  4 active torsions:
REMARK  status: ('A' for Active; 'I' for Inactive)
REMARK    1  A    between atoms: N_1  and  C_2
REMARK    2  A    between atoms: C_6  and  C_7
REMARK    3  A    between atoms: C_11  and  C_12
REMARK    4  A    between atoms: C_18  and  C_19
REMARK                            x       y       z     vdW  Elec       q    Type
REMARK                         _______ _______ _______ _____ _____    ______ ____
ROOT
ATOM      1  C   UNL     1       1.309   8.566  20.232  0.00  0.00    +0.000 A 
ATOM      2  N   UNL     1       0.596   7.999  21.244  0.00  0.00    +0.000 NA
ATOM      3  N   UNL     1      -0.230   8.909  21.703  0.00  0.00    +0.000 N 
ATOM      4  C   UNL     1      -0.076  10.125  21.147  0.00  0.00    +0.000 A 
ATOM      5  C   UNL     1      -0.754  11.275  21.478  0.00  0.00    +0.000 A 
ATOM      6  N   UNL     1      -0.486  12.396  20.816  0.00  0.00    +0.000 NA
ATOM      7  C   UNL     1       0.436  12.420  19.825  0.00  0.00    +0.000 A 
ATOM      8  C   UNL     1       1.137  11.233  19.427  0.00  0.00    +0.000 A 
ATOM      9  C   UNL     1       0.901  10.004  20.147  0.00  0.00    +0.000 A 
ATOM     10  H   UNL     1      -0.891   8.641  22.424  0.00  0.00    +0.000 HD
ENDROOT
BRANCH   1  15
ATOM     11  C   UNL     1       3.205   5.405  19.100  0.00  0.00    +0.000 A 
ATOM     12  C   UNL     1       3.735   5.861  17.882  0.00  0.00    +0.000 A 
ATOM     13  C   UNL     1       3.481   7.141  17.466  0.00  0.00    +0.000 A 
ATOM     14  C   UNL     1       2.730   7.955  18.294  0.00  0.00    +0.000 A 
ATOM     15  C   UNL     1       2.217   7.522  19.548  0.00  0.00    +0.000 A 
ATOM     16  N   UNL     1       2.457   6.228  19.960  0.00  0.00    +0.000 NA
BRANCH  11  21
ATOM     17  C   UNL     1       1.533   2.713  20.293  0.00  0.00    +0.000 C 
ATOM     18  C   UNL     1       1.519   1.843  19.023  0.00  0.00    +0.000 C 
ATOM     19  C   UNL     1       2.317   2.398  17.848  0.00  0.00    +0.000 C 
ATOM     20  C   UNL     1       3.679   2.941  18.266  0.00  0.00    +0.000 C 
ATOM     21  C   UNL     1       3.629   3.953  19.453  0.00  0.00    +0.000 C 
ATOM     22  C   UNL     1       2.927   3.261  20.623  0.00  0.00    +0.000 C 
BRANCH  17  23
ATOM     23  N   UNL     1       0.544   3.785  20.231  0.00  0.00    +0.000 NA
ATOM     24  H   UNL     1       0.936   4.628  19.822  0.00  0.00    +0.000 HD
ATOM     25  H   UNL     1       0.250   4.058  21.179  0.00  0.00    +0.000 HD
ENDBRANCH  17  23
ENDBRANCH  11  21
ENDBRANCH   1  15
BRANCH   7  26
ATOM     26  C   UNL     1       0.598  13.831  19.332  0.00  0.00    +0.000 A 
ATOM     27  C   UNL     1      -0.510  14.730  19.312  0.00  0.00    +0.000 A 
ATOM     28  C   UNL     1      -0.394  16.074  18.949  0.00  0.00    +0.000 A 
ATOM     29  C   UNL     1       0.856  16.525  18.579  0.00  0.00    +0.000 A 
ATOM     30  N   UNL     1       1.937  15.719  18.535  0.00  0.00    +0.000 NA
ATOM     31  C   UNL     1       1.782  14.409  18.910  0.00  0.00    +0.000 A 
ENDBRANCH   7  26
TORSDOF 4
ENDMDL
MODEL 2
REMARK VINA RESULT:      -8.1      2.403      8.751
REMARK  Name = 
REMARK  4 active torsions:
REMARK  status: ('A' for Active; 'I' for Inactive)
REMARK    1  A    between atoms: N_1  and  C_2
REMARK    2  A    between atoms: C_6  and  C_7
REMARK    3  A    between atoms: C_11  and  C_12
REMARK    4  A    between atoms: C_18  and  C_19
REMARK                            x       y       z     vdW  Elec       q    Type
REMARK                         _______ _______ _______ _____ _____    ______ ____
ROOT
ATOM      1  C   UNL     1       1.651   8.326  19.569  0.00  0.00    +0.000 A 
ATOM      2  N   UNL     1       1.090   7.717  20.650  0.00  0.00    +0.000 NA
ATOM      3  N   UNL     1       1.699   6.566  20.815  0.00  0.00    +0.000 N 
ATOM      4  C   UNL     1       2.591   6.271  19.851  0.00  0.00    +0.000 A 
ATOM      5  C   UNL     1       3.323   5.112  19.732  0.00  0.00    +0.000 A 
ATOM      6  N   UNL     1       4.175   4.988  18.719  0.00  0.00    +0.000 NA
ATOM      7  C   UNL     1       4.335   5.981  17.812  0.00  0.00    +0.000 A 
ATOM      8  C   UNL     1       3.616   7.218  17.924  0.00  0.00    +0.000 A 
ATOM      9  C   UNL     1       2.654   7.377  18.989  0.00  0.00    +0.000 A 
ATOM     10  H   UNL     1       1.452   6.001  21.619  0.00  0.00    +0.000 HD
ENDROOT
BRANCH   1  15
ATOM     11  C   UNL     1      -0.254  11.670  19.812  0.00  0.00    +0.000 A 
ATOM     12  C   UNL     1       0.518  12.454  18.939  0.00  0.00    +0.000 A 
ATOM     13  C   UNL     1       1.601  11.905  18.306  0.00  0.00    +0.000 A 
ATOM     14  C   UNL     1       1.873  10.566  18.530  0.00  0.00    +0.000 A 
ATOM     15  C   UNL     1       1.080   9.748  19.381  0.00  0.00    +0.000 A 
ATOM     16  N   UNL     1       0.000  10.305  20.033  0.00  0.00    +0.000 NA
BRANCH  11  21
ATOM     17  C   UNL     1      -1.550  11.919  22.930  0.00  0.00    +0.000 C 
ATOM     18  C   UNL     1      -1.158  13.373  23.249  0.00  0.00    +0.000 C 
ATOM     19  C   UNL     1      -0.521  14.141  22.095  0.00  0.00    +0.000 C 
ATOM     20  C   UNL     1      -1.246  13.924  20.772  0.00  0.00    +0.000 C 
ATOM     21  C   UNL     1      -1.474  12.425  20.405  0.00  0.00    +0.000 C 
ATOM     22  C   UNL     1      -2.231  11.773  21.564  0.00  0.00    +0.000 C 
BRANCH  17  23
ATOM     23  N   UNL     1      -0.416  11.009  23.055  0.00  0.00    +0.000 NA
ATOM     24  H   UNL     1       0.135  10.983  22.202  0.00  0.00    +0.000 HD
ATOM     25  H   UNL     1      -0.743  10.042  23.192  0.00  0.00    +0.000 HD
ENDBRANCH  17  23
ENDBRANCH  11  21
ENDBRANCH   1  15
BRANCH   7  26
ATOM     26  C   UNL     1       5.278   5.523  16.736  0.00  0.00    +0.000 A 
ATOM     27  C   UNL     1       4.835   4.653  15.695  0.00  0.00    +0.000 A 
ATOM     28  C   UNL     1       5.646   4.272  14.624  0.00  0.00    +0.000 A 
ATOM     29  C   UNL     1       6.938   4.755  14.603  0.00  0.00    +0.000 A 
ATOM     30  N   UNL     1       7.435   5.547  15.577  0.00  0.00    +0.000 NA
ATOM     31  C   UNL     1       6.601   5.907  16.605  0.00  0.00    +0.000 A 
ENDBRANCH   7  26
TORSDOF 4
ENDMDL
MODEL 3
REMARK VINA RESULT:      -8.1      2.576      9.337
REMARK  Name = 
REMARK  4 active torsions:
REMARK  status: ('A' for Active; 'I' for Inactive)
REMARK    1  A    between atoms: N_1  and  C_2
REMARK    2  A    between atoms: C_6  and  C_7
REMARK    3  A    between atoms: C_11  and  C_12
REMARK    4  A    between atoms: C_18  and  C_19
REMARK                            x       y       z     vdW  Elec       q    Type
REMARK                         _______ _______ _______ _____ _____    ______ ____
ROOT
ATOM      1  C   UNL     1       0.935   9.858  19.890  0.00  0.00    +0.000 A 
ATOM      2  N   UNL     1       1.044  10.693  18.819  0.00  0.00    +0.000 NA
ATOM      3  N   UNL     1       1.650  10.030  17.863  0.00  0.00    +0.000 N 
ATOM      4  C   UNL     1       2.073   8.804  18.223  0.00  0.00    +0.000 A 
ATOM      5  C   UNL     1       2.789   7.919  17.451  0.00  0.00    +0.000 A 
ATOM      6  N   UNL     1       3.119   6.737  17.961  0.00  0.00    +0.000 NA
ATOM      7  C   UNL     1       2.757   6.392  19.219  0.00  0.00    +0.000 A 
ATOM      8  C   UNL     1       1.978   7.274  20.041  0.00  0.00    +0.000 A 
ATOM      9  C   UNL     1       1.633   8.582  19.537  0.00  0.00    +0.000 A 
ATOM     10  H   UNL     1       1.760  10.480  16.960  0.00  0.00    +0.000 HD
ENDROOT
BRANCH   1  15
ATOM     11  C   UNL     1      -1.359  12.060  22.072  0.00  0.00    +0.000 A 
ATOM     12  C   UNL     1      -1.469  11.245  23.210  0.00  0.00    +0.000 A 
ATOM     13  C   UNL     1      -0.818  10.040  23.251  0.00  0.00    +0.000 A 
ATOM     14  C   UNL     1      -0.037   9.688  22.165  0.00  0.00    +0.000 A 
ATOM     15  C   UNL     1       0.117  10.518  21.020  0.00  0.00    +0.000 A 
ATOM     16  N   UNL     1      -0.553  11.723  20.970  0.00  0.00    +0.000 NA
BRANCH  11  21
ATOM     17  C   UNL     1      -3.743  13.594  20.221  0.00  0.00    +0.000 C 
ATOM     18  C   UNL     1      -4.942  13.431  21.172  0.00  0.00    +0.000 C 
ATOM     19  C   UNL     1      -4.613  12.827  22.533  0.00  0.00    +0.000 C 
ATOM     20  C   UNL     1      -3.352  13.420  23.152  0.00  0.00    +0.000 C 
ATOM     21  C   UNL     1      -2.111  13.412  22.206  0.00  0.00    +0.000 C 
ATOM     22  C   UNL     1      -2.498  14.151  20.924  0.00  0.00    +0.000 C 
BRANCH  17  23
ATOM     23  N   UNL     1      -3.438  12.357  19.510  0.00  0.00    +0.000 NA
ATOM     24  H   UNL     1      -3.663  12.432  18.522  0.00  0.00    +0.000 HD
ATOM     25  H   UNL     1      -4.025  11.586  19.860  0.00  0.00    +0.000 HD
ENDBRANCH  17  23
ENDBRANCH  11  21
ENDBRANCH   1  15
BRANCH   7  26
ATOM     26  C   UNL     1       3.348   5.052  19.555  0.00  0.00    +0.000 A 
ATOM     27  C   UNL     1       2.589   4.074  20.265  0.00  0.00    +0.000 A 
ATOM     28  C   UNL     1       3.059   2.784  20.522  0.00  0.00    +0.000 A 
ATOM     29  C   UNL     1       4.326   2.470  20.076  0.00  0.00    +0.000 A 
ATOM     30  N   UNL     1       5.114   3.360  19.436  0.00  0.00    +0.000 NA
ATOM     31  C   UNL     1       4.609   4.612  19.194  0.00  0.00    +0.000 A 
ENDBRANCH   7  26
TORSDOF 4
ENDMDL
MODEL 4
REMARK VINA RESULT:      -7.9      2.705      8.647
REMARK  Name = 
REMARK  4 active torsions:
REMARK  status: ('A' for Active; 'I' for Inactive)
REMARK    1  A    between atoms: N_1  and  C_2
REMARK    2  A    between atoms: C_6  and  C_7
REMARK    3  A    between atoms: C_11  and  C_12
REMARK    4  A    between atoms: C_18  and  C_19
REMARK                            x       y       z     vdW  Elec       q    Type
REMARK                         _______ _______ _______ _____ _____    ______ ____
ROOT
ATOM      1  C   UNL     1       1.923   6.829  20.127  0.00  0.00    +0.000 A 
ATOM      2  N   UNL     1       1.267   5.901  20.878  0.00  0.00    +0.000 NA
ATOM      3  N   UNL     1       1.783   4.729  20.596  0.00  0.00    +0.000 N 
ATOM      4  C   UNL     1       2.700   4.751  19.610  0.00  0.00    +0.000 A 
ATOM      5  C   UNL     1       3.353   3.670  19.066  0.00  0.00    +0.000 A 
ATOM      6  N   UNL     1       4.243   3.872  18.100  0.00  0.00    +0.000 NA
ATOM      7  C   UNL     1       4.517   5.120  17.651  0.00  0.00    +0.000 A 
ATOM      8  C   UNL     1       3.884   6.276  18.219  0.00  0.00    +0.000 A 
ATOM      9  C   UNL     1       2.883   6.094  19.244  0.00  0.00    +0.000 A 
ATOM     10  H   UNL     1       1.457   3.921  21.115  0.00  0.00    +0.000 HD
ENDROOT
BRANCH   1  15
ATOM     11  C   UNL     1       0.569  10.439  20.183  0.00  0.00    +0.000 A 
ATOM     12  C   UNL     1       0.444  10.631  21.569  0.00  0.00    +0.000 A 
ATOM     13  C   UNL     1       0.792   9.625  22.431  0.00  0.00    +0.000 A 
ATOM     14  C   UNL     1       1.295   8.454  21.891  0.00  0.00    +0.000 A 
ATOM     15  C   UNL     1       1.463   8.256  20.493  0.00  0.00    +0.000 A 
ATOM     16  N   UNL     1       1.096   9.262  19.624  0.00  0.00    +0.000 NA
BRANCH  11  21
ATOM     17  C   UNL     1      -1.829  11.056  17.875  0.00  0.00    +0.000 C 
ATOM     18  C   UNL     1      -2.746  11.974  18.704  0.00  0.00    +0.000 C 
ATOM     19  C   UNL     1      -2.210  12.351  20.082  0.00  0.00    +0.000 C 
ATOM     20  C   UNL     1      -0.735  12.735  20.056  0.00  0.00    +0.000 C 
ATOM     21  C   UNL     1       0.185  11.691  19.349  0.00  0.00    +0.000 C 
ATOM     22  C   UNL     1      -0.355  11.477  17.935  0.00  0.00    +0.000 C 
BRANCH  17  23
ATOM     23  N   UNL     1      -1.993   9.652  18.235  0.00  0.00    +0.000 NA
ATOM     24  H   UNL     1      -1.318   9.368  18.940  0.00  0.00    +0.000 HD
ATOM     25  H   UNL     1      -1.803   9.047  17.424  0.00  0.00    +0.000 HD
ENDBRANCH  17  23
ENDBRANCH  11  21
ENDBRANCH   1  15
BRANCH   7  26
ATOM     26  C   UNL     1       5.479   5.032  16.499  0.00  0.00    +0.000 A 
ATOM     27  C   UNL     1       5.185   4.224  15.361  0.00  0.00    +0.000 A 
ATOM     28  C   UNL     1       6.000   4.178  14.228  0.00  0.00    +0.000 A 
ATOM     29  C   UNL     1       7.147   4.945  14.241  0.00  0.00    +0.000 A 
ATOM     30  N   UNL     1       7.507   5.699  15.300  0.00  0.00    +0.000 NA
ATOM     31  C   UNL     1       6.672   5.724  16.388  0.00  0.00    +0.000 A 
ENDBRANCH   7  26
TORSDOF 4
ENDMDL
MODEL 5
REMARK VINA RESULT:      -7.9      2.089      9.474
REMARK  Name = 
REMARK  4 active torsions:
REMARK  status: ('A' for Active; 'I' for Inactive)
REMARK    1  A    between atoms: N_1  and  C_2
REMARK    2  A    between atoms: C_6  and  C_7
REMARK    3  A    between atoms: C_11  and  C_12
REMARK    4  A    between atoms: C_18  and  C_19
REMARK                            x       y       z     vdW  Elec       q    Type
REMARK                         _______ _______ _______ _____ _____    ______ ____
ROOT
ATOM      1  C   UNL     1       1.023   9.936  19.850  0.00  0.00    +0.000 A 
ATOM      2  N   UNL     1       1.143  10.723  18.745  0.00  0.00    +0.000 NA
ATOM      3  N   UNL     1       1.704  10.001  17.805  0.00  0.00    +0.000 N 
ATOM      4  C   UNL     1       2.088   8.774  18.207  0.00  0.00    +0.000 A 
ATOM      5  C   UNL     1       2.755   7.833  17.458  0.00  0.00    +0.000 A 
ATOM      6  N   UNL     1       3.050   6.660  18.009  0.00  0.00    +0.000 NA
ATOM      7  C   UNL     1       2.700   6.379  19.287  0.00  0.00    +0.000 A 
ATOM      8  C   UNL     1       1.971   7.321  20.087  0.00  0.00    +0.000 A 
ATOM      9  C   UNL     1       1.666   8.621  19.537  0.00  0.00    +0.000 A 
ATOM     10  H   UNL     1       1.813  10.409  16.883  0.00  0.00    +0.000 HD
ENDROOT
BRANCH   1  15
ATOM     11  C   UNL     1      -1.002  12.394  22.024  0.00  0.00    +0.000 A 
ATOM     12  C   UNL     1      -1.337  11.552  23.097  0.00  0.00    +0.000 A 
ATOM     13  C   UNL     1      -0.912  10.250  23.100  0.00  0.00    +0.000 A 
ATOM     14  C   UNL     1      -0.127   9.822  22.044  0.00  0.00    +0.000 A 
ATOM     15  C   UNL     1       0.253  10.671  20.968  0.00  0.00    +0.000 A 
ATOM     16  N   UNL     1      -0.190  11.977  20.955  0.00  0.00    +0.000 NA
BRANCH  11  21
ATOM     17  C   UNL     1       0.544  15.399  22.223  0.00  0.00    +0.000 C 
ATOM     18  C   UNL     1       0.144  15.979  20.854  0.00  0.00    +0.000 C 
ATOM     19  C   UNL     1      -0.833  15.127  20.050  0.00  0.00    +0.000 C 
ATOM     20  C   UNL     1      -1.975  14.580  20.899  0.00  0.00    +0.000 C 
ATOM     21  C   UNL     1      -1.513  13.850  22.199  0.00  0.00    +0.000 C 
ATOM     22  C   UNL     1      -0.649  14.826  22.998  0.00  0.00    +0.000 C 
BRANCH  17  23
ATOM     23  N   UNL     1       1.619  14.419  22.107  0.00  0.00    +0.000 NA
ATOM     24  H   UNL     1       1.949  14.120  23.020  0.00  0.00    +0.000 HD
ATOM     25  H   UNL     1       2.441  14.838  21.649  0.00  0.00    +0.000 HD
ENDBRANCH  17  23
ENDBRANCH  11  21
ENDBRANCH   1  15
BRANCH   7  26
ATOM     26  C   UNL     1       3.248   5.031  19.666  0.00  0.00    +0.000 A 
ATOM     27  C   UNL     1       2.491   4.137  20.479  0.00  0.00    +0.000 A 
ATOM     28  C   UNL     1       2.914   2.841  20.784  0.00  0.00    +0.000 A 
ATOM     29  C   UNL     1       4.132   2.437  20.280  0.00  0.00    +0.000 A 
ATOM     30  N   UNL     1       4.918   3.246  19.539  0.00  0.00    +0.000 NA
ATOM     31  C   UNL     1       4.459   4.506  19.253  0.00  0.00    +0.000 A 
ENDBRANCH   7  26
TORSDOF 4
ENDMDL
MODEL 6
REMARK VINA RESULT:      -7.9      0.920      1.102
REMARK  Name = 
REMARK  4 active torsions:
REMARK  status: ('A' for Active; 'I' for Inactive)
REMARK    1  A    between atoms: N_1  and  C_2
REMARK    2  A    between atoms: C_6  and  C_7
REMARK    3  A    between atoms: C_11  and  C_12
REMARK    4  A    between atoms: C_18  and  C_19
REMARK                            x       y       z     vdW  Elec       q    Type
REMARK                         _______ _______ _______ _____ _____    ______ ____
ROOT
ATOM      1  C   UNL     1       1.114   8.747  20.629  0.00  0.00    +0.000 A 
ATOM      2  N   UNL     1       0.415   8.065  21.579  0.00  0.00    +0.000 NA
ATOM      3  N   UNL     1      -0.381   8.922  22.173  0.00  0.00    +0.000 N 
ATOM      4  C   UNL     1      -0.217  10.197  21.773  0.00  0.00    +0.000 A 
ATOM      5  C   UNL     1      -0.865  11.306  22.267  0.00  0.00    +0.000 A 
ATOM      6  N   UNL     1      -0.590  12.498  21.748  0.00  0.00    +0.000 NA
ATOM      7  C   UNL     1       0.307  12.635  20.743  0.00  0.00    +0.000 A 
ATOM      8  C   UNL     1       0.975  11.498  20.177  0.00  0.00    +0.000 A 
ATOM      9  C   UNL     1       0.733  10.190  20.740  0.00  0.00    +0.000 A 
ATOM     10  H   UNL     1      -1.029   8.574  22.871  0.00  0.00    +0.000 HD
ENDROOT
BRANCH   1  15
ATOM     11  C   UNL     1       3.009   5.745  19.122  0.00  0.00    +0.000 A 
ATOM     12  C   UNL     1       3.377   6.287  17.880  0.00  0.00    +0.000 A 
ATOM     13  C   UNL     1       3.020   7.572  17.564  0.00  0.00    +0.000 A 
ATOM     14  C   UNL     1       2.332   8.305  18.515  0.00  0.00    +0.000 A 
ATOM     15  C   UNL     1       1.985   7.785  19.792  0.00  0.00    +0.000 A 
ATOM     16  N   UNL     1       2.328   6.486  20.103  0.00  0.00    +0.000 NA
BRANCH  11  21
ATOM     17  C   UNL     1       1.574   2.889  20.238  0.00  0.00    +0.000 C 
ATOM     18  C   UNL     1       1.518   2.103  18.915  0.00  0.00    +0.000 C 
ATOM     19  C   UNL     1       2.200   2.779  17.730  0.00  0.00    +0.000 C 
ATOM     20  C   UNL     1       3.557   3.373  18.092  0.00  0.00    +0.000 C 
ATOM     21  C   UNL     1       3.535   4.301  19.346  0.00  0.00    +0.000 C 
ATOM     22  C   UNL     1       2.957   3.496  20.510  0.00  0.00    +0.000 C 
BRANCH  17  23
ATOM     23  N   UNL     1       0.527   3.902  20.315  0.00  0.00    +0.000 NA
ATOM     24  H   UNL     1       0.095   3.920  21.235  0.00  0.00    +0.000 HD
ATOM     25  H   UNL     1      -0.238   3.681  19.663  0.00  0.00    +0.000 HD
ENDBRANCH  17  23
ENDBRANCH  11  21
ENDBRANCH   1  15
BRANCH   7  26
ATOM     26  C   UNL     1       0.484  14.095  20.431  0.00  0.00    +0.000 A 
ATOM     27  C   UNL     1       1.246  14.514  19.300  0.00  0.00    +0.000 A 
ATOM     28  C   UNL     1       1.365  15.852  18.916  0.00  0.00    +0.000 A 
ATOM     29  C   UNL     1       0.722  16.794  19.691  0.00  0.00    +0.000 A 
ATOM     30  N   UNL     1       0.020  16.470  20.797  0.00  0.00    +0.000 NA
ATOM     31  C   UNL     1      -0.081  15.145  21.133  0.00  0.00    +0.000 A 
ENDBRANCH   7  26
TORSDOF 4
ENDMDL
MODEL 7
REMARK VINA RESULT:      -7.8      1.997      2.552
REMARK  Name = 
REMARK  4 active torsions:
REMARK  status: ('A' for Active; 'I' for Inactive)
REMARK    1  A    between atoms: N_1  and  C_2
REMARK    2  A    between atoms: C_6  and  C_7
REMARK    3  A    between atoms: C_11  and  C_12
REMARK    4  A    between atoms: C_18  and  C_19
REMARK                            x       y       z     vdW  Elec       q    Type
REMARK                         _______ _______ _______ _____ _____    ______ ____
ROOT
ATOM      1  C   UNL     1       0.492   9.466  21.129  0.00  0.00    +0.000 A 
ATOM      2  N   UNL     1       0.514   8.754  22.290  0.00  0.00    +0.000 NA
ATOM      3  N   UNL     1      -0.317   9.334  23.124  0.00  0.00    +0.000 N 
ATOM      4  C   UNL     1      -0.852  10.480  22.662  0.00  0.00    +0.000 A 
ATOM      5  C   UNL     1      -1.698  11.327  23.340  0.00  0.00    +0.000 A 
ATOM      6  N   UNL     1      -2.146  12.418  22.727  0.00  0.00    +0.000 NA
ATOM      7  C   UNL     1      -1.789  12.702  21.452  0.00  0.00    +0.000 A 
ATOM      8  C   UNL     1      -0.939  11.824  20.700  0.00  0.00    +0.000 A 
ATOM      9  C   UNL     1      -0.400  10.649  21.344  0.00  0.00    +0.000 A 
ATOM     10  H   UNL     1      -0.479   8.899  24.025  0.00  0.00    +0.000 HD
ENDROOT
BRANCH   1  15
ATOM     11  C   UNL     1       2.583   7.050  18.971  0.00  0.00    +0.000 A 
ATOM     12  C   UNL     1       2.596   7.756  17.757  0.00  0.00    +0.000 A 
ATOM     13  C   UNL     1       1.952   8.961  17.663  0.00  0.00    +0.000 A 
ATOM     14  C   UNL     1       1.338   9.458  18.798  0.00  0.00    +0.000 A 
ATOM     15  C   UNL     1       1.348   8.775  20.046  0.00  0.00    +0.000 A 
ATOM     16  N   UNL     1       1.979   7.553  20.136  0.00  0.00    +0.000 NA
BRANCH  11  21
ATOM     17  C   UNL     1       2.013   3.914  20.112  0.00  0.00    +0.000 C 
ATOM     18  C   UNL     1       1.774   3.198  18.771  0.00  0.00    +0.000 C 
ATOM     19  C   UNL     1       2.007   4.053  17.529  0.00  0.00    +0.000 C 
ATOM     20  C   UNL     1       3.280   4.888  17.619  0.00  0.00    +0.000 C 
ATOM     21  C   UNL     1       3.402   5.731  18.926  0.00  0.00    +0.000 C 
ATOM     22  C   UNL     1       3.286   4.770  20.111  0.00  0.00    +0.000 C 
BRANCH  17  23
ATOM     23  N   UNL     1       0.852   4.693  20.529  0.00  0.00    +0.000 NA
ATOM     24  H   UNL     1       0.721   4.656  21.535  0.00  0.00    +0.000 HD
ATOM     25  H   UNL     1      -0.011   4.295  20.131  0.00  0.00    +0.000 HD
ENDBRANCH  17  23
ENDBRANCH  11  21
ENDBRANCH   1  15
BRANCH   7  26
ATOM     26  C   UNL     1      -2.363  14.035  21.062  0.00  0.00    +0.000 A 
ATOM     27  C   UNL     1      -3.770  14.269  21.108  0.00  0.00    +0.000 A 
ATOM     28  C   UNL     1      -4.344  15.514  20.843  0.00  0.00    +0.000 A 
ATOM     29  C   UNL     1      -3.494  16.546  20.505  0.00  0.00    +0.000 A 
ATOM     30  N   UNL     1      -2.158  16.384  20.402  0.00  0.00    +0.000 NA
ATOM     31  C   UNL     1      -1.634  15.148  20.681  0.00  0.00    +0.000 A 
ENDBRANCH   7  26
TORSDOF 4
ENDMDL
MODEL 8
REMARK VINA RESULT:      -7.8      2.510      4.386
REMARK  Name = 
REMARK  4 active torsions:
REMARK  status: ('A' for Active; 'I' for Inactive)
REMARK    1  A    between atoms: N_1  and  C_2
REMARK    2  A    between atoms: C_6  and  C_7
REMARK    3  A    between atoms: C_11  and  C_12
REMARK    4  A    between atoms: C_18  and  C_19
REMARK                            x       y       z     vdW  Elec       q    Type
REMARK                         _______ _______ _______ _____ _____    ______ ____
ROOT
ATOM      1  C   UNL     1       1.766   9.273  18.645  0.00  0.00    +0.000 A 
ATOM      2  N   UNL     1       2.445   9.924  17.660  0.00  0.00    +0.000 NA
ATOM      3  N   UNL     1       2.086  11.185  17.700  0.00  0.00    +0.000 N 
ATOM      4  C   UNL     1       1.110  11.453  18.589  0.00  0.00    +0.000 A 
ATOM      5  C   UNL     1       0.496  12.666  18.799  0.00  0.00    +0.000 A 
ATOM      6  N   UNL     1      -0.447  12.760  19.730  0.00  0.00    +0.000 NA
ATOM      7  C   UNL     1      -0.806  11.687  20.474  0.00  0.00    +0.000 A 
ATOM      8  C   UNL     1      -0.162  10.414  20.310  0.00  0.00    +0.000 A 
ATOM      9  C   UNL     1       0.840  10.262  19.282  0.00  0.00    +0.000 A 
ATOM     10  H   UNL     1       2.545  11.837  17.074  0.00  0.00    +0.000 HD
ENDROOT
BRANCH   1  15
ATOM     11  C   UNL     1       3.433   5.821  18.229  0.00  0.00    +0.000 A 
ATOM     12  C   UNL     1       3.055   5.220  19.441  0.00  0.00    +0.000 A 
ATOM     13  C   UNL     1       2.290   5.917  20.338  0.00  0.00    +0.000 A 
ATOM     14  C   UNL     1       1.885   7.194  19.990  0.00  0.00    +0.000 A 
ATOM     15  C   UNL     1       2.227   7.804  18.752  0.00  0.00    +0.000 A 
ATOM     16  N   UNL     1       3.012   7.110  17.856  0.00  0.00    +0.000 NA
BRANCH  11  21
ATOM     17  C   UNL     1       6.308   6.197  16.480  0.00  0.00    +0.000 C 
ATOM     18  C   UNL     1       7.235   5.308  17.327  0.00  0.00    +0.000 C 
ATOM     19  C   UNL     1       6.548   4.539  18.452  0.00  0.00    +0.000 C 
ATOM     20  C   UNL     1       5.236   3.900  18.011  0.00  0.00    +0.000 C 
ATOM     21  C   UNL     1       4.251   4.881  17.303  0.00  0.00    +0.000 C 
ATOM     22  C   UNL     1       4.989   5.502  16.115  0.00  0.00    +0.000 C 
BRANCH  17  23
ATOM     23  N   UNL     1       6.067   7.491  17.109  0.00  0.00    +0.000 NA
ATOM     24  H   UNL     1       5.804   7.386  18.085  0.00  0.00    +0.000 HD
ATOM     25  H   UNL     1       5.268   7.965  16.665  0.00  0.00    +0.000 HD
ENDBRANCH  17  23
ENDBRANCH  11  21
ENDBRANCH   1  15
BRANCH   7  26
ATOM     26  C   UNL     1      -1.954  12.064  21.367  0.00  0.00    +0.000 A 
ATOM     27  C   UNL     1      -1.928  11.758  22.761  0.00  0.00    +0.000 A 
ATOM     28  C   UNL     1      -2.926  12.166  23.649  0.00  0.00    +0.000 A 
ATOM     29  C   UNL     1      -3.985  12.880  23.128  0.00  0.00    +0.000 A 
ATOM     30  N   UNL     1      -4.093  13.168  21.814  0.00  0.00    +0.000 NA
ATOM     31  C   UNL     1      -3.086  12.758  20.979  0.00  0.00    +0.000 A 
ENDBRANCH   7  26
TORSDOF 4
ENDMDL
MODEL 9
REMARK VINA RESULT:      -7.8      1.725      2.245
REMARK  Name = 
REMARK  4 active torsions:
REMARK  status: ('A' for Active; 'I' for Inactive)
REMARK    1  A    between atoms: N_1  and  C_2
REMARK    2  A    between atoms: C_6  and  C_7
REMARK    3  A    between atoms: C_11  and  C_12
REMARK    4  A    between atoms: C_18  and  C_19
REMARK                            x       y       z     vdW  Elec       q    Type
REMARK                         _______ _______ _______ _____ _____    ______ ____
ROOT
ATOM      1  C   UNL     1       0.535   9.373  21.133  0.00  0.00    +0.000 A 
ATOM      2  N   UNL     1       0.337   8.627  22.255  0.00  0.00    +0.000 NA
ATOM      3  N   UNL     1      -0.483   9.293  23.033  0.00  0.00    +0.000 N 
ATOM      4  C   UNL     1      -0.801  10.520  22.578  0.00  0.00    +0.000 A 
ATOM      5  C   UNL     1      -1.582  11.458  23.212  0.00  0.00    +0.000 A 
ATOM      6  N   UNL     1      -1.806  12.623  22.612  0.00  0.00    +0.000 NA
ATOM      7  C   UNL     1      -1.285  12.895  21.392  0.00  0.00    +0.000 A 
ATOM      8  C   UNL     1      -0.496  11.927  20.684  0.00  0.00    +0.000 A 
ATOM      9  C   UNL     1      -0.198  10.665  21.318  0.00  0.00    +0.000 A 
ATOM     10  H   UNL     1      -0.796   8.855  23.892  0.00  0.00    +0.000 HD
ENDROOT
BRANCH   1  15
ATOM     11  C   UNL     1       2.565   6.778  19.130  0.00  0.00    +0.000 A 
ATOM     12  C   UNL     1       2.658   7.441  17.895  0.00  0.00    +0.000 A 
ATOM     13  C   UNL     1       2.085   8.675  17.740  0.00  0.00    +0.000 A 
ATOM     14  C   UNL     1       1.458   9.242  18.836  0.00  0.00    +0.000 A 
ATOM     15  C   UNL     1       1.388   8.601  20.104  0.00  0.00    +0.000 A 
ATOM     16  N   UNL     1       1.949   7.351  20.256  0.00  0.00    +0.000 NA
BRANCH  11  21
ATOM     17  C   UNL     1       1.694   3.661  20.125  0.00  0.00    +0.000 C 
ATOM     18  C   UNL     1       1.585   2.980  18.749  0.00  0.00    +0.000 C 
ATOM     19  C   UNL     1       2.014   3.839  17.564  0.00  0.00    +0.000 C 
ATOM     20  C   UNL     1       3.308   4.601  17.827  0.00  0.00    +0.000 C 
ATOM     21  C   UNL     1       3.312   5.416  19.157  0.00  0.00    +0.000 C 
ATOM     22  C   UNL     1       3.000   4.446  20.298  0.00  0.00    +0.000 C 
BRANCH  17  23
ATOM     23  N   UNL     1       0.533   4.497  20.413  0.00  0.00    +0.000 NA
ATOM     24  H   UNL     1       0.130   4.274  21.319  0.00  0.00    +0.000 HD
ATOM     25  H   UNL     1      -0.219   4.316  19.733  0.00  0.00    +0.000 HD
ENDBRANCH  17  23
ENDBRANCH  11  21
ENDBRANCH   1  15
BRANCH   7  26
ATOM     26  C   UNL     1      -1.620  14.310  21.014  0.00  0.00    +0.000 A 
ATOM     27  C   UNL     1      -0.754  15.067  20.169  0.00  0.00    +0.000 A 
ATOM     28  C   UNL     1      -1.063  16.351  19.716  0.00  0.00    +0.000 A 
ATOM     29  C   UNL     1      -2.258  16.900  20.132  0.00  0.00    +0.000 A 
ATOM     30  N   UNL     1      -3.104  16.257  20.964  0.00  0.00    +0.000 NA
ATOM     31  C   UNL     1      -2.767  14.993  21.377  0.00  0.00    +0.000 A 
ENDBRANCH   7  26
TORSDOF 4
ENDMDL
