MODEL 1
REMARK VINA RESULT:      -7.0      0.000      0.000
REMARK  Name = 
REMARK  8 active torsions:
REMARK  status: ('A' for Active; 'I' for Inactive)
REMARK    1  A    between atoms: C_1  and  C_2
REMARK    2  A    between atoms: C_2  and  O_3
REMARK    3  A    between atoms: O_3  and  C_4
REMARK    4  A    between atoms: C_9  and  C_10
REMARK    5  A    between atoms: C_12  and  C_13
REMARK    6  A    between atoms: C_13  and  N_14
REMARK    7  A    between atoms: N_14  and  C_15
REMARK    8  A    between atoms: C_15  and  C_16
REMARK                            x       y       z     vdW  Elec       q    Type
REMARK                         _______ _______ _______ _____ _____    ______ ____
ROOT
ATOM      1  C   UNL     1       4.175   5.962  17.812  0.00  0.00    +0.000 A 
ATOM      2  N   UNL     1       3.794   5.408  18.949  0.00  0.00    +0.000 NA
ATOM      3  C   UNL     1       2.736   6.192  19.378  0.00  0.00    +0.000 A 
ATOM      4  C   UNL     1       2.560   7.219  18.485  0.00  0.00    +0.000 A 
ATOM      5  O   UNL     1       3.466   7.090  17.488  0.00  0.00    +0.000 OA
ENDROOT
BRANCH   1  11
ATOM      6  C   UNL     1       6.302   6.209  16.398  0.00  0.00    +0.000 A 
ATOM      7  C   UNL     1       7.120   5.657  15.393  0.00  0.00    +0.000 A 
ATOM      8  C   UNL     1       6.830   4.434  14.803  0.00  0.00    +0.000 A 
ATOM      9  C   UNL     1       5.730   3.713  15.229  0.00  0.00    +0.000 A 
ATOM     10  C   UNL     1       4.911   4.227  16.237  0.00  0.00    +0.000 A 
ATOM     11  C   UNL     1       5.167   5.486  16.830  0.00  0.00    +0.000 A 
BRANCH   6  12
ATOM     12  O   UNL     1       6.595   7.442  16.948  0.00  0.00    +0.000 OA
BRANCH  12  14
ATOM     13  C   UNL     1       8.233   8.902  17.993  0.00  0.00    +0.000 C 
ATOM     14  C   UNL     1       7.744   7.482  17.804  0.00  0.00    +0.000 C 
ENDBRANCH  12  14
ENDBRANCH   6  12
ENDBRANCH   1  11
BRANCH   3  15
ATOM     15  C   UNL     1       1.949   5.913  20.616  0.00  0.00    +0.000 C 
BRANCH  15  16
ATOM     16  N   UNL     1       2.303   4.626  21.225  0.00  0.00    +0.000 NA
ATOM     17  H   UNL     1       2.422   4.784  22.228  0.00  0.00    +0.000 HD
BRANCH  16  18
ATOM     18  C   UNL     1       1.274   3.600  21.013  0.00  0.00    +0.000 C 
BRANCH  18  19
ATOM     19  C   UNL     1       1.750   2.474  20.086  0.00  0.00    +0.000 C 
ATOM     20  C   UNL     1       3.260   2.368  19.966  0.00  0.00    +0.000 C 
ATOM     21  C   UNL     1       3.412   1.698  18.623  0.00  0.00    +0.000 C 
ATOM     22  C   UNL     1       2.291   2.319  17.822  0.00  0.00    +0.000 C 
ATOM     23  O   UNL     1       1.260   2.693  18.748  0.00  0.00    +0.000 OA
ENDBRANCH  18  19
ENDBRANCH  16  18
ENDBRANCH  15  16
ENDBRANCH   3  15
TORSDOF 7
ENDMDL
MODEL 2
REMARK VINA RESULT:      -6.8      1.961      3.806
REMARK  Name = 
REMARK  8 active torsions:
REMARK  status: ('A' for Active; 'I' for Inactive)
REMARK    1  A    between atoms: C_1  and  C_2
REMARK    2  A    between atoms: C_2  and  O_3
REMARK    3  A    between atoms: O_3  and  C_4
REMARK    4  A    between atoms: C_9  and  C_10
REMARK    5  A    between atoms: C_12  and  C_13
REMARK    6  A    between atoms: C_13  and  N_14
REMARK    7  A    between atoms: N_14  and  C_15
REMARK    8  A    between atoms: C_15  and  C_16
REMARK                            x       y       z     vdW  Elec       q    Type
REMARK                         _______ _______ _______ _____ _____    ______ ____
ROOT
ATOM      1  C   UNL     1       5.375   4.064  18.343  0.00  0.00    +0.000 A 
ATOM      2  N   UNL     1       4.428   3.649  17.522  0.00  0.00    +0.000 NA
ATOM      3  C   UNL     1       3.816   2.608  18.198  0.00  0.00    +0.000 A 
ATOM      4  C   UNL     1       4.463   2.420  19.394  0.00  0.00    +0.000 A 
ATOM      5  O   UNL     1       5.458   3.333  19.500  0.00  0.00    +0.000 OA
ENDROOT
BRANCH   1  11
ATOM      6  C   UNL     1       6.429   6.023  17.063  0.00  0.00    +0.000 A 
ATOM      7  C   UNL     1       7.375   7.067  17.075  0.00  0.00    +0.000 A 
ATOM      8  C   UNL     1       8.162   7.327  18.189  0.00  0.00    +0.000 A 
ATOM      9  C   UNL     1       7.999   6.571  19.334  0.00  0.00    +0.000 A 
ATOM     10  C   UNL     1       7.054   5.542  19.357  0.00  0.00    +0.000 A 
ATOM     11  C   UNL     1       6.264   5.235  18.225  0.00  0.00    +0.000 A 
BRANCH   6  12
ATOM     12  O   UNL     1       5.679   5.764  15.932  0.00  0.00    +0.000 OA
BRANCH  12  14
ATOM     13  C   UNL     1       5.524   4.148  14.123  0.00  0.00    +0.000 C 
ATOM     14  C   UNL     1       6.389   5.162  14.841  0.00  0.00    +0.000 C 
ENDBRANCH  12  14
ENDBRANCH   6  12
ENDBRANCH   1  11
BRANCH   3  15
ATOM     15  C   UNL     1       2.642   1.854  17.668  0.00  0.00    +0.000 C 
BRANCH  15  16
ATOM     16  N   UNL     1       1.664   1.533  18.714  0.00  0.00    +0.000 NA
ATOM     17  H   UNL     1       2.165   1.511  19.604  0.00  0.00    +0.000 HD
BRANCH  16  18
ATOM     18  C   UNL     1       0.578   2.519  18.791  0.00  0.00    +0.000 C 
BRANCH  18  19
ATOM     19  C   UNL     1       0.720   3.456  19.998  0.00  0.00    +0.000 C 
ATOM     20  C   UNL     1       1.571   4.685  19.730  0.00  0.00    +0.000 C 
ATOM     21  C   UNL     1       2.043   5.037  21.118  0.00  0.00    +0.000 C 
ATOM     22  C   UNL     1       2.249   3.677  21.744  0.00  0.00    +0.000 C 
ATOM     23  O   UNL     1       1.355   2.764  21.091  0.00  0.00    +0.000 OA
ENDBRANCH  18  19
ENDBRANCH  16  18
ENDBRANCH  15  16
ENDBRANCH   3  15
TORSDOF 7
ENDMDL
MODEL 3
REMARK VINA RESULT:      -6.7      2.005      3.707
REMARK  Name = 
REMARK  8 active torsions:
REMARK  status: ('A' for Active; 'I' for Inactive)
REMARK    1  A    between atoms: C_1  and  C_2
REMARK    2  A    between atoms: C_2  and  O_3
REMARK    3  A    between atoms: O_3  and  C_4
REMARK    4  A    between atoms: C_9  and  C_10
REMARK    5  A    between atoms: C_12  and  C_13
REMARK    6  A    between atoms: C_13  and  N_14
REMARK    7  A    between atoms: N_14  and  C_15
REMARK    8  A    between atoms: C_15  and  C_16
REMARK                            x       y       z     vdW  Elec       q    Type
REMARK                         _______ _______ _______ _____ _____    ______ ____
ROOT
ATOM      1  C   UNL     1       5.308   4.345  18.303  0.00  0.00    +0.000 A 
ATOM      2  N   UNL     1       4.404   3.857  17.473  0.00  0.00    +0.000 NA
ATOM      3  C   UNL     1       3.861   2.777  18.150  0.00  0.00    +0.000 A 
ATOM      4  C   UNL     1       4.505   2.644  19.354  0.00  0.00    +0.000 A 
ATOM      5  O   UNL     1       5.429   3.628  19.466  0.00  0.00    +0.000 OA
ENDROOT
BRANCH   1  11
ATOM      6  C   UNL     1       5.756   6.716  17.429  0.00  0.00    +0.000 A 
ATOM      7  C   UNL     1       6.663   7.791  17.349  0.00  0.00    +0.000 A 
ATOM      8  C   UNL     1       7.900   7.753  17.977  0.00  0.00    +0.000 A 
ATOM      9  C   UNL     1       8.250   6.649  18.732  0.00  0.00    +0.000 A 
ATOM     10  C   UNL     1       7.363   5.576  18.845  0.00  0.00    +0.000 A 
ATOM     11  C   UNL     1       6.110   5.576  18.187  0.00  0.00    +0.000 A 
BRANCH   6  12
ATOM     12  O   UNL     1       4.543   6.765  16.769  0.00  0.00    +0.000 OA
BRANCH  12  14
ATOM     13  C   UNL     1       2.628   7.286  18.171  0.00  0.00    +0.000 C 
ATOM     14  C   UNL     1       3.652   7.808  17.186  0.00  0.00    +0.000 C 
ENDBRANCH  12  14
ENDBRANCH   6  12
ENDBRANCH   1  11
BRANCH   3  15
ATOM     15  C   UNL     1       2.751   1.937  17.611  0.00  0.00    +0.000 C 
BRANCH  15  16
ATOM     16  N   UNL     1       1.845   1.464  18.664  0.00  0.00    +0.000 NA
ATOM     17  H   UNL     1       2.368   1.470  19.542  0.00  0.00    +0.000 HD
BRANCH  16  18
ATOM     18  C   UNL     1       0.652   2.309  18.802  0.00  0.00    +0.000 C 
BRANCH  18  19
ATOM     19  C   UNL     1       0.716   3.220  20.035  0.00  0.00    +0.000 C 
ATOM     20  C   UNL     1       1.466   4.520  19.805  0.00  0.00    +0.000 C 
ATOM     21  C   UNL     1       1.906   4.870  21.205  0.00  0.00    +0.000 C 
ATOM     22  C   UNL     1       2.221   3.513  21.792  0.00  0.00    +0.000 C 
ATOM     23  O   UNL     1       1.404   2.551  21.111  0.00  0.00    +0.000 OA
ENDBRANCH  18  19
ENDBRANCH  16  18
ENDBRANCH  15  16
ENDBRANCH   3  15
TORSDOF 7
ENDMDL
MODEL 4
REMARK VINA RESULT:      -6.7      2.660      6.300
REMARK  Name = 
REMARK  8 active torsions:
REMARK  status: ('A' for Active; 'I' for Inactive)
REMARK    1  A    between atoms: C_1  and  C_2
REMARK    2  A    between atoms: C_2  and  O_3
REMARK    3  A    between atoms: O_3  and  C_4
REMARK    4  A    between atoms: C_9  and  C_10
REMARK    5  A    between atoms: C_12  and  C_13
REMARK    6  A    between atoms: C_13  and  N_14
REMARK    7  A    between atoms: N_14  and  C_15
REMARK    8  A    between atoms: C_15  and  C_16
REMARK                            x       y       z     vdW  Elec       q    Type
REMARK                         _______ _______ _______ _____ _____    ______ ____
ROOT
ATOM      1  C   UNL     1       4.774   4.371  18.580  0.00  0.00    +0.000 A 
ATOM      2  N   UNL     1       5.058   4.315  17.291  0.00  0.00    +0.000 NA
ATOM      3  C   UNL     1       6.407   4.616  17.222  0.00  0.00    +0.000 A 
ATOM      4  C   UNL     1       6.864   4.882  18.488  0.00  0.00    +0.000 A 
ATOM      5  O   UNL     1       5.840   4.735  19.362  0.00  0.00    +0.000 OA
ENDROOT
BRANCH   1  11
ATOM      6  C   UNL     1       2.297   4.703  19.166  0.00  0.00    +0.000 A 
ATOM      7  C   UNL     1       1.206   4.287  19.953  0.00  0.00    +0.000 A 
ATOM      8  C   UNL     1       1.310   3.229  20.846  0.00  0.00    +0.000 A 
ATOM      9  C   UNL     1       2.501   2.536  20.950  0.00  0.00    +0.000 A 
ATOM     10  C   UNL     1       3.595   2.915  20.168  0.00  0.00    +0.000 A 
ATOM     11  C   UNL     1       3.524   4.010  19.275  0.00  0.00    +0.000 A 
BRANCH   6  12
ATOM     12  O   UNL     1       2.177   5.778  18.306  0.00  0.00    +0.000 OA
BRANCH  12  14
ATOM     13  C   UNL     1       3.033   7.989  17.772  0.00  0.00    +0.000 C 
ATOM     14  C   UNL     1       2.537   7.054  18.853  0.00  0.00    +0.000 C 
ENDBRANCH  12  14
ENDBRANCH   6  12
ENDBRANCH   1  11
BRANCH   3  15
ATOM     15  C   UNL     1       7.188   4.626  15.949  0.00  0.00    +0.000 C 
BRANCH  15  16
ATOM     16  N   UNL     1       6.456   5.267  14.850  0.00  0.00    +0.000 NA
ATOM     17  H   UNL     1       6.618   6.274  14.920  0.00  0.00    +0.000 HD
BRANCH  16  18
ATOM     18  C   UNL     1       6.894   4.794  13.531  0.00  0.00    +0.000 C 
BRANCH  18  19
ATOM     19  C   UNL     1       6.140   3.537  13.077  0.00  0.00    +0.000 C 
ATOM     20  C   UNL     1       6.726   2.876  11.842  0.00  0.00    +0.000 C 
ATOM     21  C   UNL     1       5.528   2.146  11.290  0.00  0.00    +0.000 C 
ATOM     22  C   UNL     1       4.399   3.106  11.587  0.00  0.00    +0.000 C 
ATOM     23  O   UNL     1       4.779   3.870  12.741  0.00  0.00    +0.000 OA
ENDBRANCH  18  19
ENDBRANCH  16  18
ENDBRANCH  15  16
ENDBRANCH   3  15
TORSDOF 7
ENDMDL
MODEL 5
REMARK VINA RESULT:      -6.5      2.279      6.291
REMARK  Name = 
REMARK  8 active torsions:
REMARK  status: ('A' for Active; 'I' for Inactive)
REMARK    1  A    between atoms: C_1  and  C_2
REMARK    2  A    between atoms: C_2  and  O_3
REMARK    3  A    between atoms: O_3  and  C_4
REMARK    4  A    between atoms: C_9  and  C_10
REMARK    5  A    between atoms: C_12  and  C_13
REMARK    6  A    between atoms: C_13  and  N_14
REMARK    7  A    between atoms: N_14  and  C_15
REMARK    8  A    between atoms: C_15  and  C_16
REMARK                            x       y       z     vdW  Elec       q    Type
REMARK                         _______ _______ _______ _____ _____    ______ ____
ROOT
ATOM      1  C   UNL     1       4.626   5.281  19.201  0.00  0.00    +0.000 A 
ATOM      2  N   UNL     1       4.823   6.151  18.227  0.00  0.00    +0.000 NA
ATOM      3  C   UNL     1       6.200   6.239  18.115  0.00  0.00    +0.000 A 
ATOM      4  C   UNL     1       6.771   5.435  19.069  0.00  0.00    +0.000 A 
ATOM      5  O   UNL     1       5.787   4.822  19.769  0.00  0.00    +0.000 OA
ENDROOT
BRANCH   1  11
ATOM      6  C   UNL     1       2.214   5.404  20.067  0.00  0.00    +0.000 A 
ATOM      7  C   UNL     1       1.106   4.698  20.575  0.00  0.00    +0.000 A 
ATOM      8  C   UNL     1       1.123   3.317  20.719  0.00  0.00    +0.000 A 
ATOM      9  C   UNL     1       2.238   2.602  20.326  0.00  0.00    +0.000 A 
ATOM     10  C   UNL     1       3.344   3.274  19.801  0.00  0.00    +0.000 A 
ATOM     11  C   UNL     1       3.365   4.683  19.675  0.00  0.00    +0.000 A 
BRANCH   6  12
ATOM     12  O   UNL     1       2.184   6.781  19.962  0.00  0.00    +0.000 OA
BRANCH  12  14
ATOM     13  C   UNL     1       1.076   8.874  20.506  0.00  0.00    +0.000 C 
ATOM     14  C   UNL     1       1.396   7.462  20.947  0.00  0.00    +0.000 C 
ENDBRANCH  12  14
ENDBRANCH   6  12
ENDBRANCH   1  11
BRANCH   3  15
ATOM     15  C   UNL     1       6.895   7.082  17.097  0.00  0.00    +0.000 C 
BRANCH  15  16
ATOM     16  N   UNL     1       7.652   6.280  16.129  0.00  0.00    +0.000 NA
ATOM     17  H   UNL     1       8.574   6.104  16.532  0.00  0.00    +0.000 HD
BRANCH  16  18
ATOM     18  C   UNL     1       7.000   4.999  15.827  0.00  0.00    +0.000 C 
BRANCH  18  19
ATOM     19  C   UNL     1       6.467   4.935  14.390  0.00  0.00    +0.000 C 
ATOM     20  C   UNL     1       6.022   3.550  13.956  0.00  0.00    +0.000 C 
ATOM     21  C   UNL     1       6.165   3.640  12.457  0.00  0.00    +0.000 C 
ATOM     22  C   UNL     1       7.404   4.491  12.301  0.00  0.00    +0.000 C 
ATOM     23  O   UNL     1       7.496   5.331  13.461  0.00  0.00    +0.000 OA
ENDBRANCH  18  19
ENDBRANCH  16  18
ENDBRANCH  15  16
ENDBRANCH   3  15
TORSDOF 7
ENDMDL
MODEL 6
REMARK VINA RESULT:      -6.5      2.325      6.100
REMARK  Name = 
REMARK  8 active torsions:
REMARK  status: ('A' for Active; 'I' for Inactive)
REMARK    1  A    between atoms: C_1  and  C_2
REMARK    2  A    between atoms: C_2  and  O_3
REMARK    3  A    between atoms: O_3  and  C_4
REMARK    4  A    between atoms: C_9  and  C_10
REMARK    5  A    between atoms: C_12  and  C_13
REMARK    6  A    between atoms: C_13  and  N_14
REMARK    7  A    between atoms: N_14  and  C_15
REMARK    8  A    between atoms: C_15  and  C_16
REMARK                            x       y       z     vdW  Elec       q    Type
REMARK                         _______ _______ _______ _____ _____    ______ ____
ROOT
ATOM      1  C   UNL     1       3.746   5.060  17.804  0.00  0.00    +0.000 A 
ATOM      2  N   UNL     1       4.999   4.680  17.630  0.00  0.00    +0.000 NA
ATOM      3  C   UNL     1       5.612   5.771  17.039  0.00  0.00    +0.000 A 
ATOM      4  C   UNL     1       4.672   6.752  16.846  0.00  0.00    +0.000 A 
ATOM      5  O   UNL     1       3.481   6.316  17.322  0.00  0.00    +0.000 OA
ENDROOT
BRANCH   1  11
ATOM      6  C   UNL     1       2.086   4.778  19.741  0.00  0.00    +0.000 A 
ATOM      7  C   UNL     1       1.098   3.972  20.339  0.00  0.00    +0.000 A 
ATOM      8  C   UNL     1       0.681   2.779  19.765  0.00  0.00    +0.000 A 
ATOM      9  C   UNL     1       1.219   2.377  18.557  0.00  0.00    +0.000 A 
ATOM     10  C   UNL     1       2.187   3.166  17.931  0.00  0.00    +0.000 A 
ATOM     11  C   UNL     1       2.652   4.369  18.513  0.00  0.00    +0.000 A 
BRANCH   6  12
ATOM     12  O   UNL     1       2.506   5.947  20.348  0.00  0.00    +0.000 OA
BRANCH  12  14
ATOM     13  C   UNL     1       1.676   8.230  20.280  0.00  0.00    +0.000 C 
ATOM     14  C   UNL     1       1.463   6.823  20.795  0.00  0.00    +0.000 C 
ENDBRANCH  12  14
ENDBRANCH   6  12
ENDBRANCH   1  11
BRANCH   3  15
ATOM     15  C   UNL     1       7.064   5.819  16.696  0.00  0.00    +0.000 C 
BRANCH  15  16
ATOM     16  N   UNL     1       7.447   4.774  15.740  0.00  0.00    +0.000 NA
ATOM     17  H   UNL     1       7.039   3.896  16.065  0.00  0.00    +0.000 HD
BRANCH  16  18
ATOM     18  C   UNL     1       6.974   5.056  14.378  0.00  0.00    +0.000 C 
BRANCH  18  19
ATOM     19  C   UNL     1       6.349   3.826  13.707  0.00  0.00    +0.000 C 
ATOM     20  C   UNL     1       6.943   3.493  12.350  0.00  0.00    +0.000 C 
ATOM     21  C   UNL     1       5.810   2.739  11.699  0.00  0.00    +0.000 C 
ATOM     22  C   UNL     1       4.594   3.476  12.211  0.00  0.00    +0.000 C 
ATOM     23  O   UNL     1       4.942   4.045  13.482  0.00  0.00    +0.000 OA
ENDBRANCH  18  19
ENDBRANCH  16  18
ENDBRANCH  15  16
ENDBRANCH   3  15
TORSDOF 7
ENDMDL
MODEL 7
REMARK VINA RESULT:      -6.5      2.047      3.825
REMARK  Name = 
REMARK  8 active torsions:
REMARK  status: ('A' for Active; 'I' for Inactive)
REMARK    1  A    between atoms: C_1  and  C_2
REMARK    2  A    between atoms: C_2  and  O_3
REMARK    3  A    between atoms: O_3  and  C_4
REMARK    4  A    between atoms: C_9  and  C_10
REMARK    5  A    between atoms: C_12  and  C_13
REMARK    6  A    between atoms: C_13  and  N_14
REMARK    7  A    between atoms: N_14  and  C_15
REMARK    8  A    between atoms: C_15  and  C_16
REMARK                            x       y       z     vdW  Elec       q    Type
REMARK                         _______ _______ _______ _____ _____    ______ ____
ROOT
ATOM      1  C   UNL     1       5.374   4.009  18.618  0.00  0.00    +0.000 A 
ATOM      2  N   UNL     1       4.524   3.337  17.863  0.00  0.00    +0.000 NA
ATOM      3  C   UNL     1       3.971   2.397  18.717  0.00  0.00    +0.000 A 
ATOM      4  C   UNL     1       4.556   2.527  19.951  0.00  0.00    +0.000 A 
ATOM      5  O   UNL     1       5.451   3.542  19.905  0.00  0.00    +0.000 OA
ENDROOT
BRANCH   1  11
ATOM      6  C   UNL     1       6.004   5.999  17.126  0.00  0.00    +0.000 A 
ATOM      7  C   UNL     1       6.876   7.085  16.916  0.00  0.00    +0.000 A 
ATOM      8  C   UNL     1       7.889   7.395  17.814  0.00  0.00    +0.000 A 
ATOM      9  C   UNL     1       8.034   6.646  18.966  0.00  0.00    +0.000 A 
ATOM     10  C   UNL     1       7.171   5.574  19.210  0.00  0.00    +0.000 A 
ATOM     11  C   UNL     1       6.153   5.218  18.295  0.00  0.00    +0.000 A 
BRANCH   6  12
ATOM     12  O   UNL     1       5.024   5.693  16.202  0.00  0.00    +0.000 OA
BRANCH  12  14
ATOM     13  C   UNL     1       6.125   4.045  14.796  0.00  0.00    +0.000 C 
ATOM     14  C   UNL     1       5.488   5.416  14.874  0.00  0.00    +0.000 C 
ENDBRANCH  12  14
ENDBRANCH   6  12
ENDBRANCH   1  11
BRANCH   3  15
ATOM     15  C   UNL     1       2.910   1.431  18.307  0.00  0.00    +0.000 C 
BRANCH  15  16
ATOM     16  N   UNL     1       1.641   2.096  17.991  0.00  0.00    +0.000 NA
ATOM     17  H   UNL     1       1.011   1.388  17.608  0.00  0.00    +0.000 HD
BRANCH  16  18
ATOM     18  C   UNL     1       1.019   2.713  19.169  0.00  0.00    +0.000 C 
BRANCH  18  19
ATOM     19  C   UNL     1       1.068   4.246  19.124  0.00  0.00    +0.000 C 
ATOM     20  C   UNL     1       1.683   4.808  17.854  0.00  0.00    +0.000 C 
ATOM     21  C   UNL     1       2.166   6.158  18.321  0.00  0.00    +0.000 C 
ATOM     22  C   UNL     1       2.636   5.865  19.727  0.00  0.00    +0.000 C 
ATOM     23  O   UNL     1       1.873   4.749  20.210  0.00  0.00    +0.000 OA
ENDBRANCH  18  19
ENDBRANCH  16  18
ENDBRANCH  15  16
ENDBRANCH   3  15
TORSDOF 7
ENDMDL
MODEL 8
REMARK VINA RESULT:      -6.5      2.888      6.441
REMARK  Name = 
REMARK  8 active torsions:
REMARK  status: ('A' for Active; 'I' for Inactive)
REMARK    1  A    between atoms: C_1  and  C_2
REMARK    2  A    between atoms: C_2  and  O_3
REMARK    3  A    between atoms: O_3  and  C_4
REMARK    4  A    between atoms: C_9  and  C_10
REMARK    5  A    between atoms: C_12  and  C_13
REMARK    6  A    between atoms: C_13  and  N_14
REMARK    7  A    between atoms: N_14  and  C_15
REMARK    8  A    between atoms: C_15  and  C_16
REMARK                            x       y       z     vdW  Elec       q    Type
REMARK                         _______ _______ _______ _____ _____    ______ ____
ROOT
ATOM      1  C   UNL     1       4.483   4.388  18.251  0.00  0.00    +0.000 A 
ATOM      2  N   UNL     1       4.863   4.351  16.987  0.00  0.00    +0.000 NA
ATOM      3  C   UNL     1       6.221   4.619  17.026  0.00  0.00    +0.000 A 
ATOM      4  C   UNL     1       6.587   4.848  18.329  0.00  0.00    +0.000 A 
ATOM      5  O   UNL     1       5.495   4.709  19.119  0.00  0.00    +0.000 OA
ENDROOT
BRANCH   1  11
ATOM      6  C   UNL     1       2.452   4.850  19.750  0.00  0.00    +0.000 A 
ATOM      7  C   UNL     1       1.250   4.356  20.293  0.00  0.00    +0.000 A 
ATOM      8  C   UNL     1       0.769   3.093  19.974  0.00  0.00    +0.000 A 
ATOM      9  C   UNL     1       1.463   2.304  19.076  0.00  0.00    +0.000 A 
ATOM     10  C   UNL     1       2.648   2.776  18.508  0.00  0.00    +0.000 A 
ATOM     11  C   UNL     1       3.176   4.045  18.842  0.00  0.00    +0.000 A 
BRANCH   6  12
ATOM     12  O   UNL     1       2.925   6.099  20.107  0.00  0.00    +0.000 OA
BRANCH  12  14
ATOM     13  C   UNL     1       2.551   7.599  18.233  0.00  0.00    +0.000 C 
ATOM     14  C   UNL     1       2.152   7.212  19.640  0.00  0.00    +0.000 C 
ENDBRANCH  12  14
ENDBRANCH   6  12
ENDBRANCH   1  11
BRANCH   3  15
ATOM     15  C   UNL     1       7.096   4.634  15.816  0.00  0.00    +0.000 C 
BRANCH  15  16
ATOM     16  N   UNL     1       6.441   4.041  14.645  0.00  0.00    +0.000 NA
ATOM     17  H   UNL     1       5.506   4.447  14.578  0.00  0.00    +0.000 HD
BRANCH  16  18
ATOM     18  C   UNL     1       7.174   4.298  13.399  0.00  0.00    +0.000 C 
BRANCH  18  19
ATOM     19  C   UNL     1       6.402   3.834  12.157  0.00  0.00    +0.000 C 
ATOM     20  C   UNL     1       4.907   3.687  12.377  0.00  0.00    +0.000 C 
ATOM     21  C   UNL     1       4.540   2.685  11.312  0.00  0.00    +0.000 C 
ATOM     22  C   UNL     1       5.741   1.767  11.303  0.00  0.00    +0.000 C 
ATOM     23  O   UNL     1       6.871   2.537  11.738  0.00  0.00    +0.000 OA
ENDBRANCH  18  19
ENDBRANCH  16  18
ENDBRANCH  15  16
ENDBRANCH   3  15
TORSDOF 7
ENDMDL
MODEL 9
REMARK VINA RESULT:      -6.5      2.640      6.224
REMARK  Name = 
REMARK  8 active torsions:
REMARK  status: ('A' for Active; 'I' for Inactive)
REMARK    1  A    between atoms: C_1  and  C_2
REMARK    2  A    between atoms: C_2  and  O_3
REMARK    3  A    between atoms: O_3  and  C_4
REMARK    4  A    between atoms: C_9  and  C_10
REMARK    5  A    between atoms: C_12  and  C_13
REMARK    6  A    between atoms: C_13  and  N_14
REMARK    7  A    between atoms: N_14  and  C_15
REMARK    8  A    between atoms: C_15  and  C_16
REMARK                            x       y       z     vdW  Elec       q    Type
REMARK                         _______ _______ _______ _____ _____    ______ ____
ROOT
ATOM      1  C   UNL     1       2.700   6.662  19.499  0.00  0.00    +0.000 A 
ATOM      2  N   UNL     1       3.928   6.327  19.148  0.00  0.00    +0.000 NA
ATOM      3  C   UNL     1       4.019   4.979  19.454  0.00  0.00    +0.000 A 
ATOM      4  C   UNL     1       2.836   4.576  20.020  0.00  0.00    +0.000 A 
ATOM      5  O   UNL     1       1.990   5.633  20.061  0.00  0.00    +0.000 OA
ENDROOT
BRANCH   1  11
ATOM      6  C   UNL     1       1.284   8.656  20.278  0.00  0.00    +0.000 A 
ATOM      7  C   UNL     1       0.580   9.818  19.907  0.00  0.00    +0.000 A 
ATOM      8  C   UNL     1       0.539  10.260  18.591  0.00  0.00    +0.000 A 
ATOM      9  C   UNL     1       1.232   9.568  17.615  0.00  0.00    +0.000 A 
ATOM     10  C   UNL     1       1.954   8.423  17.958  0.00  0.00    +0.000 A 
ATOM     11  C   UNL     1       1.984   7.933  19.285  0.00  0.00    +0.000 A 
BRANCH   6  12
ATOM     12  O   UNL     1       1.285   8.220  21.589  0.00  0.00    +0.000 OA
BRANCH  12  14
ATOM     13  C   UNL     1      -0.004   9.386  23.287  0.00  0.00    +0.000 C 
ATOM     14  C   UNL     1       1.330   9.250  22.585  0.00  0.00    +0.000 C 
ENDBRANCH  12  14
ENDBRANCH   6  12
ENDBRANCH   1  11
BRANCH   3  15
ATOM     15  C   UNL     1       5.230   4.149  19.181  0.00  0.00    +0.000 C 
BRANCH  15  16
ATOM     16  N   UNL     1       6.429   4.966  18.959  0.00  0.00    +0.000 NA
ATOM     17  H   UNL     1       7.021   4.872  19.787  0.00  0.00    +0.000 HD
BRANCH  16  18
ATOM     18  C   UNL     1       7.183   4.547  17.771  0.00  0.00    +0.000 C 
BRANCH  18  19
ATOM     19  C   UNL     1       6.490   4.948  16.463  0.00  0.00    +0.000 C 
ATOM     20  C   UNL     1       5.776   3.804  15.765  0.00  0.00    +0.000 C 
ATOM     21  C   UNL     1       5.763   4.281  14.334  0.00  0.00    +0.000 C 
ATOM     22  C   UNL     1       7.101   4.973  14.212  0.00  0.00    +0.000 C 
ATOM     23  O   UNL     1       7.460   5.445  15.519  0.00  0.00    +0.000 OA
ENDBRANCH  18  19
ENDBRANCH  16  18
ENDBRANCH  15  16
ENDBRANCH   3  15
TORSDOF 7
ENDMDL
