MODEL 1
REMARK VINA RESULT:      -7.7      0.000      0.000
REMARK  Name = 
REMARK  3 active torsions:
REMARK  status: ('A' for Active; 'I' for Inactive)
REMARK    1  A    between atoms: C_1  and  C_2
REMARK    2  A    between atoms: C_7  and  C_8
REMARK    3  A    between atoms: N_11  and  C_12
REMARK                            x       y       z     vdW  Elec       q    Type
REMARK                         _______ _______ _______ _____ _____    ______ ____
ROOT
ATOM      1  C   UNL     1       2.365   6.330  19.372  0.00  0.00    +0.000 A 
ATOM      2  N   UNL     1       3.617   6.258  18.899  0.00  0.00    +0.000 NA
ATOM      3  C   UNL     1       4.069   5.051  18.501  0.00  0.00    +0.000 A 
ATOM      4  N   UNL     1       5.382   4.957  17.954  0.00  0.00    +0.000 N 
ATOM      5  C   UNL     1       3.284   3.886  18.604  0.00  0.00    +0.000 A 
ATOM      6  C   UNL     1       3.708   2.561  18.317  0.00  0.00    +0.000 A 
ATOM      7  C   UNL     1       2.833   1.485  18.472  0.00  0.00    +0.000 A 
ATOM      8  C   UNL     1       1.531   1.714  18.899  0.00  0.00    +0.000 A 
ATOM      9  C   UNL     1       1.123   3.015  19.187  0.00  0.00    +0.000 A 
ATOM     10  C   UNL     1       1.981   4.096  19.061  0.00  0.00    +0.000 A 
ATOM     11  N   UNL     1       1.521   5.291  19.413  0.00  0.00    +0.000 NA
ATOM     12  H   UNL     1       5.326   4.540  17.033  0.00  0.00    +0.000 HD
ENDROOT
BRANCH   1  19
ATOM     13  C   UNL     1       1.914   8.749  17.588  0.00  0.00    +0.000 C 
ATOM     14  C   UNL     1       1.686   8.771  19.080  0.00  0.00    +0.000 A 
ATOM     15  C   UNL     1       1.254   9.983  19.653  0.00  0.00    +0.000 A 
ATOM     16  C   UNL     1       0.996  10.077  21.017  0.00  0.00    +0.000 A 
ATOM     17  C   UNL     1       1.161   8.962  21.830  0.00  0.00    +0.000 A 
ATOM     18  C   UNL     1       1.594   7.754  21.277  0.00  0.00    +0.000 A 
ATOM     19  C   UNL     1       1.883   7.625  19.900  0.00  0.00    +0.000 A 
ENDBRANCH   1  19
BRANCH   4  20
ATOM     20  C   UNL     1       6.352   5.983  18.031  0.00  0.00    +0.000 A 
ATOM     21  C   UNL     1       7.410   5.905  18.937  0.00  0.00    +0.000 A 
ATOM     22  C   UNL     1       8.325   6.942  18.995  0.00  0.00    +0.000 A 
ATOM     23  N   UNL     1       8.263   8.039  18.212  0.00  0.00    +0.000 NA
ATOM     24  C   UNL     1       7.241   8.093  17.332  0.00  0.00    +0.000 A 
ATOM     25  C   UNL     1       6.279   7.099  17.196  0.00  0.00    +0.000 A 
ENDBRANCH   4  20
TORSDOF 2
ENDMDL
MODEL 2
REMARK VINA RESULT:      -7.7      1.670      2.349
REMARK  Name = 
REMARK  3 active torsions:
REMARK  status: ('A' for Active; 'I' for Inactive)
REMARK    1  A    between atoms: C_1  and  C_2
REMARK    2  A    between atoms: C_7  and  C_8
REMARK    3  A    between atoms: N_11  and  C_12
REMARK                            x       y       z     vdW  Elec       q    Type
REMARK                         _______ _______ _______ _____ _____    ______ ____
ROOT
ATOM      1  C   UNL     1       2.458   6.288  19.360  0.00  0.00    +0.000 A 
ATOM      2  N   UNL     1       3.515   5.779  18.714  0.00  0.00    +0.000 NA
ATOM      3  C   UNL     1       3.884   4.516  19.010  0.00  0.00    +0.000 A 
ATOM      4  N   UNL     1       4.979   3.938  18.303  0.00  0.00    +0.000 N 
ATOM      5  C   UNL     1       3.219   3.752  19.989  0.00  0.00    +0.000 A 
ATOM      6  C   UNL     1       3.599   2.463  20.447  0.00  0.00    +0.000 A 
ATOM      7  C   UNL     1       2.860   1.813  21.437  0.00  0.00    +0.000 A 
ATOM      8  C   UNL     1       1.734   2.428  21.969  0.00  0.00    +0.000 A 
ATOM      9  C   UNL     1       1.370   3.697  21.521  0.00  0.00    +0.000 A 
ATOM     10  C   UNL     1       2.102   4.370  20.556  0.00  0.00    +0.000 A 
ATOM     11  N   UNL     1       1.713   5.598  20.233  0.00  0.00    +0.000 NA
ATOM     12  H   UNL     1       4.671   3.077  17.867  0.00  0.00    +0.000 HD
ENDROOT
BRANCH   1  19
ATOM     13  C   UNL     1       1.071   7.996  21.457  0.00  0.00    +0.000 C 
ATOM     14  C   UNL     1       1.428   8.507  20.083  0.00  0.00    +0.000 A 
ATOM     15  C   UNL     1       1.083   9.838  19.776  0.00  0.00    +0.000 A 
ATOM     16  C   UNL     1       1.403  10.391  18.540  0.00  0.00    +0.000 A 
ATOM     17  C   UNL     1       2.073   9.628  17.593  0.00  0.00    +0.000 A 
ATOM     18  C   UNL     1       2.418   8.304  17.881  0.00  0.00    +0.000 A 
ATOM     19  C   UNL     1       2.094   7.702  19.118  0.00  0.00    +0.000 A 
ENDBRANCH   1  19
BRANCH   4  20
ATOM     20  C   UNL     1       5.879   4.669  17.494  0.00  0.00    +0.000 A 
ATOM     21  C   UNL     1       6.565   5.774  18.001  0.00  0.00    +0.000 A 
ATOM     22  C   UNL     1       7.420   6.474  17.167  0.00  0.00    +0.000 A 
ATOM     23  N   UNL     1       7.645   6.147  15.878  0.00  0.00    +0.000 NA
ATOM     24  C   UNL     1       6.984   5.068  15.409  0.00  0.00    +0.000 A 
ATOM     25  C   UNL     1       6.112   4.298  16.169  0.00  0.00    +0.000 A 
ENDBRANCH   4  20
TORSDOF 2
ENDMDL
MODEL 3
REMARK VINA RESULT:      -7.5      0.702      1.563
REMARK  Name = 
REMARK  3 active torsions:
REMARK  status: ('A' for Active; 'I' for Inactive)
REMARK    1  A    between atoms: C_1  and  C_2
REMARK    2  A    between atoms: C_7  and  C_8
REMARK    3  A    between atoms: N_11  and  C_12
REMARK                            x       y       z     vdW  Elec       q    Type
REMARK                         _______ _______ _______ _____ _____    ______ ____
ROOT
ATOM      1  C   UNL     1       2.496   6.633  18.477  0.00  0.00    +0.000 A 
ATOM      2  N   UNL     1       3.814   6.487  18.289  0.00  0.00    +0.000 NA
ATOM      3  C   UNL     1       4.290   5.235  18.128  0.00  0.00    +0.000 A 
ATOM      4  N   UNL     1       5.683   5.058  17.882  0.00  0.00    +0.000 N 
ATOM      5  C   UNL     1       3.455   4.103  18.190  0.00  0.00    +0.000 A 
ATOM      6  C   UNL     1       3.876   2.747  18.145  0.00  0.00    +0.000 A 
ATOM      7  C   UNL     1       2.947   1.710  18.229  0.00  0.00    +0.000 A 
ATOM      8  C   UNL     1       1.595   2.007  18.346  0.00  0.00    +0.000 A 
ATOM      9  C   UNL     1       1.188   3.339  18.398  0.00  0.00    +0.000 A 
ATOM     10  C   UNL     1       2.096   4.384  18.339  0.00  0.00    +0.000 A 
ATOM     11  N   UNL     1       1.621   5.619  18.454  0.00  0.00    +0.000 NA
ATOM     12  H   UNL     1       5.802   4.539  17.020  0.00  0.00    +0.000 HD
ENDROOT
BRANCH   1  19
ATOM     13  C   UNL     1       1.322   7.414  21.170  0.00  0.00    +0.000 C 
ATOM     14  C   UNL     1       1.397   8.361  19.998  0.00  0.00    +0.000 A 
ATOM     15  C   UNL     1       0.882   9.660  20.178  0.00  0.00    +0.000 A 
ATOM     16  C   UNL     1       0.939  10.600  19.154  0.00  0.00    +0.000 A 
ATOM     17  C   UNL     1       1.512  10.261  17.935  0.00  0.00    +0.000 A 
ATOM     18  C   UNL     1       2.022   8.974  17.738  0.00  0.00    +0.000 A 
ATOM     19  C   UNL     1       1.966   7.988  18.748  0.00  0.00    +0.000 A 
ENDBRANCH   1  19
BRANCH   4  20
ATOM     20  C   UNL     1       6.656   6.071  18.048  0.00  0.00    +0.000 A 
ATOM     21  C   UNL     1       7.609   5.992  19.065  0.00  0.00    +0.000 A 
ATOM     22  C   UNL     1       8.529   7.016  19.206  0.00  0.00    +0.000 A 
ATOM     23  N   UNL     1       8.571   8.100  18.404  0.00  0.00    +0.000 NA
ATOM     24  C   UNL     1       7.651   8.154  17.418  0.00  0.00    +0.000 A 
ATOM     25  C   UNL     1       6.693   7.173  17.193  0.00  0.00    +0.000 A 
ENDBRANCH   4  20
TORSDOF 2
ENDMDL
MODEL 4
REMARK VINA RESULT:      -7.4      2.110      5.559
REMARK  Name = 
REMARK  3 active torsions:
REMARK  status: ('A' for Active; 'I' for Inactive)
REMARK    1  A    between atoms: C_1  and  C_2
REMARK    2  A    between atoms: C_7  and  C_8
REMARK    3  A    between atoms: N_11  and  C_12
REMARK                            x       y       z     vdW  Elec       q    Type
REMARK                         _______ _______ _______ _____ _____    ______ ____
ROOT
ATOM      1  C   UNL     1       4.478   4.699  18.287  0.00  0.00    +0.000 A 
ATOM      2  N   UNL     1       3.733   5.746  18.668  0.00  0.00    +0.000 NA
ATOM      3  C   UNL     1       2.904   5.576  19.719  0.00  0.00    +0.000 A 
ATOM      4  N   UNL     1       2.134   6.687  20.171  0.00  0.00    +0.000 N 
ATOM      5  C   UNL     1       2.781   4.340  20.383  0.00  0.00    +0.000 A 
ATOM      6  C   UNL     1       1.861   4.034  21.421  0.00  0.00    +0.000 A 
ATOM      7  C   UNL     1       1.829   2.761  21.992  0.00  0.00    +0.000 A 
ATOM      8  C   UNL     1       2.716   1.788  21.550  0.00  0.00    +0.000 A 
ATOM      9  C   UNL     1       3.613   2.092  20.526  0.00  0.00    +0.000 A 
ATOM     10  C   UNL     1       3.645   3.342  19.929  0.00  0.00    +0.000 A 
ATOM     11  N   UNL     1       4.493   3.521  18.922  0.00  0.00    +0.000 NA
ATOM     12  H   UNL     1       2.327   6.844  21.153  0.00  0.00    +0.000 HD
ENDROOT
BRANCH   1  19
ATOM     13  C   UNL     1       7.314   5.786  18.401  0.00  0.00    +0.000 C 
ATOM     14  C   UNL     1       6.646   5.362  17.117  0.00  0.00    +0.000 A 
ATOM     15  C   UNL     1       7.385   5.494  15.925  0.00  0.00    +0.000 A 
ATOM     16  C   UNL     1       6.849   5.100  14.703  0.00  0.00    +0.000 A 
ATOM     17  C   UNL     1       5.568   4.565  14.651  0.00  0.00    +0.000 A 
ATOM     18  C   UNL     1       4.819   4.431  15.824  0.00  0.00    +0.000 A 
ATOM     19  C   UNL     1       5.324   4.837  17.080  0.00  0.00    +0.000 A 
ENDBRANCH   1  19
BRANCH   4  20
ATOM     20  C   UNL     1       1.973   7.891  19.447  0.00  0.00    +0.000 A 
ATOM     21  C   UNL     1       1.308   8.983  20.008  0.00  0.00    +0.000 A 
ATOM     22  C   UNL     1       1.152  10.134  19.256  0.00  0.00    +0.000 A 
ATOM     23  N   UNL     1       1.618  10.276  17.998  0.00  0.00    +0.000 NA
ATOM     24  C   UNL     1       2.269   9.215  17.476  0.00  0.00    +0.000 A 
ATOM     25  C   UNL     1       2.481   8.021  18.154  0.00  0.00    +0.000 A 
ENDBRANCH   4  20
TORSDOF 2
ENDMDL
MODEL 5
REMARK VINA RESULT:      -7.3      2.084      5.001
REMARK  Name = 
REMARK  3 active torsions:
REMARK  status: ('A' for Active; 'I' for Inactive)
REMARK    1  A    between atoms: C_1  and  C_2
REMARK    2  A    between atoms: C_7  and  C_8
REMARK    3  A    between atoms: N_11  and  C_12
REMARK                            x       y       z     vdW  Elec       q    Type
REMARK                         _______ _______ _______ _____ _____    ______ ____
ROOT
ATOM      1  C   UNL     1       3.402   6.837  17.911  0.00  0.00    +0.000 A 
ATOM      2  N   UNL     1       3.287   5.653  18.528  0.00  0.00    +0.000 NA
ATOM      3  C   UNL     1       3.977   4.611  18.020  0.00  0.00    +0.000 A 
ATOM      4  N   UNL     1       3.906   3.353  18.686  0.00  0.00    +0.000 N 
ATOM      5  C   UNL     1       4.767   4.731  16.860  0.00  0.00    +0.000 A 
ATOM      6  C   UNL     1       5.437   3.673  16.190  0.00  0.00    +0.000 A 
ATOM      7  C   UNL     1       6.182   3.921  15.036  0.00  0.00    +0.000 A 
ATOM      8  C   UNL     1       6.280   5.217  14.546  0.00  0.00    +0.000 A 
ATOM      9  C   UNL     1       5.613   6.250  15.204  0.00  0.00    +0.000 A 
ATOM     10  C   UNL     1       4.850   6.023  16.338  0.00  0.00    +0.000 A 
ATOM     11  N   UNL     1       4.205   7.059  16.863  0.00  0.00    +0.000 NA
ATOM     12  H   UNL     1       4.844   3.050  18.918  0.00  0.00    +0.000 HD
ENDROOT
BRANCH   1  19
ATOM     13  C   UNL     1       1.944   6.767  20.577  0.00  0.00    +0.000 C 
ATOM     14  C   UNL     1       1.878   7.942  19.633  0.00  0.00    +0.000 A 
ATOM     15  C   UNL     1       1.089   9.043  20.019  0.00  0.00    +0.000 A 
ATOM     16  C   UNL     1       0.999  10.176  19.216  0.00  0.00    +0.000 A 
ATOM     17  C   UNL     1       1.696  10.229  18.016  0.00  0.00    +0.000 A 
ATOM     18  C   UNL     1       2.479   9.143  17.615  0.00  0.00    +0.000 A 
ATOM     19  C   UNL     1       2.581   7.969  18.396  0.00  0.00    +0.000 A 
ENDBRANCH   1  19
BRANCH   4  20
ATOM     20  C   UNL     1       2.965   3.036  19.692  0.00  0.00    +0.000 A 
ATOM     21  C   UNL     1       1.594   3.087  19.434  0.00  0.00    +0.000 A 
ATOM     22  C   UNL     1       0.707   2.790  20.455  0.00  0.00    +0.000 A 
ATOM     23  N   UNL     1       1.088   2.441  21.701  0.00  0.00    +0.000 NA
ATOM     24  C   UNL     1       2.417   2.385  21.929  0.00  0.00    +0.000 A 
ATOM     25  C   UNL     1       3.383   2.657  20.968  0.00  0.00    +0.000 A 
ENDBRANCH   4  20
TORSDOF 2
ENDMDL
MODEL 6
REMARK VINA RESULT:      -7.3      1.256      1.300
REMARK  Name = 
REMARK  3 active torsions:
REMARK  status: ('A' for Active; 'I' for Inactive)
REMARK    1  A    between atoms: C_1  and  C_2
REMARK    2  A    between atoms: C_7  and  C_8
REMARK    3  A    between atoms: N_11  and  C_12
REMARK                            x       y       z     vdW  Elec       q    Type
REMARK                         _______ _______ _______ _____ _____    ______ ____
ROOT
ATOM      1  C   UNL     1       2.239   6.588  20.025  0.00  0.00    +0.000 A 
ATOM      2  N   UNL     1       3.420   6.342  19.443  0.00  0.00    +0.000 NA
ATOM      3  C   UNL     1       3.900   5.083  19.505  0.00  0.00    +0.000 A 
ATOM      4  N   UNL     1       5.133   4.787  18.855  0.00  0.00    +0.000 N 
ATOM      5  C   UNL     1       3.218   4.054  20.185  0.00  0.00    +0.000 A 
ATOM      6  C   UNL     1       3.693   2.733  20.399  0.00  0.00    +0.000 A 
ATOM      7  C   UNL     1       2.923   1.806  21.104  0.00  0.00    +0.000 A 
ATOM      8  C   UNL     1       1.675   2.176  21.588  0.00  0.00    +0.000 A 
ATOM      9  C   UNL     1       1.218   3.477  21.382  0.00  0.00    +0.000 A 
ATOM     10  C   UNL     1       1.975   4.420  20.705  0.00  0.00    +0.000 A 
ATOM     11  N   UNL     1       1.482   5.650  20.608  0.00  0.00    +0.000 NA
ATOM     12  H   UNL     1       4.987   4.028  18.201  0.00  0.00    +0.000 HD
ENDROOT
BRANCH   1  19
ATOM     13  C   UNL     1       2.134   8.324  17.533  0.00  0.00    +0.000 C 
ATOM     14  C   UNL     1       1.703   8.811  18.894  0.00  0.00    +0.000 A 
ATOM     15  C   UNL     1       1.245  10.139  18.994  0.00  0.00    +0.000 A 
ATOM     16  C   UNL     1       0.805  10.654  20.209  0.00  0.00    +0.000 A 
ATOM     17  C   UNL     1       0.812   9.852  21.343  0.00  0.00    +0.000 A 
ATOM     18  C   UNL     1       1.269   8.533  21.262  0.00  0.00    +0.000 A 
ATOM     19  C   UNL     1       1.740   7.981  20.049  0.00  0.00    +0.000 A 
ENDBRANCH   1  19
BRANCH   4  20
ATOM     20  C   UNL     1       6.031   5.764  18.366  0.00  0.00    +0.000 A 
ATOM     21  C   UNL     1       7.272   5.966  18.971  0.00  0.00    +0.000 A 
ATOM     22  C   UNL     1       8.111   6.949  18.473  0.00  0.00    +0.000 A 
ATOM     23  N   UNL     1       7.804   7.731  17.419  0.00  0.00    +0.000 NA
ATOM     24  C   UNL     1       6.605   7.514  16.838  0.00  0.00    +0.000 A 
ATOM     25  C   UNL     1       5.700   6.548  17.260  0.00  0.00    +0.000 A 
ENDBRANCH   4  20
TORSDOF 2
ENDMDL
MODEL 7
REMARK VINA RESULT:      -7.3      1.820      5.095
REMARK  Name = 
REMARK  3 active torsions:
REMARK  status: ('A' for Active; 'I' for Inactive)
REMARK    1  A    between atoms: C_1  and  C_2
REMARK    2  A    between atoms: C_7  and  C_8
REMARK    3  A    between atoms: N_11  and  C_12
REMARK                            x       y       z     vdW  Elec       q    Type
REMARK                         _______ _______ _______ _____ _____    ______ ____
ROOT
ATOM      1  C   UNL     1       2.423   6.013  19.451  0.00  0.00    +0.000 A 
ATOM      2  N   UNL     1       3.424   6.139  18.570  0.00  0.00    +0.000 NA
ATOM      3  C   UNL     1       3.604   7.345  17.993  0.00  0.00    +0.000 A 
ATOM      4  N   UNL     1       4.691   7.515  17.086  0.00  0.00    +0.000 N 
ATOM      5  C   UNL     1       2.758   8.438  18.263  0.00  0.00    +0.000 A 
ATOM      6  C   UNL     1       2.798   9.707  17.626  0.00  0.00    +0.000 A 
ATOM      7  C   UNL     1       1.891  10.708  17.976  0.00  0.00    +0.000 A 
ATOM      8  C   UNL     1       0.948  10.465  18.967  0.00  0.00    +0.000 A 
ATOM      9  C   UNL     1       0.908   9.215  19.584  0.00  0.00    +0.000 A 
ATOM     10  C   UNL     1       1.784   8.199  19.235  0.00  0.00    +0.000 A 
ATOM     11  N   UNL     1       1.634   7.024  19.836  0.00  0.00    +0.000 NA
ATOM     12  H   UNL     1       5.269   8.283  17.405  0.00  0.00    +0.000 HD
ENDROOT
BRANCH   1  19
ATOM     13  C   UNL     1       1.364   3.707  17.778  0.00  0.00    +0.000 C 
ATOM     14  C   UNL     1       1.637   3.594  19.257  0.00  0.00    +0.000 A 
ATOM     15  C   UNL     1       1.371   2.356  19.874  0.00  0.00    +0.000 A 
ATOM     16  C   UNL     1       1.621   2.163  21.229  0.00  0.00    +0.000 A 
ATOM     17  C   UNL     1       2.144   3.202  21.990  0.00  0.00    +0.000 A 
ATOM     18  C   UNL     1       2.408   4.438  21.394  0.00  0.00    +0.000 A 
ATOM     19  C   UNL     1       2.150   4.676  20.025  0.00  0.00    +0.000 A 
ENDBRANCH   1  19
BRANCH   4  20
ATOM     20  C   UNL     1       5.446   6.452  16.540  0.00  0.00    +0.000 A 
ATOM     21  C   UNL     1       5.136   5.921  15.286  0.00  0.00    +0.000 A 
ATOM     22  C   UNL     1       5.888   4.866  14.799  0.00  0.00    +0.000 A 
ATOM     23  N   UNL     1       6.924   4.314  15.464  0.00  0.00    +0.000 NA
ATOM     24  C   UNL     1       7.217   4.848  16.669  0.00  0.00    +0.000 A 
ATOM     25  C   UNL     1       6.526   5.911  17.237  0.00  0.00    +0.000 A 
ENDBRANCH   4  20
TORSDOF 2
ENDMDL
MODEL 8
REMARK VINA RESULT:      -7.2      2.853      6.461
REMARK  Name = 
REMARK  3 active torsions:
REMARK  status: ('A' for Active; 'I' for Inactive)
REMARK    1  A    between atoms: C_1  and  C_2
REMARK    2  A    between atoms: C_7  and  C_8
REMARK    3  A    between atoms: N_11  and  C_12
REMARK                            x       y       z     vdW  Elec       q    Type
REMARK                         _______ _______ _______ _____ _____    ______ ____
ROOT
ATOM      1  C   UNL     1       6.966   5.888  16.474  0.00  0.00    +0.000 A 
ATOM      2  N   UNL     1       5.909   5.190  16.911  0.00  0.00    +0.000 NA
ATOM      3  C   UNL     1       5.329   4.326  16.053  0.00  0.00    +0.000 A 
ATOM      4  N   UNL     1       4.231   3.540  16.510  0.00  0.00    +0.000 N 
ATOM      5  C   UNL     1       5.777   4.174  14.727  0.00  0.00    +0.000 A 
ATOM      6  C   UNL     1       5.167   3.378  13.722  0.00  0.00    +0.000 A 
ATOM      7  C   UNL     1       5.704   3.320  12.435  0.00  0.00    +0.000 A 
ATOM      8  C   UNL     1       6.855   4.039  12.139  0.00  0.00    +0.000 A 
ATOM      9  C   UNL     1       7.446   4.825  13.127  0.00  0.00    +0.000 A 
ATOM     10  C   UNL     1       6.917   4.914  14.404  0.00  0.00    +0.000 A 
ATOM     11  N   UNL     1       7.514   5.733  15.262  0.00  0.00    +0.000 NA
ATOM     12  H   UNL     1       4.444   2.561  16.367  0.00  0.00    +0.000 HD
ENDROOT
BRANCH   1  19
ATOM     13  C   UNL     1       8.164   5.185  19.177  0.00  0.00    +0.000 C 
ATOM     14  C   UNL     1       8.106   6.595  18.644  0.00  0.00    +0.000 A 
ATOM     15  C   UNL     1       8.626   7.620  19.458  0.00  0.00    +0.000 A 
ATOM     16  C   UNL     1       8.633   8.942  19.026  0.00  0.00    +0.000 A 
ATOM     17  C   UNL     1       8.124   9.263  17.774  0.00  0.00    +0.000 A 
ATOM     18  C   UNL     1       7.599   8.259  16.956  0.00  0.00    +0.000 A 
ATOM     19  C   UNL     1       7.559   6.907  17.368  0.00  0.00    +0.000 A 
ENDBRANCH   1  19
BRANCH   4  20
ATOM     20  C   UNL     1       3.529   3.776  17.715  0.00  0.00    +0.000 A 
ATOM     21  C   UNL     1       2.537   4.755  17.788  0.00  0.00    +0.000 A 
ATOM     22  C   UNL     1       1.891   4.968  18.994  0.00  0.00    +0.000 A 
ATOM     23  N   UNL     1       2.156   4.272  20.119  0.00  0.00    +0.000 NA
ATOM     24  C   UNL     1       3.109   3.321  20.026  0.00  0.00    +0.000 A 
ATOM     25  C   UNL     1       3.807   3.030  18.861  0.00  0.00    +0.000 A 
ENDBRANCH   4  20
TORSDOF 2
ENDMDL
MODEL 9
REMARK VINA RESULT:      -7.1      1.728      2.025
REMARK  Name = 
REMARK  3 active torsions:
REMARK  status: ('A' for Active; 'I' for Inactive)
REMARK    1  A    between atoms: C_1  and  C_2
REMARK    2  A    between atoms: C_7  and  C_8
REMARK    3  A    between atoms: N_11  and  C_12
REMARK                            x       y       z     vdW  Elec       q    Type
REMARK                         _______ _______ _______ _____ _____    ______ ____
ROOT
ATOM      1  C   UNL     1       2.469   6.241  19.417  0.00  0.00    +0.000 A 
ATOM      2  N   UNL     1       3.525   5.738  18.763  0.00  0.00    +0.000 NA
ATOM      3  C   UNL     1       3.902   4.477  19.055  0.00  0.00    +0.000 A 
ATOM      4  N   UNL     1       4.994   3.905  18.340  0.00  0.00    +0.000 N 
ATOM      5  C   UNL     1       3.247   3.708  20.037  0.00  0.00    +0.000 A 
ATOM      6  C   UNL     1       3.636   2.420  20.492  0.00  0.00    +0.000 A 
ATOM      7  C   UNL     1       2.907   1.765  21.485  0.00  0.00    +0.000 A 
ATOM      8  C   UNL     1       1.781   2.374  22.025  0.00  0.00    +0.000 A 
ATOM      9  C   UNL     1       1.408   3.642  21.581  0.00  0.00    +0.000 A 
ATOM     10  C   UNL     1       2.131   4.320  20.612  0.00  0.00    +0.000 A 
ATOM     11  N   UNL     1       1.733   5.546  20.294  0.00  0.00    +0.000 NA
ATOM     12  H   UNL     1       4.689   3.043  17.905  0.00  0.00    +0.000 HD
ENDROOT
BRANCH   1  19
ATOM     13  C   UNL     1       3.339   7.758  16.931  0.00  0.00    +0.000 C 
ATOM     14  C   UNL     1       2.514   8.381  18.030  0.00  0.00    +0.000 A 
ATOM     15  C   UNL     1       2.150   9.734  17.881  0.00  0.00    +0.000 A 
ATOM     16  C   UNL     1       1.366  10.373  18.837  0.00  0.00    +0.000 A 
ATOM     17  C   UNL     1       0.932   9.672  19.955  0.00  0.00    +0.000 A 
ATOM     18  C   UNL     1       1.289   8.331  20.120  0.00  0.00    +0.000 A 
ATOM     19  C   UNL     1       2.097   7.653  19.179  0.00  0.00    +0.000 A 
ENDBRANCH   1  19
BRANCH   4  20
ATOM     20  C   UNL     1       5.886   4.641  17.527  0.00  0.00    +0.000 A 
ATOM     21  C   UNL     1       6.571   5.748  18.031  0.00  0.00    +0.000 A 
ATOM     22  C   UNL     1       7.417   6.454  17.193  0.00  0.00    +0.000 A 
ATOM     23  N   UNL     1       7.634   6.130  15.902  0.00  0.00    +0.000 NA
ATOM     24  C   UNL     1       6.974   5.050  15.434  0.00  0.00    +0.000 A 
ATOM     25  C   UNL     1       6.110   4.275  16.199  0.00  0.00    +0.000 A 
ENDBRANCH   4  20
TORSDOF 2
ENDMDL
