MODEL 1
REMARK VINA RESULT:      -8.8      0.000      0.000
REMARK  Name = 
REMARK  7 active torsions:
REMARK  status: ('A' for Active; 'I' for Inactive)
REMARK    1  A    between atoms: C_1  and  C_2
REMARK    2  A    between atoms: C_5  and  C_6
REMARK    3  A    between atoms: C_11  and  N_12
REMARK    4  A    between atoms: N_12  and  C_13
REMARK    5  A    between atoms: C_16  and  N_17
REMARK    6  A    between atoms: N_21  and  C_22
REMARK    7  A    between atoms: C_26  and  C_27
REMARK                            x       y       z     vdW  Elec       q    Type
REMARK                         _______ _______ _______ _____ _____    ______ ____
ROOT
ATOM      1  N   UNL     1       1.136  10.533  18.204  0.00  0.00    +0.000 N 
ATOM      2  H   UNL     1       1.959  11.130  18.138  0.00  0.00    +0.000 HD
ENDROOT
BRANCH   1  13
ATOM      3  C   UNL     1      -0.837  13.605  21.643  0.00  0.00    +0.000 C 
ATOM      4  C   UNL     1      -0.909  12.760  20.396  0.00  0.00    +0.000 A 
ATOM      5  N   UNL     1      -2.161  12.528  19.949  0.00  0.00    +0.000 NA
ATOM      6  C   UNL     1      -2.362  11.682  18.933  0.00  0.00    +0.000 A 
ATOM      7  C   UNL     1      -3.677  11.476  18.501  0.00  0.00    +0.000 A 
ATOM      8  C   UNL     1      -4.830  12.262  19.073  0.00  0.00    +0.000 C 
ATOM      9  C   UNL     1      -3.969  10.528  17.508  0.00  0.00    +0.000 A 
ATOM     10  C   UNL     1      -2.946   9.810  16.919  0.00  0.00    +0.000 A 
ATOM     11  C   UNL     1      -1.629  10.043  17.309  0.00  0.00    +0.000 A 
ATOM     12  C   UNL     1      -1.295  10.989  18.316  0.00  0.00    +0.000 A 
ATOM     13  C   UNL     1       0.050  11.302  18.746  0.00  0.00    +0.000 A 
ATOM     14  C   UNL     1       0.236  12.241  19.793  0.00  0.00    +0.000 A 
ATOM     15  C   UNL     1       1.564  12.654  20.370  0.00  0.00    +0.000 C 
ENDBRANCH   1  13
BRANCH   1  16
ATOM     16  C   UNL     1       1.674   9.303  18.648  0.00  0.00    +0.000 A 
ATOM     17  C   UNL     1       1.389   8.864  19.942  0.00  0.00    +0.000 A 
ATOM     18  C   UNL     1       1.674   7.554  20.332  0.00  0.00    +0.000 A 
ATOM     19  C   UNL     1       2.261   6.638  19.447  0.00  0.00    +0.000 A 
ATOM     20  C   UNL     1       2.610   7.119  18.176  0.00  0.00    +0.000 A 
ATOM     21  C   UNL     1       2.281   8.405  17.766  0.00  0.00    +0.000 A 
BRANCH  19  22
ATOM     22  N   UNL     1       2.393   5.301  19.741  0.00  0.00    +0.000 N 
ATOM     23  C   UNL     1       2.131   4.784  21.074  0.00  0.00    +0.000 C 
ATOM     24  C   UNL     1       1.456   3.419  20.945  0.00  0.00    +0.000 C 
ATOM     25  C   UNL     1       2.301   2.475  20.087  0.00  0.00    +0.000 C 
ATOM     26  N   UNL     1       2.527   3.023  18.746  0.00  0.00    +0.000 NA
ATOM     27  C   UNL     1       3.402   2.159  17.961  0.00  0.00    +0.000 C 
ATOM     28  C   UNL     1       3.073   4.381  18.842  0.00  0.00    +0.000 C 
ENDBRANCH  19  22
ENDBRANCH   1  16
TORSDOF 3
ENDMDL
MODEL 2
REMARK VINA RESULT:      -8.6      2.310      8.463
REMARK  Name = 
REMARK  7 active torsions:
REMARK  status: ('A' for Active; 'I' for Inactive)
REMARK    1  A    between atoms: C_1  and  C_2
REMARK    2  A    between atoms: C_5  and  C_6
REMARK    3  A    between atoms: C_11  and  N_12
REMARK    4  A    between atoms: N_12  and  C_13
REMARK    5  A    between atoms: C_16  and  N_17
REMARK    6  A    between atoms: N_21  and  C_22
REMARK    7  A    between atoms: C_26  and  C_27
REMARK                            x       y       z     vdW  Elec       q    Type
REMARK                         _______ _______ _______ _____ _____    ______ ____
ROOT
ATOM      1  N   UNL     1       3.082   7.224  17.420  0.00  0.00    +0.000 N 
ATOM      2  H   UNL     1       2.325   7.013  16.771  0.00  0.00    +0.000 HD
ENDROOT
BRANCH   1  13
ATOM      3  C   UNL     1       7.330   4.564  17.242  0.00  0.00    +0.000 C 
ATOM      4  C   UNL     1       5.865   4.738  17.557  0.00  0.00    +0.000 A 
ATOM      5  N   UNL     1       5.208   3.589  17.816  0.00  0.00    +0.000 NA
ATOM      6  C   UNL     1       3.880   3.599  17.974  0.00  0.00    +0.000 A 
ATOM      7  C   UNL     1       3.241   2.384  18.246  0.00  0.00    +0.000 A 
ATOM      8  C   UNL     1       4.023   1.113  18.474  0.00  0.00    +0.000 C 
ATOM      9  C   UNL     1       1.842   2.306  18.324  0.00  0.00    +0.000 A 
ATOM     10  C   UNL     1       1.080   3.446  18.166  0.00  0.00    +0.000 A 
ATOM     11  C   UNL     1       1.709   4.669  17.943  0.00  0.00    +0.000 A 
ATOM     12  C   UNL     1       3.122   4.787  17.851  0.00  0.00    +0.000 A 
ATOM     13  C   UNL     1       3.840   6.026  17.651  0.00  0.00    +0.000 A 
ATOM     14  C   UNL     1       5.254   5.991  17.538  0.00  0.00    +0.000 A 
ATOM     15  C   UNL     1       6.141   7.186  17.303  0.00  0.00    +0.000 C 
ENDBRANCH   1  13
BRANCH   1  16
ATOM     16  C   UNL     1       2.466   8.091  18.351  0.00  0.00    +0.000 A 
ATOM     17  C   UNL     1       1.914   9.292  17.902  0.00  0.00    +0.000 A 
ATOM     18  C   UNL     1       1.077  10.048  18.725  0.00  0.00    +0.000 A 
ATOM     19  C   UNL     1       0.765   9.636  20.028  0.00  0.00    +0.000 A 
ATOM     20  C   UNL     1       1.390   8.466  20.489  0.00  0.00    +0.000 A 
ATOM     21  C   UNL     1       2.181   7.684  19.658  0.00  0.00    +0.000 A 
BRANCH  19  22
ATOM     22  N   UNL     1      -0.187  10.261  20.797  0.00  0.00    +0.000 N 
ATOM     23  C   UNL     1      -0.589   9.735  22.092  0.00  0.00    +0.000 C 
ATOM     24  C   UNL     1      -0.833  10.907  23.041  0.00  0.00    +0.000 C 
ATOM     25  C   UNL     1      -1.849  11.884  22.446  0.00  0.00    +0.000 C 
ATOM     26  N   UNL     1      -1.399  12.407  21.152  0.00  0.00    +0.000 NA
ATOM     27  C   UNL     1      -2.407  13.273  20.551  0.00  0.00    +0.000 C 
ATOM     28  C   UNL     1      -1.051  11.299  20.256  0.00  0.00    +0.000 C 
ENDBRANCH  19  22
ENDBRANCH   1  16
TORSDOF 3
ENDMDL
MODEL 3
REMARK VINA RESULT:      -8.6      2.111      8.864
REMARK  Name = 
REMARK  7 active torsions:
REMARK  status: ('A' for Active; 'I' for Inactive)
REMARK    1  A    between atoms: C_1  and  C_2
REMARK    2  A    between atoms: C_5  and  C_6
REMARK    3  A    between atoms: C_11  and  N_12
REMARK    4  A    between atoms: N_12  and  C_13
REMARK    5  A    between atoms: C_16  and  N_17
REMARK    6  A    between atoms: N_21  and  C_22
REMARK    7  A    between atoms: C_26  and  C_27
REMARK                            x       y       z     vdW  Elec       q    Type
REMARK                         _______ _______ _______ _____ _____    ______ ____
ROOT
ATOM      1  N   UNL     1       3.002   6.555  19.726  0.00  0.00    +0.000 N 
ATOM      2  H   UNL     1       3.896   6.893  20.079  0.00  0.00    +0.000 HD
ENDROOT
BRANCH   1  13
ATOM      3  C   UNL     1       2.319   1.977  17.795  0.00  0.00    +0.000 C 
ATOM      4  C   UNL     1       2.942   3.350  17.809  0.00  0.00    +0.000 A 
ATOM      5  N   UNL     1       3.991   3.498  16.975  0.00  0.00    +0.000 NA
ATOM      6  C   UNL     1       4.710   4.625  16.998  0.00  0.00    +0.000 A 
ATOM      7  C   UNL     1       5.787   4.735  16.110  0.00  0.00    +0.000 A 
ATOM      8  C   UNL     1       6.070   3.675  15.075  0.00  0.00    +0.000 C 
ATOM      9  C   UNL     1       6.643   5.847  16.149  0.00  0.00    +0.000 A 
ATOM     10  C   UNL     1       6.404   6.867  17.049  0.00  0.00    +0.000 A 
ATOM     11  C   UNL     1       5.307   6.789  17.903  0.00  0.00    +0.000 A 
ATOM     12  C   UNL     1       4.422   5.677  17.898  0.00  0.00    +0.000 A 
ATOM     13  C   UNL     1       3.250   5.546  18.734  0.00  0.00    +0.000 A 
ATOM     14  C   UNL     1       2.477   4.359  18.652  0.00  0.00    +0.000 A 
ATOM     15  C   UNL     1       1.248   4.059  19.471  0.00  0.00    +0.000 C 
ENDBRANCH   1  13
BRANCH   1  16
ATOM     16  C   UNL     1       2.233   7.737  19.631  0.00  0.00    +0.000 A 
ATOM     17  C   UNL     1       2.074   8.347  18.386  0.00  0.00    +0.000 A 
ATOM     18  C   UNL     1       1.123   9.352  18.197  0.00  0.00    +0.000 A 
ATOM     19  C   UNL     1       0.302   9.789  19.246  0.00  0.00    +0.000 A 
ATOM     20  C   UNL     1       0.528   9.218  20.508  0.00  0.00    +0.000 A 
ATOM     21  C   UNL     1       1.436   8.183  20.689  0.00  0.00    +0.000 A 
BRANCH  19  22
ATOM     22  N   UNL     1      -0.756  10.646  19.054  0.00  0.00    +0.000 N 
ATOM     23  C   UNL     1      -1.528  10.641  17.822  0.00  0.00    +0.000 C 
ATOM     24  C   UNL     1      -2.997  10.885  18.165  0.00  0.00    +0.000 C 
ATOM     25  C   UNL     1      -3.159  12.174  18.973  0.00  0.00    +0.000 C 
ATOM     26  N   UNL     1      -2.381  12.132  20.215  0.00  0.00    +0.000 NA
ATOM     27  C   UNL     1      -2.472  13.395  20.940  0.00  0.00    +0.000 C 
ATOM     28  C   UNL     1      -0.985  11.790  19.924  0.00  0.00    +0.000 C 
ENDBRANCH  19  22
ENDBRANCH   1  16
TORSDOF 3
ENDMDL
MODEL 4
REMARK VINA RESULT:      -8.6      1.152      1.276
REMARK  Name = 
REMARK  7 active torsions:
REMARK  status: ('A' for Active; 'I' for Inactive)
REMARK    1  A    between atoms: C_1  and  C_2
REMARK    2  A    between atoms: C_5  and  C_6
REMARK    3  A    between atoms: C_11  and  N_12
REMARK    4  A    between atoms: N_12  and  C_13
REMARK    5  A    between atoms: C_16  and  N_17
REMARK    6  A    between atoms: N_21  and  C_22
REMARK    7  A    between atoms: C_26  and  C_27
REMARK                            x       y       z     vdW  Elec       q    Type
REMARK                         _______ _______ _______ _____ _____    ______ ____
ROOT
ATOM      1  N   UNL     1       0.450  11.241  18.370  0.00  0.00    +0.000 N 
ATOM      2  H   UNL     1       1.106  11.992  18.578  0.00  0.00    +0.000 HD
ENDROOT
BRANCH   1  13
ATOM      3  C   UNL     1      -2.883  13.298  21.501  0.00  0.00    +0.000 C 
ATOM      4  C   UNL     1      -2.484  12.650  20.199  0.00  0.00    +0.000 A 
ATOM      5  N   UNL     1      -3.519  12.232  19.442  0.00  0.00    +0.000 NA
ATOM      6  C   UNL     1      -3.291  11.522  18.332  0.00  0.00    +0.000 A 
ATOM      7  C   UNL     1      -4.396  11.115  17.575  0.00  0.00    +0.000 A 
ATOM      8  C   UNL     1      -5.798  11.553  17.921  0.00  0.00    +0.000 C 
ATOM      9  C   UNL     1      -4.236  10.283  16.455  0.00  0.00    +0.000 A 
ATOM     10  C   UNL     1      -2.971   9.887  16.068  0.00  0.00    +0.000 A 
ATOM     11  C   UNL     1      -1.862  10.327  16.786  0.00  0.00    +0.000 A 
ATOM     12  C   UNL     1      -1.985  11.163  17.929  0.00  0.00    +0.000 A 
ATOM     13  C   UNL     1      -0.877  11.680  18.701  0.00  0.00    +0.000 A 
ATOM     14  C   UNL     1      -1.147  12.473  19.846  0.00  0.00    +0.000 A 
ATOM     15  C   UNL     1      -0.109  13.062  20.766  0.00  0.00    +0.000 C 
ENDBRANCH   1  13
BRANCH   1  16
ATOM     16  C   UNL     1       1.147  10.087  18.797  0.00  0.00    +0.000 A 
ATOM     17  C   UNL     1       0.923   9.596  20.085  0.00  0.00    +0.000 A 
ATOM     18  C   UNL     1       1.380   8.330  20.458  0.00  0.00    +0.000 A 
ATOM     19  C   UNL     1       2.083   7.512  19.562  0.00  0.00    +0.000 A 
ATOM     20  C   UNL     1       2.365   8.053  18.298  0.00  0.00    +0.000 A 
ATOM     21  C   UNL     1       1.868   9.290  17.905  0.00  0.00    +0.000 A 
BRANCH  19  22
ATOM     22  N   UNL     1       2.392   6.202  19.838  0.00  0.00    +0.000 N 
ATOM     23  C   UNL     1       1.612   5.416  20.781  0.00  0.00    +0.000 C 
ATOM     24  C   UNL     1       1.504   3.986  20.255  0.00  0.00    +0.000 C 
ATOM     25  C   UNL     1       2.893   3.401  19.986  0.00  0.00    +0.000 C 
ATOM     26  N   UNL     1       3.639   4.210  19.017  0.00  0.00    +0.000 NA
ATOM     27  C   UNL     1       4.991   3.695  18.828  0.00  0.00    +0.000 C 
ATOM     28  C   UNL     1       3.663   5.613  19.444  0.00  0.00    +0.000 C 
ENDBRANCH  19  22
ENDBRANCH   1  16
TORSDOF 3
ENDMDL
MODEL 5
REMARK VINA RESULT:      -8.6      2.151      8.958
REMARK  Name = 
REMARK  7 active torsions:
REMARK  status: ('A' for Active; 'I' for Inactive)
REMARK    1  A    between atoms: C_1  and  C_2
REMARK    2  A    between atoms: C_5  and  C_6
REMARK    3  A    between atoms: C_11  and  N_12
REMARK    4  A    between atoms: N_12  and  C_13
REMARK    5  A    between atoms: C_16  and  N_17
REMARK    6  A    between atoms: N_21  and  C_22
REMARK    7  A    between atoms: C_26  and  C_27
REMARK                            x       y       z     vdW  Elec       q    Type
REMARK                         _______ _______ _______ _____ _____    ______ ____
ROOT
ATOM      1  N   UNL     1       2.986   6.474  19.730  0.00  0.00    +0.000 N 
ATOM      2  H   UNL     1       3.867   6.909  20.000  0.00  0.00    +0.000 HD
ENDROOT
BRANCH   1  13
ATOM      3  C   UNL     1       2.407   1.874  17.818  0.00  0.00    +0.000 C 
ATOM      4  C   UNL     1       2.995   3.262  17.824  0.00  0.00    +0.000 A 
ATOM      5  N   UNL     1       4.035   3.434  16.982  0.00  0.00    +0.000 NA
ATOM      6  C   UNL     1       4.725   4.580  16.997  0.00  0.00    +0.000 A 
ATOM      7  C   UNL     1       5.793   4.714  16.102  0.00  0.00    +0.000 A 
ATOM      8  C   UNL     1       6.097   3.657  15.068  0.00  0.00    +0.000 C 
ATOM      9  C   UNL     1       6.621   5.846  16.132  0.00  0.00    +0.000 A 
ATOM     10  C   UNL     1       6.362   6.864  17.030  0.00  0.00    +0.000 A 
ATOM     11  C   UNL     1       5.272   6.761  17.891  0.00  0.00    +0.000 A 
ATOM     12  C   UNL     1       4.416   5.626  17.895  0.00  0.00    +0.000 A 
ATOM     13  C   UNL     1       3.253   5.468  18.739  0.00  0.00    +0.000 A 
ATOM     14  C   UNL     1       2.510   4.262  18.666  0.00  0.00    +0.000 A 
ATOM     15  C   UNL     1       1.294   3.934  19.494  0.00  0.00    +0.000 C 
ENDBRANCH   1  13
BRANCH   1  16
ATOM     16  C   UNL     1       2.096   7.571  19.678  0.00  0.00    +0.000 A 
ATOM     17  C   UNL     1       1.468   7.993  20.851  0.00  0.00    +0.000 A 
ATOM     18  C   UNL     1       0.794   9.216  20.903  0.00  0.00    +0.000 A 
ATOM     19  C   UNL     1       0.717  10.056  19.783  0.00  0.00    +0.000 A 
ATOM     20  C   UNL     1       1.288   9.581  18.593  0.00  0.00    +0.000 A 
ATOM     21  C   UNL     1       2.003   8.391  18.550  0.00  0.00    +0.000 A 
BRANCH  19  22
ATOM     22  N   UNL     1       0.216  11.335  19.848  0.00  0.00    +0.000 N 
ATOM     23  C   UNL     1       0.917  12.461  19.252  0.00  0.00    +0.000 C 
ATOM     24  C   UNL     1      -0.113  13.414  18.649  0.00  0.00    +0.000 C 
ATOM     25  C   UNL     1      -1.145  13.833  19.698  0.00  0.00    +0.000 C 
ATOM     26  N   UNL     1      -1.843  12.673  20.261  0.00  0.00    +0.000 NA
ATOM     27  C   UNL     1      -2.765  13.071  21.319  0.00  0.00    +0.000 C 
ATOM     28  C   UNL     1      -0.872  11.688  20.749  0.00  0.00    +0.000 C 
ENDBRANCH  19  22
ENDBRANCH   1  16
TORSDOF 3
ENDMDL
MODEL 6
REMARK VINA RESULT:      -8.5      2.259      8.971
REMARK  Name = 
REMARK  7 active torsions:
REMARK  status: ('A' for Active; 'I' for Inactive)
REMARK    1  A    between atoms: C_1  and  C_2
REMARK    2  A    between atoms: C_5  and  C_6
REMARK    3  A    between atoms: C_11  and  N_12
REMARK    4  A    between atoms: N_12  and  C_13
REMARK    5  A    between atoms: C_16  and  N_17
REMARK    6  A    between atoms: N_21  and  C_22
REMARK    7  A    between atoms: C_26  and  C_27
REMARK                            x       y       z     vdW  Elec       q    Type
REMARK                         _______ _______ _______ _____ _____    ______ ____
ROOT
ATOM      1  N   UNL     1       2.972   6.567  19.604  0.00  0.00    +0.000 N 
ATOM      2  H   UNL     1       3.836   7.019  19.899  0.00  0.00    +0.000 HD
ENDROOT
BRANCH   1  13
ATOM      3  C   UNL     1       2.538   1.889  17.851  0.00  0.00    +0.000 C 
ATOM      4  C   UNL     1       3.102   3.287  17.824  0.00  0.00    +0.000 A 
ATOM      5  N   UNL     1       4.169   3.445  17.014  0.00  0.00    +0.000 NA
ATOM      6  C   UNL     1       4.840   4.602  17.010  0.00  0.00    +0.000 A 
ATOM      7  C   UNL     1       5.937   4.721  16.149  0.00  0.00    +0.000 A 
ATOM      8  C   UNL     1       6.296   3.632  15.168  0.00  0.00    +0.000 C 
ATOM      9  C   UNL     1       6.745   5.869  16.165  0.00  0.00    +0.000 A 
ATOM     10  C   UNL     1       6.437   6.915  17.014  0.00  0.00    +0.000 A 
ATOM     11  C   UNL     1       5.318   6.825  17.839  0.00  0.00    +0.000 A 
ATOM     12  C   UNL     1       4.482   5.676  17.856  0.00  0.00    +0.000 A 
ATOM     13  C   UNL     1       3.291   5.530  18.663  0.00  0.00    +0.000 A 
ATOM     14  C   UNL     1       2.571   4.309  18.610  0.00  0.00    +0.000 A 
ATOM     15  C   UNL     1       1.331   3.991  19.405  0.00  0.00    +0.000 C 
ENDBRANCH   1  13
BRANCH   1  16
ATOM     16  C   UNL     1       2.077   7.654  19.473  0.00  0.00    +0.000 A 
ATOM     17  C   UNL     1       1.462   8.171  20.615  0.00  0.00    +0.000 A 
ATOM     18  C   UNL     1       0.785   9.391  20.574  0.00  0.00    +0.000 A 
ATOM     19  C   UNL     1       0.691  10.136  19.390  0.00  0.00    +0.000 A 
ATOM     20  C   UNL     1       1.248   9.565  18.235  0.00  0.00    +0.000 A 
ATOM     21  C   UNL     1       1.968   8.377  18.282  0.00  0.00    +0.000 A 
BRANCH  19  22
ATOM     22  N   UNL     1       0.186  11.414  19.355  0.00  0.00    +0.000 N 
ATOM     23  C   UNL     1      -1.236  11.678  19.506  0.00  0.00    +0.000 C 
ATOM     24  C   UNL     1      -1.412  12.957  20.322  0.00  0.00    +0.000 C 
ATOM     25  C   UNL     1      -0.648  14.118  19.682  0.00  0.00    +0.000 C 
ATOM     26  N   UNL     1       0.783  13.822  19.564  0.00  0.00    +0.000 NA
ATOM     27  C   UNL     1       1.492  14.897  18.878  0.00  0.00    +0.000 C 
ATOM     28  C   UNL     1       0.977  12.540  18.880  0.00  0.00    +0.000 C 
ENDBRANCH  19  22
ENDBRANCH   1  16
TORSDOF 3
ENDMDL
MODEL 7
REMARK VINA RESULT:      -8.5      2.151      8.753
REMARK  Name = 
REMARK  7 active torsions:
REMARK  status: ('A' for Active; 'I' for Inactive)
REMARK    1  A    between atoms: C_1  and  C_2
REMARK    2  A    between atoms: C_5  and  C_6
REMARK    3  A    between atoms: C_11  and  N_12
REMARK    4  A    between atoms: N_12  and  C_13
REMARK    5  A    between atoms: C_16  and  N_17
REMARK    6  A    between atoms: N_21  and  C_22
REMARK    7  A    between atoms: C_26  and  C_27
REMARK                            x       y       z     vdW  Elec       q    Type
REMARK                         _______ _______ _______ _____ _____    ______ ____
ROOT
ATOM      1  N   UNL     1       3.074   6.466  19.824  0.00  0.00    +0.000 N 
ATOM      2  H   UNL     1       3.979   6.818  20.131  0.00  0.00    +0.000 HD
ENDROOT
BRANCH   1  13
ATOM      3  C   UNL     1       2.280   1.974  17.740  0.00  0.00    +0.000 C 
ATOM      4  C   UNL     1       2.922   3.337  17.790  0.00  0.00    +0.000 A 
ATOM      5  N   UNL     1       3.954   3.503  16.937  0.00  0.00    +0.000 NA
ATOM      6  C   UNL     1       4.689   4.619  16.985  0.00  0.00    +0.000 A 
ATOM      7  C   UNL     1       5.746   4.748  16.076  0.00  0.00    +0.000 A 
ATOM      8  C   UNL     1       5.990   3.724  14.995  0.00  0.00    +0.000 C 
ATOM      9  C   UNL     1       6.619   5.846  16.137  0.00  0.00    +0.000 A 
ATOM     10  C   UNL     1       6.416   6.834  17.079  0.00  0.00    +0.000 A 
ATOM     11  C   UNL     1       5.338   6.739  17.956  0.00  0.00    +0.000 A 
ATOM     12  C   UNL     1       4.438   5.639  17.931  0.00  0.00    +0.000 A 
ATOM     13  C   UNL     1       3.284   5.492  18.789  0.00  0.00    +0.000 A 
ATOM     14  C   UNL     1       2.492   4.319  18.682  0.00  0.00    +0.000 A 
ATOM     15  C   UNL     1       1.279   4.005  19.518  0.00  0.00    +0.000 C 
ENDBRANCH   1  13
BRANCH   1  16
ATOM     16  C   UNL     1       2.271   7.630  19.812  0.00  0.00    +0.000 A 
ATOM     17  C   UNL     1       2.074   8.308  18.608  0.00  0.00    +0.000 A 
ATOM     18  C   UNL     1       1.093   9.295  18.494  0.00  0.00    +0.000 A 
ATOM     19  C   UNL     1       0.279   9.646  19.581  0.00  0.00    +0.000 A 
ATOM     20  C   UNL     1       0.543   9.009  20.803  0.00  0.00    +0.000 A 
ATOM     21  C   UNL     1       1.482   7.990  20.908  0.00  0.00    +0.000 A 
BRANCH  19  22
ATOM     22  N   UNL     1      -0.805  10.483  19.457  0.00  0.00    +0.000 N 
ATOM     23  C   UNL     1      -1.181  11.406  20.516  0.00  0.00    +0.000 C 
ATOM     24  C   UNL     1      -1.668  12.707  19.880  0.00  0.00    +0.000 C 
ATOM     25  C   UNL     1      -2.800  12.435  18.887  0.00  0.00    +0.000 C 
ATOM     26  N   UNL     1      -2.376  11.517  17.825  0.00  0.00    +0.000 NA
ATOM     27  C   UNL     1      -3.481  11.195  16.929  0.00  0.00    +0.000 C 
ATOM     28  C   UNL     1      -1.800  10.302  18.411  0.00  0.00    +0.000 C 
ENDBRANCH  19  22
ENDBRANCH   1  16
TORSDOF 3
ENDMDL
MODEL 8
REMARK VINA RESULT:      -8.5      2.141      8.725
REMARK  Name = 
REMARK  7 active torsions:
REMARK  status: ('A' for Active; 'I' for Inactive)
REMARK    1  A    between atoms: C_1  and  C_2
REMARK    2  A    between atoms: C_5  and  C_6
REMARK    3  A    between atoms: C_11  and  N_12
REMARK    4  A    between atoms: N_12  and  C_13
REMARK    5  A    between atoms: C_16  and  N_17
REMARK    6  A    between atoms: N_21  and  C_22
REMARK    7  A    between atoms: C_26  and  C_27
REMARK                            x       y       z     vdW  Elec       q    Type
REMARK                         _______ _______ _______ _____ _____    ______ ____
ROOT
ATOM      1  N   UNL     1       2.599   6.833  17.991  0.00  0.00    +0.000 N 
ATOM      2  H   UNL     1       1.716   6.354  17.821  0.00  0.00    +0.000 HD
ENDROOT
BRANCH   1  13
ATOM      3  C   UNL     1       7.101   4.647  17.668  0.00  0.00    +0.000 C 
ATOM      4  C   UNL     1       5.722   4.803  18.258  0.00  0.00    +0.000 A 
ATOM      5  N   UNL     1       5.329   3.778  19.041  0.00  0.00    +0.000 NA
ATOM      6  C   UNL     1       4.077   3.736  19.510  0.00  0.00    +0.000 A 
ATOM      7  C   UNL     1       3.716   2.655  20.323  0.00  0.00    +0.000 A 
ATOM      8  C   UNL     1       4.726   1.623  20.762  0.00  0.00    +0.000 C 
ATOM      9  C   UNL     1       2.394   2.497  20.767  0.00  0.00    +0.000 A 
ATOM     10  C   UNL     1       1.438   3.436  20.431  0.00  0.00    +0.000 A 
ATOM     11  C   UNL     1       1.799   4.540  19.663  0.00  0.00    +0.000 A 
ATOM     12  C   UNL     1       3.125   4.731  19.189  0.00  0.00    +0.000 A 
ATOM     13  C   UNL     1       3.574   5.867  18.415  0.00  0.00    +0.000 A 
ATOM     14  C   UNL     1       4.922   5.909  17.973  0.00  0.00    +0.000 A 
ATOM     15  C   UNL     1       5.534   7.004  17.140  0.00  0.00    +0.000 C 
ENDBRANCH   1  13
BRANCH   1  16
ATOM     16  C   UNL     1       2.190   8.031  18.620  0.00  0.00    +0.000 A 
ATOM     17  C   UNL     1       2.040   9.186  17.850  0.00  0.00    +0.000 A 
ATOM     18  C   UNL     1       1.396  10.313  18.366  0.00  0.00    +0.000 A 
ATOM     19  C   UNL     1       0.886  10.329  19.673  0.00  0.00    +0.000 A 
ATOM     20  C   UNL     1       1.114   9.188  20.456  0.00  0.00    +0.000 A 
ATOM     21  C   UNL     1       1.707   8.047  19.931  0.00  0.00    +0.000 A 
BRANCH  19  22
ATOM     22  N   UNL     1       0.099  11.351  20.149  0.00  0.00    +0.000 N 
ATOM     23  C   UNL     1      -0.019  12.617  19.444  0.00  0.00    +0.000 C 
ATOM     24  C   UNL     1      -1.459  13.111  19.563  0.00  0.00    +0.000 C 
ATOM     25  C   UNL     1      -1.883  13.197  21.031  0.00  0.00    +0.000 C 
ATOM     26  N   UNL     1      -1.769  11.898  21.701  0.00  0.00    +0.000 NA
ATOM     27  C   UNL     1      -2.095  12.003  23.120  0.00  0.00    +0.000 C 
ATOM     28  C   UNL     1      -0.424  11.347  21.507  0.00  0.00    +0.000 C 
ENDBRANCH  19  22
ENDBRANCH   1  16
TORSDOF 3
ENDMDL
MODEL 9
REMARK VINA RESULT:      -8.5      0.889      1.426
REMARK  Name = 
REMARK  7 active torsions:
REMARK  status: ('A' for Active; 'I' for Inactive)
REMARK    1  A    between atoms: C_1  and  C_2
REMARK    2  A    between atoms: C_5  and  C_6
REMARK    3  A    between atoms: C_11  and  N_12
REMARK    4  A    between atoms: N_12  and  C_13
REMARK    5  A    between atoms: C_16  and  N_17
REMARK    6  A    between atoms: N_21  and  C_22
REMARK    7  A    between atoms: C_26  and  C_27
REMARK                            x       y       z     vdW  Elec       q    Type
REMARK                         _______ _______ _______ _____ _____    ______ ____
ROOT
ATOM      1  N   UNL     1       0.877  10.966  18.363  0.00  0.00    +0.000 N 
ATOM      2  H   UNL     1       1.628  11.650  18.448  0.00  0.00    +0.000 HD
ENDROOT
BRANCH   1  13
ATOM      3  C   UNL     1      -1.712  13.292  21.974  0.00  0.00    +0.000 C 
ATOM      4  C   UNL     1      -1.584  12.637  20.622  0.00  0.00    +0.000 A 
ATOM      5  N   UNL     1      -2.758  12.352  20.023  0.00  0.00    +0.000 NA
ATOM      6  C   UNL     1      -2.776  11.649  18.885  0.00  0.00    +0.000 A 
ATOM      7  C   UNL     1      -4.018  11.382  18.298  0.00  0.00    +0.000 A 
ATOM      8  C   UNL     1      -5.296  11.960  18.853  0.00  0.00    +0.000 C 
ATOM      9  C   UNL     1      -4.117  10.566  17.160  0.00  0.00    +0.000 A 
ATOM     10  C   UNL     1      -2.974  10.046  16.585  0.00  0.00    +0.000 A 
ATOM     11  C   UNL     1      -1.729  10.346  17.134  0.00  0.00    +0.000 A 
ATOM     12  C   UNL     1      -1.590  11.162  18.290  0.00  0.00    +0.000 A 
ATOM     13  C   UNL     1      -0.330  11.538  18.892  0.00  0.00    +0.000 A 
ATOM     14  C   UNL     1      -0.340  12.327  20.072  0.00  0.00    +0.000 A 
ATOM     15  C   UNL     1       0.880  12.777  20.831  0.00  0.00    +0.000 C 
ENDBRANCH   1  13
BRANCH   1  16
ATOM     16  C   UNL     1       1.518   9.752  18.699  0.00  0.00    +0.000 A 
ATOM     17  C   UNL     1       1.223   9.142  19.920  0.00  0.00    +0.000 A 
ATOM     18  C   UNL     1       1.622   7.829  20.180  0.00  0.00    +0.000 A 
ATOM     19  C   UNL     1       2.337   7.081  19.234  0.00  0.00    +0.000 A 
ATOM     20  C   UNL     1       2.691   7.736  18.044  0.00  0.00    +0.000 A 
ATOM     21  C   UNL     1       2.251   9.022  17.760  0.00  0.00    +0.000 A 
BRANCH  19  22
ATOM     22  N   UNL     1       2.592   5.739  19.388  0.00  0.00    +0.000 N 
ATOM     23  C   UNL     1       3.504   5.029  18.506  0.00  0.00    +0.000 C 
ATOM     24  C   UNL     1       4.287   4.009  19.330  0.00  0.00    +0.000 C 
ATOM     25  C   UNL     1       3.337   3.080  20.089  0.00  0.00    +0.000 C 
ATOM     26  N   UNL     1       2.448   3.831  20.981  0.00  0.00    +0.000 NA
ATOM     27  C   UNL     1       1.489   2.950  21.638  0.00  0.00    +0.000 C 
ATOM     28  C   UNL     1       1.765   4.892  20.234  0.00  0.00    +0.000 C 
ENDBRANCH  19  22
ENDBRANCH   1  16
TORSDOF 3
ENDMDL
