MODEL 1
REMARK VINA RESULT:      -5.4      0.000      0.000
REMARK  Name = 
REMARK  6 active torsions:
REMARK  status: ('A' for Active; 'I' for Inactive)
REMARK    1  A    between atoms: C_1  and  O_2
REMARK    2  A    between atoms: O_2  and  C_3
REMARK    3  A    between atoms: C_3  and  C_4
REMARK    4  A    between atoms: C_3  and  C_6
REMARK    5  A    between atoms: C_4  and  O_5
REMARK    6  A    between atoms: C_6  and  C_7
REMARK                            x       y       z     vdW  Elec       q    Type
REMARK                         _______ _______ _______ _____ _____    ______ ____
ROOT
ATOM      1  C   UNL     1       4.673   4.890  16.862  0.00  0.00    +0.000 C 
ENDROOT
BRANCH   1   2
ATOM      2  C   UNL     1       3.562   4.030  17.411  0.00  0.00    +0.000 A 
ATOM      3  C   UNL     1       2.323   4.606  17.717  0.00  0.00    +0.000 A 
ATOM      4  C   UNL     1       1.335   3.865  18.360  0.00  0.00    +0.000 A 
ATOM      5  C   UNL     1       1.569   2.528  18.677  0.00  0.00    +0.000 A 
ATOM      6  C   UNL     1       2.784   1.932  18.340  0.00  0.00    +0.000 A 
ATOM      7  C   UNL     1       3.780   2.677  17.706  0.00  0.00    +0.000 A 
ENDBRANCH   1   2
BRANCH   1   8
ATOM      8  C   UNL     1       5.999   4.120  16.680  0.00  0.00    +0.000 C 
BRANCH   8  10
ATOM      9  C   UNL     1       6.824   4.796  14.526  0.00  0.00    +0.000 C 
ATOM     10  O   UNL     1       6.106   3.818  15.271  0.00  0.00    +0.000 OA
ENDBRANCH   8  10
BRANCH   8  11
ATOM     11  C   UNL     1       7.232   4.914  17.156  0.00  0.00    +0.000 C 
BRANCH  11  12
ATOM     12  O   UNL     1       8.232   4.046  17.689  0.00  0.00    +0.000 OA
ATOM     13  H   UNL     1       7.756   3.389  18.232  0.00  0.00    +0.000 HD
ENDBRANCH  11  12
ENDBRANCH   8  11
ENDBRANCH   1   8
TORSDOF 5
ENDMDL
MODEL 2
REMARK VINA RESULT:      -5.3      1.522      2.326
REMARK  Name = 
REMARK  6 active torsions:
REMARK  status: ('A' for Active; 'I' for Inactive)
REMARK    1  A    between atoms: C_1  and  O_2
REMARK    2  A    between atoms: O_2  and  C_3
REMARK    3  A    between atoms: C_3  and  C_4
REMARK    4  A    between atoms: C_3  and  C_6
REMARK    5  A    between atoms: C_4  and  O_5
REMARK    6  A    between atoms: C_6  and  C_7
REMARK                            x       y       z     vdW  Elec       q    Type
REMARK                         _______ _______ _______ _____ _____    ______ ____
ROOT
ATOM      1  C   UNL     1       5.916   4.730  17.283  0.00  0.00    +0.000 C 
ENDROOT
BRANCH   1   2
ATOM      2  C   UNL     1       4.419   4.572  17.378  0.00  0.00    +0.000 A 
ATOM      3  C   UNL     1       3.626   5.667  17.742  0.00  0.00    +0.000 A 
ATOM      4  C   UNL     1       2.263   5.510  17.978  0.00  0.00    +0.000 A 
ATOM      5  C   UNL     1       1.674   4.257  17.822  0.00  0.00    +0.000 A 
ATOM      6  C   UNL     1       2.447   3.167  17.419  0.00  0.00    +0.000 A 
ATOM      7  C   UNL     1       3.816   3.321  17.193  0.00  0.00    +0.000 A 
ENDBRANCH   1   2
BRANCH   1   8
ATOM      8  C   UNL     1       6.355   5.628  16.106  0.00  0.00    +0.000 C 
BRANCH   8  10
ATOM      9  C   UNL     1       7.521   6.564  17.987  0.00  0.00    +0.000 C 
ATOM     10  O   UNL     1       7.488   6.393  16.575  0.00  0.00    +0.000 OA
ENDBRANCH   8  10
BRANCH   8  11
ATOM     11  C   UNL     1       6.730   4.829  14.841  0.00  0.00    +0.000 C 
BRANCH  11  12
ATOM     12  O   UNL     1       7.829   5.430  14.156  0.00  0.00    +0.000 OA
ATOM     13  H   UNL     1       8.113   4.781  13.484  0.00  0.00    +0.000 HD
ENDBRANCH  11  12
ENDBRANCH   8  11
ENDBRANCH   1   8
TORSDOF 5
ENDMDL
MODEL 3
REMARK VINA RESULT:      -5.3      1.775      2.290
REMARK  Name = 
REMARK  6 active torsions:
REMARK  status: ('A' for Active; 'I' for Inactive)
REMARK    1  A    between atoms: C_1  and  O_2
REMARK    2  A    between atoms: O_2  and  C_3
REMARK    3  A    between atoms: C_3  and  C_4
REMARK    4  A    between atoms: C_3  and  C_6
REMARK    5  A    between atoms: C_4  and  O_5
REMARK    6  A    between atoms: C_6  and  C_7
REMARK                            x       y       z     vdW  Elec       q    Type
REMARK                         _______ _______ _______ _____ _____    ______ ____
ROOT
ATOM      1  C   UNL     1       3.245   5.849  17.931  0.00  0.00    +0.000 C 
ENDROOT
BRANCH   1   2
ATOM      2  C   UNL     1       2.438   4.811  18.670  0.00  0.00    +0.000 A 
ATOM      3  C   UNL     1       1.937   3.700  17.981  0.00  0.00    +0.000 A 
ATOM      4  C   UNL     1       1.070   2.808  18.607  0.00  0.00    +0.000 A 
ATOM      5  C   UNL     1       0.717   3.005  19.940  0.00  0.00    +0.000 A 
ATOM      6  C   UNL     1       1.244   4.086  20.649  0.00  0.00    +0.000 A 
ATOM      7  C   UNL     1       2.104   4.987  20.019  0.00  0.00    +0.000 A 
ENDBRANCH   1   2
BRANCH   1   8
ATOM      8  C   UNL     1       4.558   5.286  17.342  0.00  0.00    +0.000 C 
BRANCH   8  10
ATOM      9  C   UNL     1       5.604   5.542  15.195  0.00  0.00    +0.000 C 
ATOM     10  O   UNL     1       4.949   6.185  16.282  0.00  0.00    +0.000 OA
ENDBRANCH   8  10
BRANCH   8  11
ATOM     11  C   UNL     1       5.685   5.160  18.387  0.00  0.00    +0.000 C 
BRANCH  11  12
ATOM     12  O   UNL     1       5.936   3.794  18.716  0.00  0.00    +0.000 OA
ATOM     13  H   UNL     1       6.750   3.548  18.236  0.00  0.00    +0.000 HD
ENDBRANCH  11  12
ENDBRANCH   8  11
ENDBRANCH   1   8
TORSDOF 5
ENDMDL
MODEL 4
REMARK VINA RESULT:      -5.3      0.985      1.706
REMARK  Name = 
REMARK  6 active torsions:
REMARK  status: ('A' for Active; 'I' for Inactive)
REMARK    1  A    between atoms: C_1  and  O_2
REMARK    2  A    between atoms: O_2  and  C_3
REMARK    3  A    between atoms: C_3  and  C_4
REMARK    4  A    between atoms: C_3  and  C_6
REMARK    5  A    between atoms: C_4  and  O_5
REMARK    6  A    between atoms: C_6  and  C_7
REMARK                            x       y       z     vdW  Elec       q    Type
REMARK                         _______ _______ _______ _____ _____    ______ ____
ROOT
ATOM      1  C   UNL     1       4.715   5.100  16.918  0.00  0.00    +0.000 C 
ENDROOT
BRANCH   1   2
ATOM      2  C   UNL     1       3.644   4.219  17.513  0.00  0.00    +0.000 A 
ATOM      3  C   UNL     1       3.878   2.847  17.663  0.00  0.00    +0.000 A 
ATOM      4  C   UNL     1       2.857   1.993  18.072  0.00  0.00    +0.000 A 
ATOM      5  C   UNL     1       1.596   2.511  18.362  0.00  0.00    +0.000 A 
ATOM      6  C   UNL     1       1.363   3.883  18.255  0.00  0.00    +0.000 A 
ATOM      7  C   UNL     1       2.383   4.738  17.835  0.00  0.00    +0.000 A 
ENDBRANCH   1   2
BRANCH   1   8
ATOM      8  C   UNL     1       5.733   4.317  16.060  0.00  0.00    +0.000 C 
BRANCH   8  10
ATOM      9  C   UNL     1       6.201   3.891  13.742  0.00  0.00    +0.000 C 
ATOM     10  O   UNL     1       5.445   4.646  14.683  0.00  0.00    +0.000 OA
ENDBRANCH   8  10
BRANCH   8  11
ATOM     11  C   UNL     1       7.199   4.655  16.400  0.00  0.00    +0.000 C 
BRANCH  11  12
ATOM     12  O   UNL     1       7.481   6.033  16.162  0.00  0.00    +0.000 OA
ATOM     13  H   UNL     1       8.453   6.115  16.179  0.00  0.00    +0.000 HD
ENDBRANCH  11  12
ENDBRANCH   8  11
ENDBRANCH   1   8
TORSDOF 5
ENDMDL
MODEL 5
REMARK VINA RESULT:      -5.3      1.652      1.991
REMARK  Name = 
REMARK  6 active torsions:
REMARK  status: ('A' for Active; 'I' for Inactive)
REMARK    1  A    between atoms: C_1  and  O_2
REMARK    2  A    between atoms: O_2  and  C_3
REMARK    3  A    between atoms: C_3  and  C_4
REMARK    4  A    between atoms: C_3  and  C_6
REMARK    5  A    between atoms: C_4  and  O_5
REMARK    6  A    between atoms: C_6  and  C_7
REMARK                            x       y       z     vdW  Elec       q    Type
REMARK                         _______ _______ _______ _____ _____    ______ ____
ROOT
ATOM      1  C   UNL     1       3.448   5.377  17.614  0.00  0.00    +0.000 C 
ENDROOT
BRANCH   1   2
ATOM      2  C   UNL     1       2.421   4.640  18.438  0.00  0.00    +0.000 A 
ATOM      3  C   UNL     1       2.088   5.109  19.714  0.00  0.00    +0.000 A 
ATOM      4  C   UNL     1       1.256   4.367  20.548  0.00  0.00    +0.000 A 
ATOM      5  C   UNL     1       0.726   3.159  20.101  0.00  0.00    +0.000 A 
ATOM      6  C   UNL     1       1.018   2.702  18.815  0.00  0.00    +0.000 A 
ATOM      7  C   UNL     1       1.861   3.439  17.982  0.00  0.00    +0.000 A 
ENDBRANCH   1   2
BRANCH   1   8
ATOM      8  C   UNL     1       4.701   4.527  17.311  0.00  0.00    +0.000 C 
BRANCH   8  10
ATOM      9  C   UNL     1       5.041   6.598  16.140  0.00  0.00    +0.000 C 
ATOM     10  O   UNL     1       5.447   5.243  16.301  0.00  0.00    +0.000 OA
ENDBRANCH   8  10
BRANCH   8  11
ATOM     11  C   UNL     1       5.579   4.277  18.554  0.00  0.00    +0.000 C 
BRANCH  11  12
ATOM     12  O   UNL     1       6.957   4.158  18.200  0.00  0.00    +0.000 OA
ATOM     13  H   UNL     1       6.971   3.946  17.247  0.00  0.00    +0.000 HD
ENDBRANCH  11  12
ENDBRANCH   8  11
ENDBRANCH   1   8
TORSDOF 5
ENDMDL
MODEL 6
REMARK VINA RESULT:      -5.3      1.150      1.862
REMARK  Name = 
REMARK  6 active torsions:
REMARK  status: ('A' for Active; 'I' for Inactive)
REMARK    1  A    between atoms: C_1  and  O_2
REMARK    2  A    between atoms: O_2  and  C_3
REMARK    3  A    between atoms: C_3  and  C_4
REMARK    4  A    between atoms: C_3  and  C_6
REMARK    5  A    between atoms: C_4  and  O_5
REMARK    6  A    between atoms: C_6  and  C_7
REMARK                            x       y       z     vdW  Elec       q    Type
REMARK                         _______ _______ _______ _____ _____    ______ ____
ROOT
ATOM      1  C   UNL     1       5.075   4.674  16.757  0.00  0.00    +0.000 C 
ENDROOT
BRANCH   1   2
ATOM      2  C   UNL     1       3.856   4.071  17.410  0.00  0.00    +0.000 A 
ATOM      3  C   UNL     1       3.789   2.687  17.611  0.00  0.00    +0.000 A 
ATOM      4  C   UNL     1       2.618   2.094  18.076  0.00  0.00    +0.000 A 
ATOM      5  C   UNL     1       1.510   2.886  18.370  0.00  0.00    +0.000 A 
ATOM      6  C   UNL     1       1.580   4.271  18.213  0.00  0.00    +0.000 A 
ATOM      7  C   UNL     1       2.749   4.866  17.737  0.00  0.00    +0.000 A 
ENDBRANCH   1   2
BRANCH   1   8
ATOM      8  C   UNL     1       6.343   4.568  17.633  0.00  0.00    +0.000 C 
BRANCH   8  10
ATOM      9  C   UNL     1       7.102   4.683  15.356  0.00  0.00    +0.000 C 
ATOM     10  O   UNL     1       7.469   4.618  16.729  0.00  0.00    +0.000 OA
ENDBRANCH   8  10
BRANCH   8  11
ATOM     11  C   UNL     1       6.447   5.689  18.687  0.00  0.00    +0.000 C 
BRANCH  11  12
ATOM     12  O   UNL     1       7.111   5.232  19.865  0.00  0.00    +0.000 OA
ATOM     13  H   UNL     1       6.461   4.684  20.344  0.00  0.00    +0.000 HD
ENDBRANCH  11  12
ENDBRANCH   8  11
ENDBRANCH   1   8
TORSDOF 5
ENDMDL
MODEL 7
REMARK VINA RESULT:      -5.2      1.584      2.585
REMARK  Name = 
REMARK  6 active torsions:
REMARK  status: ('A' for Active; 'I' for Inactive)
REMARK    1  A    between atoms: C_1  and  O_2
REMARK    2  A    between atoms: O_2  and  C_3
REMARK    3  A    between atoms: C_3  and  C_4
REMARK    4  A    between atoms: C_3  and  C_6
REMARK    5  A    between atoms: C_4  and  O_5
REMARK    6  A    between atoms: C_6  and  C_7
REMARK                            x       y       z     vdW  Elec       q    Type
REMARK                         _______ _______ _______ _____ _____    ______ ____
ROOT
ATOM      1  C   UNL     1       5.865   4.674  17.244  0.00  0.00    +0.000 C 
ENDROOT
BRANCH   1   2
ATOM      2  C   UNL     1       4.394   4.505  17.536  0.00  0.00    +0.000 A 
ATOM      3  C   UNL     1       3.791   3.253  17.365  0.00  0.00    +0.000 A 
ATOM      4  C   UNL     1       2.411   3.108  17.485  0.00  0.00    +0.000 A 
ATOM      5  C   UNL     1       1.624   4.212  17.807  0.00  0.00    +0.000 A 
ATOM      6  C   UNL     1       2.219   5.456  18.021  0.00  0.00    +0.000 A 
ATOM      7  C   UNL     1       3.601   5.605  17.889  0.00  0.00    +0.000 A 
ENDBRANCH   1   2
BRANCH   1   8
ATOM      8  C   UNL     1       6.137   5.560  16.009  0.00  0.00    +0.000 C 
BRANCH   8  10
ATOM      9  C   UNL     1       7.418   6.501  17.811  0.00  0.00    +0.000 C 
ATOM     10  O   UNL     1       7.009   6.623  16.453  0.00  0.00    +0.000 OA
ENDBRANCH   8  10
BRANCH   8  11
ATOM     11  C   UNL     1       6.780   4.788  14.839  0.00  0.00    +0.000 C 
BRANCH  11  12
ATOM     12  O   UNL     1       7.896   5.498  14.302  0.00  0.00    +0.000 OA
ATOM     13  H   UNL     1       7.586   6.411  14.150  0.00  0.00    +0.000 HD
ENDBRANCH  11  12
ENDBRANCH   8  11
ENDBRANCH   1   8
TORSDOF 5
ENDMDL
MODEL 8
REMARK VINA RESULT:      -5.2      1.724      1.833
REMARK  Name = 
REMARK  6 active torsions:
REMARK  status: ('A' for Active; 'I' for Inactive)
REMARK    1  A    between atoms: C_1  and  O_2
REMARK    2  A    between atoms: O_2  and  C_3
REMARK    3  A    between atoms: C_3  and  C_4
REMARK    4  A    between atoms: C_3  and  C_6
REMARK    5  A    between atoms: C_4  and  O_5
REMARK    6  A    between atoms: C_6  and  C_7
REMARK                            x       y       z     vdW  Elec       q    Type
REMARK                         _______ _______ _______ _____ _____    ______ ____
ROOT
ATOM      1  C   UNL     1       5.184   5.302  19.243  0.00  0.00    +0.000 C 
ENDROOT
BRANCH   1   2
ATOM      2  C   UNL     1       4.047   4.481  18.687  0.00  0.00    +0.000 A 
ATOM      3  C   UNL     1       2.879   5.117  18.249  0.00  0.00    +0.000 A 
ATOM      4  C   UNL     1       1.765   4.372  17.871  0.00  0.00    +0.000 A 
ATOM      5  C   UNL     1       1.820   2.981  17.899  0.00  0.00    +0.000 A 
ATOM      6  C   UNL     1       2.993   2.336  18.294  0.00  0.00    +0.000 A 
ATOM      7  C   UNL     1       4.107   3.081  18.684  0.00  0.00    +0.000 A 
ENDBRANCH   1   2
BRANCH   1   8
ATOM      8  C   UNL     1       6.526   5.039  18.526  0.00  0.00    +0.000 C 
BRANCH   8  10
ATOM      9  C   UNL     1       7.003   4.556  16.221  0.00  0.00    +0.000 C 
ATOM     10  O   UNL     1       6.329   5.406  17.142  0.00  0.00    +0.000 OA
ENDBRANCH   8  10
BRANCH   8  11
ATOM     11  C   UNL     1       7.703   5.831  19.132  0.00  0.00    +0.000 C 
BRANCH  11  12
ATOM     12  O   UNL     1       7.955   5.431  20.479  0.00  0.00    +0.000 OA
ATOM     13  H   UNL     1       8.542   4.653  20.422  0.00  0.00    +0.000 HD
ENDBRANCH  11  12
ENDBRANCH   8  11
ENDBRANCH   1   8
TORSDOF 5
ENDMDL
MODEL 9
REMARK VINA RESULT:      -5.1      1.287      1.543
REMARK  Name = 
REMARK  6 active torsions:
REMARK  status: ('A' for Active; 'I' for Inactive)
REMARK    1  A    between atoms: C_1  and  O_2
REMARK    2  A    between atoms: O_2  and  C_3
REMARK    3  A    between atoms: C_3  and  C_4
REMARK    4  A    between atoms: C_3  and  C_6
REMARK    5  A    between atoms: C_4  and  O_5
REMARK    6  A    between atoms: C_6  and  C_7
REMARK                            x       y       z     vdW  Elec       q    Type
REMARK                         _______ _______ _______ _____ _____    ______ ____
ROOT
ATOM      1  C   UNL     1       4.081   5.083  17.266  0.00  0.00    +0.000 C 
ENDROOT
BRANCH   1   2
ATOM      2  C   UNL     1       2.944   4.702  18.181  0.00  0.00    +0.000 A 
ATOM      3  C   UNL     1       2.792   5.354  19.410  0.00  0.00    +0.000 A 
ATOM      4  C   UNL     1       1.842   4.921  20.331  0.00  0.00    +0.000 A 
ATOM      5  C   UNL     1       1.014   3.846  20.017  0.00  0.00    +0.000 A 
ATOM      6  C   UNL     1       1.127   3.214  18.778  0.00  0.00    +0.000 A 
ATOM      7  C   UNL     1       2.087   3.641  17.858  0.00  0.00    +0.000 A 
ENDBRANCH   1   2
BRANCH   1   8
ATOM      8  C   UNL     1       5.292   4.131  17.380  0.00  0.00    +0.000 C 
BRANCH   8  10
ATOM      9  C   UNL     1       5.546   4.807  15.089  0.00  0.00    +0.000 C 
ATOM     10  O   UNL     1       5.638   3.745  16.032  0.00  0.00    +0.000 OA
ENDBRANCH   8  10
BRANCH   8  11
ATOM     11  C   UNL     1       6.504   4.774  18.086  0.00  0.00    +0.000 C 
BRANCH  11  12
ATOM     12  O   UNL     1       7.705   4.054  17.810  0.00  0.00    +0.000 OA
ATOM     13  H   UNL     1       7.665   3.819  16.863  0.00  0.00    +0.000 HD
ENDBRANCH  11  12
ENDBRANCH   8  11
ENDBRANCH   1   8
TORSDOF 5
ENDMDL
