MODEL 1
REMARK VINA RESULT:      -8.7      0.000      0.000
REMARK  Name = 
REMARK  8 active torsions:
REMARK  status: ('A' for Active; 'I' for Inactive)
REMARK    1  A    between atoms: C_2  and  N_3
REMARK    2  A    between atoms: C_2  and  N_20
REMARK    3  A    between atoms: N_3  and  N_4
REMARK    4  A    between atoms: C_5  and  C_6
REMARK    5  A    between atoms: C_5  and  C_13
REMARK    6  A    between atoms: C_6  and  C_7
REMARK    7  A    between atoms: C_13  and  C_14
REMARK    8  A    between atoms: C_24  and  C_25
REMARK                            x       y       z     vdW  Elec       q    Type
REMARK                         _______ _______ _______ _____ _____    ______ ____
ROOT
ATOM      1  N   UNL     1       4.248   5.529  18.195  0.00  0.00    +0.000 NA
ATOM      2  C   UNL     1       3.174   6.260  18.037  0.00  0.00    +0.000 C 
ENDROOT
BRANCH   1   3
ATOM      3  N   UNL     1       5.510   6.061  18.063  0.00  0.00    +0.000 N 
ATOM      4  H   UNL     1       5.597   7.039  17.803  0.00  0.00    +0.000 HD
BRANCH   3   6
ATOM      5  S   UNL     1       8.010   5.274  18.743  0.00  0.00    +0.000 S 
ATOM      6  C   UNL     1       6.580   5.219  17.852  0.00  0.00    +0.000 C 
BRANCH   6   7
ATOM      7  N   UNL     1       6.548   4.318  16.828  0.00  0.00    +0.000 N 
ATOM      8  C   UNL     1       6.880   4.540  15.522  0.00  0.00    +0.000 A 
ATOM      9  N   UNL     1       7.500   5.549  14.952  0.00  0.00    +0.000 NA
ATOM     10  C   UNL     1       7.367   5.287  13.606  0.00  0.00    +0.000 A 
ATOM     11  C   UNL     1       6.701   4.100  13.404  0.00  0.00    +0.000 A 
ATOM     12  O   UNL     1       6.411   3.591  14.644  0.00  0.00    +0.000 OA
ATOM     13  H   UNL     1       5.893   3.558  16.948  0.00  0.00    +0.000 HD
BRANCH  11  14
ATOM     14  C   UNL     1       6.290   3.525  12.050  0.00  0.00    +0.000 C 
ATOM     15  C   UNL     1       6.291   1.967  11.951  0.00  0.00    +0.000 C 
ATOM     16  C   UNL     1       5.048   2.095  11.046  0.00  0.00    +0.000 C 
ATOM     17  C   UNL     1       4.755   3.404  11.802  0.00  0.00    +0.000 C 
ENDBRANCH  11  14
ENDBRANCH   6   7
ENDBRANCH   3   6
ENDBRANCH   1   3
BRANCH   2  18
ATOM     18  C   UNL     1       3.136   7.766  17.860  0.00  0.00    +0.000 C 
BRANCH  18  19
ATOM     19  C   UNL     1       1.986   8.466  18.549  0.00  0.00    +0.000 A 
ATOM     20  C   UNL     1       1.789   8.288  19.930  0.00  0.00    +0.000 A 
ATOM     21  C   UNL     1       0.813   9.017  20.614  0.00  0.00    +0.000 A 
ATOM     22  C   UNL     1       0.028   9.942  19.934  0.00  0.00    +0.000 A 
ATOM     23  C   UNL     1       0.200  10.118  18.565  0.00  0.00    +0.000 A 
ATOM     24  C   UNL     1       1.163   9.379  17.876  0.00  0.00    +0.000 A 
ENDBRANCH  18  19
ENDBRANCH   2  18
BRANCH   2  25
ATOM     25  C   UNL     1       1.823   5.542  18.093  0.00  0.00    +0.000 C 
BRANCH  25  26
ATOM     26  C   UNL     1       1.732   4.397  19.087  0.00  0.00    +0.000 A 
ATOM     27  C   UNL     1       1.903   4.643  20.460  0.00  0.00    +0.000 A 
ATOM     28  C   UNL     1       1.717   3.625  21.402  0.00  0.00    +0.000 A 
ATOM     29  C   UNL     1       1.353   2.348  20.986  0.00  0.00    +0.000 A 
ATOM     30  C   UNL     1       1.174   2.088  19.630  0.00  0.00    +0.000 A 
ATOM     31  C   UNL     1       1.356   3.107  18.690  0.00  0.00    +0.000 A 
ENDBRANCH  25  26
ENDBRANCH   2  25
TORSDOF 8
ENDMDL
MODEL 2
REMARK VINA RESULT:      -8.6      0.414      1.281
REMARK  Name = 
REMARK  8 active torsions:
REMARK  status: ('A' for Active; 'I' for Inactive)
REMARK    1  A    between atoms: C_2  and  N_3
REMARK    2  A    between atoms: C_2  and  N_20
REMARK    3  A    between atoms: N_3  and  N_4
REMARK    4  A    between atoms: C_5  and  C_6
REMARK    5  A    between atoms: C_5  and  C_13
REMARK    6  A    between atoms: C_6  and  C_7
REMARK    7  A    between atoms: C_13  and  C_14
REMARK    8  A    between atoms: C_24  and  C_25
REMARK                            x       y       z     vdW  Elec       q    Type
REMARK                         _______ _______ _______ _____ _____    ______ ____
ROOT
ATOM      1  N   UNL     1       4.109   5.373  18.451  0.00  0.00    +0.000 NA
ATOM      2  C   UNL     1       3.067   6.023  17.999  0.00  0.00    +0.000 C 
ENDROOT
BRANCH   1   3
ATOM      3  N   UNL     1       5.370   5.924  18.429  0.00  0.00    +0.000 N 
ATOM      4  H   UNL     1       5.454   6.935  18.367  0.00  0.00    +0.000 HD
BRANCH   3   6
ATOM      5  S   UNL     1       7.964   5.234  18.779  0.00  0.00    +0.000 S 
ATOM      6  C   UNL     1       6.443   5.144  18.059  0.00  0.00    +0.000 C 
BRANCH   6   7
ATOM      7  N   UNL     1       6.330   4.282  17.008  0.00  0.00    +0.000 N 
ATOM      8  C   UNL     1       6.743   4.488  15.723  0.00  0.00    +0.000 A 
ATOM      9  N   UNL     1       7.519   5.414  15.207  0.00  0.00    +0.000 NA
ATOM     10  C   UNL     1       7.407   5.207  13.850  0.00  0.00    +0.000 A 
ATOM     11  C   UNL     1       6.592   4.129  13.587  0.00  0.00    +0.000 A 
ATOM     12  O   UNL     1       6.184   3.635  14.799  0.00  0.00    +0.000 OA
ATOM     13  H   UNL     1       5.571   3.617  17.080  0.00  0.00    +0.000 HD
BRANCH  11  14
ATOM     14  C   UNL     1       6.163   3.651  12.201  0.00  0.00    +0.000 C 
ATOM     15  C   UNL     1       6.391   2.133  11.912  0.00  0.00    +0.000 C 
ATOM     16  C   UNL     1       5.072   2.161  11.111  0.00  0.00    +0.000 C 
ATOM     17  C   UNL     1       4.648   3.314  12.041  0.00  0.00    +0.000 C 
ENDBRANCH  11  14
ENDBRANCH   6   7
ENDBRANCH   3   6
ENDBRANCH   1   3
BRANCH   2  18
ATOM     18  C   UNL     1       3.041   7.474  17.557  0.00  0.00    +0.000 C 
BRANCH  18  19
ATOM     19  C   UNL     1       2.268   8.409  18.461  0.00  0.00    +0.000 A 
ATOM     20  C   UNL     1       1.831   9.650  17.967  0.00  0.00    +0.000 A 
ATOM     21  C   UNL     1       1.011  10.479  18.738  0.00  0.00    +0.000 A 
ATOM     22  C   UNL     1       0.608  10.076  20.007  0.00  0.00    +0.000 A 
ATOM     23  C   UNL     1       1.046   8.857  20.515  0.00  0.00    +0.000 A 
ATOM     24  C   UNL     1       1.877   8.036  19.753  0.00  0.00    +0.000 A 
ENDBRANCH  18  19
ENDBRANCH   2  18
BRANCH   2  25
ATOM     25  C   UNL     1       1.734   5.272  17.966  0.00  0.00    +0.000 C 
BRANCH  25  26
ATOM     26  C   UNL     1       1.583   4.160  18.989  0.00  0.00    +0.000 A 
ATOM     27  C   UNL     1       1.844   2.828  18.623  0.00  0.00    +0.000 A 
ATOM     28  C   UNL     1       1.816   1.802  19.574  0.00  0.00    +0.000 A 
ATOM     29  C   UNL     1       1.532   2.092  20.905  0.00  0.00    +0.000 A 
ATOM     30  C   UNL     1       1.277   3.406  21.286  0.00  0.00    +0.000 A 
ATOM     31  C   UNL     1       1.310   4.432  20.336  0.00  0.00    +0.000 A 
ENDBRANCH  25  26
ENDBRANCH   2  25
TORSDOF 8
ENDMDL
MODEL 3
REMARK VINA RESULT:      -8.3      3.042      5.213
REMARK  Name = 
REMARK  8 active torsions:
REMARK  status: ('A' for Active; 'I' for Inactive)
REMARK    1  A    between atoms: C_2  and  N_3
REMARK    2  A    between atoms: C_2  and  N_20
REMARK    3  A    between atoms: N_3  and  N_4
REMARK    4  A    between atoms: C_5  and  C_6
REMARK    5  A    between atoms: C_5  and  C_13
REMARK    6  A    between atoms: C_6  and  C_7
REMARK    7  A    between atoms: C_13  and  C_14
REMARK    8  A    between atoms: C_24  and  C_25
REMARK                            x       y       z     vdW  Elec       q    Type
REMARK                         _______ _______ _______ _____ _____    ______ ____
ROOT
ATOM      1  N   UNL     1       5.477   3.356  16.965  0.00  0.00    +0.000 NA
ATOM      2  C   UNL     1       4.584   3.772  17.826  0.00  0.00    +0.000 C 
ENDROOT
BRANCH   1   3
ATOM      3  N   UNL     1       6.655   4.039  16.760  0.00  0.00    +0.000 N 
ATOM      4  H   UNL     1       7.266   4.197  17.556  0.00  0.00    +0.000 HD
BRANCH   3   6
ATOM      5  S   UNL     1       6.315   4.390  14.097  0.00  0.00    +0.000 S 
ATOM      6  C   UNL     1       6.784   4.846  15.651  0.00  0.00    +0.000 C 
BRANCH   6   7
ATOM      7  N   UNL     1       7.383   6.066  15.761  0.00  0.00    +0.000 N 
ATOM      8  C   UNL     1       7.778   6.692  16.908  0.00  0.00    +0.000 A 
ATOM      9  N   UNL     1       7.898   6.242  18.136  0.00  0.00    +0.000 NA
ATOM     10  C   UNL     1       8.146   7.379  18.872  0.00  0.00    +0.000 A 
ATOM     11  C   UNL     1       8.209   8.484  18.054  0.00  0.00    +0.000 A 
ATOM     12  O   UNL     1       8.004   8.042  16.773  0.00  0.00    +0.000 OA
ATOM     13  H   UNL     1       7.186   6.708  15.004  0.00  0.00    +0.000 HD
BRANCH  11  14
ATOM     14  C   UNL     1       8.380   9.930  18.518  0.00  0.00    +0.000 C 
ATOM     15  C   UNL     1       9.261  10.129  19.792  0.00  0.00    +0.000 C 
ATOM     16  C   UNL     1       9.784  11.426  19.140  0.00  0.00    +0.000 C 
ATOM     17  C   UNL     1       9.491  10.748  17.789  0.00  0.00    +0.000 C 
ENDBRANCH  11  14
ENDBRANCH   6   7
ENDBRANCH   3   6
ENDBRANCH   1   3
BRANCH   2  18
ATOM     18  C   UNL     1       4.753   4.913  18.811  0.00  0.00    +0.000 C 
BRANCH  18  19
ATOM     19  C   UNL     1       3.792   6.067  18.631  0.00  0.00    +0.000 A 
ATOM     20  C   UNL     1       2.899   6.396  19.665  0.00  0.00    +0.000 A 
ATOM     21  C   UNL     1       2.088   7.531  19.577  0.00  0.00    +0.000 A 
ATOM     22  C   UNL     1       2.165   8.358  18.461  0.00  0.00    +0.000 A 
ATOM     23  C   UNL     1       3.033   8.036  17.422  0.00  0.00    +0.000 A 
ATOM     24  C   UNL     1       3.832   6.896  17.502  0.00  0.00    +0.000 A 
ENDBRANCH  18  19
ENDBRANCH   2  18
BRANCH   2  25
ATOM     25  C   UNL     1       3.263   3.001  17.890  0.00  0.00    +0.000 C 
BRANCH  25  26
ATOM     26  C   UNL     1       2.580   2.984  19.247  0.00  0.00    +0.000 A 
ATOM     27  C   UNL     1       1.208   3.276  19.346  0.00  0.00    +0.000 A 
ATOM     28  C   UNL     1       0.536   3.162  20.568  0.00  0.00    +0.000 A 
ATOM     29  C   UNL     1       1.222   2.750  21.707  0.00  0.00    +0.000 A 
ATOM     30  C   UNL     1       2.579   2.452  21.624  0.00  0.00    +0.000 A 
ATOM     31  C   UNL     1       3.250   2.562  20.402  0.00  0.00    +0.000 A 
ENDBRANCH  25  26
ENDBRANCH   2  25
TORSDOF 8
ENDMDL
MODEL 4
REMARK VINA RESULT:      -8.2      1.124      4.076
REMARK  Name = 
REMARK  8 active torsions:
REMARK  status: ('A' for Active; 'I' for Inactive)
REMARK    1  A    between atoms: C_2  and  N_3
REMARK    2  A    between atoms: C_2  and  N_20
REMARK    3  A    between atoms: N_3  and  N_4
REMARK    4  A    between atoms: C_5  and  C_6
REMARK    5  A    between atoms: C_5  and  C_13
REMARK    6  A    between atoms: C_6  and  C_7
REMARK    7  A    between atoms: C_13  and  C_14
REMARK    8  A    between atoms: C_24  and  C_25
REMARK                            x       y       z     vdW  Elec       q    Type
REMARK                         _______ _______ _______ _____ _____    ______ ____
ROOT
ATOM      1  N   UNL     1       5.005   7.058  17.402  0.00  0.00    +0.000 NA
ATOM      2  C   UNL     1       4.033   6.514  18.087  0.00  0.00    +0.000 C 
ENDROOT
BRANCH   1   3
ATOM      3  N   UNL     1       6.325   6.870  17.745  0.00  0.00    +0.000 N 
ATOM      4  H   UNL     1       6.838   7.653  18.139  0.00  0.00    +0.000 HD
BRANCH   3   6
ATOM      5  S   UNL     1       7.827   4.640  18.063  0.00  0.00    +0.000 S 
ATOM      6  C   UNL     1       7.030   5.832  17.176  0.00  0.00    +0.000 C 
BRANCH   6   7
ATOM      7  N   UNL     1       7.174   5.765  15.822  0.00  0.00    +0.000 N 
ATOM      8  C   UNL     1       6.437   5.017  14.949  0.00  0.00    +0.000 A 
ATOM      9  N   UNL     1       5.308   4.364  15.116  0.00  0.00    +0.000 NA
ATOM     10  C   UNL     1       5.171   3.656  13.942  0.00  0.00    +0.000 A 
ATOM     11  C   UNL     1       6.208   3.935  13.081  0.00  0.00    +0.000 A 
ATOM     12  O   UNL     1       7.016   4.844  13.714  0.00  0.00    +0.000 OA
ATOM     13  H   UNL     1       8.101   5.976  15.479  0.00  0.00    +0.000 HD
BRANCH  11  14
ATOM     14  C   UNL     1       6.443   3.276  11.723  0.00  0.00    +0.000 C 
ATOM     15  C   UNL     1       7.664   2.306  11.648  0.00  0.00    +0.000 C 
ATOM     16  C   UNL     1       6.817   1.427  10.704  0.00  0.00    +0.000 C 
ATOM     17  C   UNL     1       5.588   2.004  11.431  0.00  0.00    +0.000 C 
ENDBRANCH  11  14
ENDBRANCH   6   7
ENDBRANCH   3   6
ENDBRANCH   1   3
BRANCH   2  18
ATOM     18  C   UNL     1       4.185   5.504  19.209  0.00  0.00    +0.000 C 
BRANCH  18  19
ATOM     19  C   UNL     1       3.082   4.473  19.300  0.00  0.00    +0.000 A 
ATOM     20  C   UNL     1       2.208   4.486  20.400  0.00  0.00    +0.000 A 
ATOM     21  C   UNL     1       1.107   3.626  20.450  0.00  0.00    +0.000 A 
ATOM     22  C   UNL     1       0.858   2.750  19.399  0.00  0.00    +0.000 A 
ATOM     23  C   UNL     1       1.724   2.715  18.311  0.00  0.00    +0.000 A 
ATOM     24  C   UNL     1       2.832   3.561  18.266  0.00  0.00    +0.000 A 
ENDBRANCH  18  19
ENDBRANCH   2  18
BRANCH   2  25
ATOM     25  C   UNL     1       2.602   6.883  17.686  0.00  0.00    +0.000 C 
BRANCH  25  26
ATOM     26  C   UNL     1       1.979   8.029  18.464  0.00  0.00    +0.000 A 
ATOM     27  C   UNL     1       1.771   7.906  19.849  0.00  0.00    +0.000 A 
ATOM     28  C   UNL     1       1.299   8.987  20.604  0.00  0.00    +0.000 A 
ATOM     29  C   UNL     1       1.032  10.205  19.987  0.00  0.00    +0.000 A 
ATOM     30  C   UNL     1       1.238  10.345  18.617  0.00  0.00    +0.000 A 
ATOM     31  C   UNL     1       1.714   9.267  17.864  0.00  0.00    +0.000 A 
ENDBRANCH  25  26
ENDBRANCH   2  25
TORSDOF 8
ENDMDL
MODEL 5
REMARK VINA RESULT:      -8.1      4.288      9.022
REMARK  Name = 
REMARK  8 active torsions:
REMARK  status: ('A' for Active; 'I' for Inactive)
REMARK    1  A    between atoms: C_2  and  N_3
REMARK    2  A    between atoms: C_2  and  N_20
REMARK    3  A    between atoms: N_3  and  N_4
REMARK    4  A    between atoms: C_5  and  C_6
REMARK    5  A    between atoms: C_5  and  C_13
REMARK    6  A    between atoms: C_6  and  C_7
REMARK    7  A    between atoms: C_13  and  C_14
REMARK    8  A    between atoms: C_24  and  C_25
REMARK                            x       y       z     vdW  Elec       q    Type
REMARK                         _______ _______ _______ _____ _____    ______ ____
ROOT
ATOM      1  N   UNL     1       2.723   8.101  18.265  0.00  0.00    +0.000 NA
ATOM      2  C   UNL     1       2.942   6.811  18.243  0.00  0.00    +0.000 C 
ENDROOT
BRANCH   1   3
ATOM      3  N   UNL     1       1.543   8.641  17.805  0.00  0.00    +0.000 N 
ATOM      4  H   UNL     1       1.128   8.250  16.965  0.00  0.00    +0.000 HD
BRANCH   3   6
ATOM      5  S   UNL     1       2.201  11.254  18.064  0.00  0.00    +0.000 S 
ATOM      6  C   UNL     1       1.186   9.914  18.192  0.00  0.00    +0.000 C 
BRANCH   6   7
ATOM      7  N   UNL     1      -0.024  10.135  18.780  0.00  0.00    +0.000 N 
ATOM      8  C   UNL     1      -1.238  10.224  18.162  0.00  0.00    +0.000 A 
ATOM      9  N   UNL     1      -1.605   9.919  16.938  0.00  0.00    +0.000 NA
ATOM     10  C   UNL     1      -2.891  10.405  16.858  0.00  0.00    +0.000 A 
ATOM     11  C   UNL     1      -3.279  10.957  18.057  0.00  0.00    +0.000 A 
ATOM     12  O   UNL     1      -2.223  10.813  18.920  0.00  0.00    +0.000 OA
ATOM     13  H   UNL     1       0.013  10.634  19.659  0.00  0.00    +0.000 HD
BRANCH  11  14
ATOM     14  C   UNL     1      -4.602  11.672  18.325  0.00  0.00    +0.000 C 
ATOM     15  C   UNL     1      -5.395  12.119  17.057  0.00  0.00    +0.000 C 
ATOM     16  C   UNL     1      -6.685  11.768  17.827  0.00  0.00    +0.000 C 
ATOM     17  C   UNL     1      -5.828  10.747  18.599  0.00  0.00    +0.000 C 
ENDBRANCH  11  14
ENDBRANCH   6   7
ENDBRANCH   3   6
ENDBRANCH   1   3
BRANCH   2  18
ATOM     18  C   UNL     1       1.931   5.737  17.888  0.00  0.00    +0.000 C 
BRANCH  18  19
ATOM     19  C   UNL     1       1.928   4.530  18.799  0.00  0.00    +0.000 A 
ATOM     20  C   UNL     1       1.474   4.658  20.123  0.00  0.00    +0.000 A 
ATOM     21  C   UNL     1       1.344   3.537  20.947  0.00  0.00    +0.000 A 
ATOM     22  C   UNL     1       1.654   2.272  20.458  0.00  0.00    +0.000 A 
ATOM     23  C   UNL     1       2.119   2.131  19.155  0.00  0.00    +0.000 A 
ATOM     24  C   UNL     1       2.265   3.251  18.335  0.00  0.00    +0.000 A 
ENDBRANCH  18  19
ENDBRANCH   2  18
BRANCH   2  25
ATOM     25  C   UNL     1       4.331   6.330  18.671  0.00  0.00    +0.000 C 
BRANCH  25  26
ATOM     26  C   UNL     1       5.231   5.846  17.548  0.00  0.00    +0.000 A 
ATOM     27  C   UNL     1       6.321   5.005  17.834  0.00  0.00    +0.000 A 
ATOM     28  C   UNL     1       7.098   4.460  16.806  0.00  0.00    +0.000 A 
ATOM     29  C   UNL     1       6.796   4.744  15.477  0.00  0.00    +0.000 A 
ATOM     30  C   UNL     1       5.718   5.572  15.177  0.00  0.00    +0.000 A 
ATOM     31  C   UNL     1       4.938   6.112  16.204  0.00  0.00    +0.000 A 
ENDBRANCH  25  26
ENDBRANCH   2  25
TORSDOF 8
ENDMDL
MODEL 6
REMARK VINA RESULT:      -8.1      0.912      4.340
REMARK  Name = 
REMARK  8 active torsions:
REMARK  status: ('A' for Active; 'I' for Inactive)
REMARK    1  A    between atoms: C_2  and  N_3
REMARK    2  A    between atoms: C_2  and  N_20
REMARK    3  A    between atoms: N_3  and  N_4
REMARK    4  A    between atoms: C_5  and  C_6
REMARK    5  A    between atoms: C_5  and  C_13
REMARK    6  A    between atoms: C_6  and  C_7
REMARK    7  A    between atoms: C_13  and  C_14
REMARK    8  A    between atoms: C_24  and  C_25
REMARK                            x       y       z     vdW  Elec       q    Type
REMARK                         _______ _______ _______ _____ _____    ______ ____
ROOT
ATOM      1  N   UNL     1       4.148   6.485  17.981  0.00  0.00    +0.000 NA
ATOM      2  C   UNL     1       2.989   6.901  18.422  0.00  0.00    +0.000 C 
ENDROOT
BRANCH   1   3
ATOM      3  N   UNL     1       5.014   5.777  18.782  0.00  0.00    +0.000 N 
ATOM      4  H   UNL     1       5.008   5.961  19.781  0.00  0.00    +0.000 HD
BRANCH   3   6
ATOM      5  S   UNL     1       7.708   5.511  18.716  0.00  0.00    +0.000 S 
ATOM      6  C   UNL     1       6.128   5.191  18.222  0.00  0.00    +0.000 C 
BRANCH   6   7
ATOM      7  N   UNL     1       5.994   4.349  17.158  0.00  0.00    +0.000 N 
ATOM      8  C   UNL     1       6.514   4.511  15.906  0.00  0.00    +0.000 A 
ATOM      9  N   UNL     1       7.419   5.349  15.452  0.00  0.00    +0.000 NA
ATOM     10  C   UNL     1       7.377   5.158  14.088  0.00  0.00    +0.000 A 
ATOM     11  C   UNL     1       6.471   4.175  13.761  0.00  0.00    +0.000 A 
ATOM     12  O   UNL     1       5.930   3.726  14.938  0.00  0.00    +0.000 OA
ATOM     13  H   UNL     1       5.165   3.770  17.172  0.00  0.00    +0.000 HD
BRANCH  11  14
ATOM     14  C   UNL     1       6.088   3.749  12.345  0.00  0.00    +0.000 C 
ATOM     15  C   UNL     1       6.400   2.263  11.982  0.00  0.00    +0.000 C 
ATOM     16  C   UNL     1       5.093   2.264  11.161  0.00  0.00    +0.000 C 
ATOM     17  C   UNL     1       4.595   3.343  12.141  0.00  0.00    +0.000 C 
ENDBRANCH  11  14
ENDBRANCH   6   7
ENDBRANCH   3   6
ENDBRANCH   1   3
BRANCH   2  18
ATOM     18  C   UNL     1       2.362   6.551  19.759  0.00  0.00    +0.000 C 
BRANCH  18  19
ATOM     19  C   UNL     1       2.040   5.086  19.955  0.00  0.00    +0.000 A 
ATOM     20  C   UNL     1       2.160   4.512  21.232  0.00  0.00    +0.000 A 
ATOM     21  C   UNL     1       1.751   3.196  21.467  0.00  0.00    +0.000 A 
ATOM     22  C   UNL     1       1.208   2.439  20.435  0.00  0.00    +0.000 A 
ATOM     23  C   UNL     1       1.097   2.989  19.162  0.00  0.00    +0.000 A 
ATOM     24  C   UNL     1       1.518   4.297  18.921  0.00  0.00    +0.000 A 
ENDBRANCH  18  19
ENDBRANCH   2  18
BRANCH   2  25
ATOM     25  C   UNL     1       2.155   7.777  17.483  0.00  0.00    +0.000 C 
BRANCH  25  26
ATOM     26  C   UNL     1       1.686   9.099  18.064  0.00  0.00    +0.000 A 
ATOM     27  C   UNL     1       0.568   9.134  18.917  0.00  0.00    +0.000 A 
ATOM     28  C   UNL     1       0.183  10.322  19.548  0.00  0.00    +0.000 A 
ATOM     29  C   UNL     1       0.911  11.490  19.343  0.00  0.00    +0.000 A 
ATOM     30  C   UNL     1       2.024  11.471  18.506  0.00  0.00    +0.000 A 
ATOM     31  C   UNL     1       2.411  10.283  17.878  0.00  0.00    +0.000 A 
ENDBRANCH  25  26
ENDBRANCH   2  25
TORSDOF 8
ENDMDL
MODEL 7
REMARK VINA RESULT:      -8.1      0.787      4.072
REMARK  Name = 
REMARK  8 active torsions:
REMARK  status: ('A' for Active; 'I' for Inactive)
REMARK    1  A    between atoms: C_2  and  N_3
REMARK    2  A    between atoms: C_2  and  N_20
REMARK    3  A    between atoms: N_3  and  N_4
REMARK    4  A    between atoms: C_5  and  C_6
REMARK    5  A    between atoms: C_5  and  C_13
REMARK    6  A    between atoms: C_6  and  C_7
REMARK    7  A    between atoms: C_13  and  C_14
REMARK    8  A    between atoms: C_24  and  C_25
REMARK                            x       y       z     vdW  Elec       q    Type
REMARK                         _______ _______ _______ _____ _____    ______ ____
ROOT
ATOM      1  N   UNL     1       4.885   6.938  17.313  0.00  0.00    +0.000 NA
ATOM      2  C   UNL     1       4.020   6.292  18.051  0.00  0.00    +0.000 C 
ENDROOT
BRANCH   1   3
ATOM      3  N   UNL     1       6.241   6.804  17.505  0.00  0.00    +0.000 N 
ATOM      4  H   UNL     1       6.845   7.578  17.244  0.00  0.00    +0.000 HD
BRANCH   3   6
ATOM      5  S   UNL     1       7.833   5.080  18.855  0.00  0.00    +0.000 S 
ATOM      6  C   UNL     1       6.787   5.545  17.617  0.00  0.00    +0.000 C 
BRANCH   6   7
ATOM      7  N   UNL     1       6.548   4.608  16.655  0.00  0.00    +0.000 N 
ATOM      8  C   UNL     1       6.914   4.662  15.341  0.00  0.00    +0.000 A 
ATOM      9  N   UNL     1       7.742   5.464  14.711  0.00  0.00    +0.000 NA
ATOM     10  C   UNL     1       7.546   5.150  13.384  0.00  0.00    +0.000 A 
ATOM     11  C   UNL     1       6.628   4.133  13.255  0.00  0.00    +0.000 A 
ATOM     12  O   UNL     1       6.237   3.787  14.523  0.00  0.00    +0.000 OA
ATOM     13  H   UNL     1       5.738   4.025  16.819  0.00  0.00    +0.000 HD
BRANCH  11  14
ATOM     14  C   UNL     1       6.091   3.577  11.938  0.00  0.00    +0.000 C 
ATOM     15  C   UNL     1       6.179   2.026  11.776  0.00  0.00    +0.000 C 
ATOM     16  C   UNL     1       4.827   2.099  11.034  0.00  0.00    +0.000 C 
ATOM     17  C   UNL     1       4.547   3.360  11.874  0.00  0.00    +0.000 C 
ENDBRANCH  11  14
ENDBRANCH   6   7
ENDBRANCH   3   6
ENDBRANCH   1   3
BRANCH   2  18
ATOM     18  C   UNL     1       4.341   5.217  19.072  0.00  0.00    +0.000 C 
BRANCH  18  19
ATOM     19  C   UNL     1       3.173   4.345  19.478  0.00  0.00    +0.000 A 
ATOM     20  C   UNL     1       2.843   3.220  18.703  0.00  0.00    +0.000 A 
ATOM     21  C   UNL     1       1.851   2.328  19.121  0.00  0.00    +0.000 A 
ATOM     22  C   UNL     1       1.182   2.542  20.322  0.00  0.00    +0.000 A 
ATOM     23  C   UNL     1       1.487   3.660  21.091  0.00  0.00    +0.000 A 
ATOM     24  C   UNL     1       2.466   4.559  20.668  0.00  0.00    +0.000 A 
ENDBRANCH  18  19
ENDBRANCH   2  18
BRANCH   2  25
ATOM     25  C   UNL     1       2.538   6.603  17.826  0.00  0.00    +0.000 C 
BRANCH  25  26
ATOM     26  C   UNL     1       2.028   7.874  18.484  0.00  0.00    +0.000 A 
ATOM     27  C   UNL     1       1.739   9.004  17.699  0.00  0.00    +0.000 A 
ATOM     28  C   UNL     1       1.168  10.147  18.269  0.00  0.00    +0.000 A 
ATOM     29  C   UNL     1       0.874  10.177  19.629  0.00  0.00    +0.000 A 
ATOM     30  C   UNL     1       1.150   9.065  20.419  0.00  0.00    +0.000 A 
ATOM     31  C   UNL     1       1.716   7.921  19.849  0.00  0.00    +0.000 A 
ENDBRANCH  25  26
ENDBRANCH   2  25
TORSDOF 8
ENDMDL
MODEL 8
REMARK VINA RESULT:      -8.1      4.503      9.010
REMARK  Name = 
REMARK  8 active torsions:
REMARK  status: ('A' for Active; 'I' for Inactive)
REMARK    1  A    between atoms: C_2  and  N_3
REMARK    2  A    between atoms: C_2  and  N_20
REMARK    3  A    between atoms: N_3  and  N_4
REMARK    4  A    between atoms: C_5  and  C_6
REMARK    5  A    between atoms: C_5  and  C_13
REMARK    6  A    between atoms: C_6  and  C_7
REMARK    7  A    between atoms: C_13  and  C_14
REMARK    8  A    between atoms: C_24  and  C_25
REMARK                            x       y       z     vdW  Elec       q    Type
REMARK                         _______ _______ _______ _____ _____    ______ ____
ROOT
ATOM      1  N   UNL     1       2.068   7.848  18.528  0.00  0.00    +0.000 NA
ATOM      2  C   UNL     1       3.183   7.214  18.271  0.00  0.00    +0.000 C 
ENDROOT
BRANCH   1   3
ATOM      3  N   UNL     1       1.708   8.984  17.841  0.00  0.00    +0.000 N 
ATOM      4  H   UNL     1       2.377   9.390  17.193  0.00  0.00    +0.000 HD
BRANCH   3   6
ATOM      5  S   UNL     1       0.692  10.462  19.869  0.00  0.00    +0.000 S 
ATOM      6  C   UNL     1       0.692   9.776  18.329  0.00  0.00    +0.000 C 
BRANCH   6   7
ATOM      7  N   UNL     1      -0.429   9.987  17.581  0.00  0.00    +0.000 N 
ATOM      8  C   UNL     1      -1.525  10.725  17.926  0.00  0.00    +0.000 A 
ATOM      9  N   UNL     1      -1.716  11.573  18.911  0.00  0.00    +0.000 NA
ATOM     10  C   UNL     1      -3.065  11.842  18.846  0.00  0.00    +0.000 A 
ATOM     11  C   UNL     1      -3.645  11.173  17.792  0.00  0.00    +0.000 A 
ATOM     12  O   UNL     1      -2.645  10.472  17.168  0.00  0.00    +0.000 OA
ATOM     13  H   UNL     1      -0.633   9.265  16.903  0.00  0.00    +0.000 HD
BRANCH  11  14
ATOM     14  C   UNL     1      -5.135  11.155  17.456  0.00  0.00    +0.000 C 
ATOM     15  C   UNL     1      -6.087  10.788  18.638  0.00  0.00    +0.000 C 
ATOM     16  C   UNL     1      -7.085  11.814  18.059  0.00  0.00    +0.000 C 
ATOM     17  C   UNL     1      -5.852  12.541  17.488  0.00  0.00    +0.000 C 
ENDBRANCH  11  14
ENDBRANCH   6   7
ENDBRANCH   3   6
ENDBRANCH   1   3
BRANCH   2  18
ATOM     18  C   UNL     1       4.134   7.505  17.125  0.00  0.00    +0.000 C 
BRANCH  18  19
ATOM     19  C   UNL     1       5.230   6.483  16.923  0.00  0.00    +0.000 A 
ATOM     20  C   UNL     1       6.445   6.619  17.616  0.00  0.00    +0.000 A 
ATOM     21  C   UNL     1       7.426   5.625  17.544  0.00  0.00    +0.000 A 
ATOM     22  C   UNL     1       7.204   4.479  16.788  0.00  0.00    +0.000 A 
ATOM     23  C   UNL     1       6.013   4.338  16.083  0.00  0.00    +0.000 A 
ATOM     24  C   UNL     1       5.039   5.335  16.141  0.00  0.00    +0.000 A 
ENDBRANCH  18  19
ENDBRANCH   2  18
BRANCH   2  25
ATOM     25  C   UNL     1       3.539   6.029  19.173  0.00  0.00    +0.000 C 
BRANCH  25  26
ATOM     26  C   UNL     1       2.480   4.946  19.278  0.00  0.00    +0.000 A 
ATOM     27  C   UNL     1       2.164   4.161  18.155  0.00  0.00    +0.000 A 
ATOM     28  C   UNL     1       1.271   3.088  18.256  0.00  0.00    +0.000 A 
ATOM     29  C   UNL     1       0.685   2.781  19.480  0.00  0.00    +0.000 A 
ATOM     30  C   UNL     1       0.992   3.544  20.603  0.00  0.00    +0.000 A 
ATOM     31  C   UNL     1       1.887   4.613  20.503  0.00  0.00    +0.000 A 
ENDBRANCH  25  26
ENDBRANCH   2  25
TORSDOF 8
ENDMDL
MODEL 9
REMARK VINA RESULT:      -8.0      1.234      4.468
REMARK  Name = 
REMARK  8 active torsions:
REMARK  status: ('A' for Active; 'I' for Inactive)
REMARK    1  A    between atoms: C_2  and  N_3
REMARK    2  A    between atoms: C_2  and  N_20
REMARK    3  A    between atoms: N_3  and  N_4
REMARK    4  A    between atoms: C_5  and  C_6
REMARK    5  A    between atoms: C_5  and  C_13
REMARK    6  A    between atoms: C_6  and  C_7
REMARK    7  A    between atoms: C_13  and  C_14
REMARK    8  A    between atoms: C_24  and  C_25
REMARK                            x       y       z     vdW  Elec       q    Type
REMARK                         _______ _______ _______ _____ _____    ______ ____
ROOT
ATOM      1  N   UNL     1       3.886   7.612  17.365  0.00  0.00    +0.000 NA
ATOM      2  C   UNL     1       2.807   7.606  18.104  0.00  0.00    +0.000 C 
ENDROOT
BRANCH   1   3
ATOM      3  N   UNL     1       5.096   7.167  17.848  0.00  0.00    +0.000 N 
ATOM      4  H   UNL     1       5.891   7.798  17.812  0.00  0.00    +0.000 HD
BRANCH   3   6
ATOM      5  S   UNL     1       6.023   5.080  19.302  0.00  0.00    +0.000 S 
ATOM      6  C   UNL     1       5.325   5.813  17.954  0.00  0.00    +0.000 C 
BRANCH   6   7
ATOM      7  N   UNL     1       5.049   4.990  16.902  0.00  0.00    +0.000 N 
ATOM      8  C   UNL     1       5.851   4.721  15.830  0.00  0.00    +0.000 A 
ATOM      9  N   UNL     1       7.123   4.978  15.622  0.00  0.00    +0.000 NA
ATOM     10  C   UNL     1       7.305   4.643  14.299  0.00  0.00    +0.000 A 
ATOM     11  C   UNL     1       6.139   4.153  13.755  0.00  0.00    +0.000 A 
ATOM     12  O   UNL     1       5.199   4.169  14.753  0.00  0.00    +0.000 OA
ATOM     13  H   UNL     1       4.065   4.865  16.704  0.00  0.00    +0.000 HD
BRANCH  11  14
ATOM     14  C   UNL     1       5.931   3.760  12.294  0.00  0.00    +0.000 C 
ATOM     15  C   UNL     1       6.285   2.282  11.936  0.00  0.00    +0.000 C 
ATOM     16  C   UNL     1       5.087   2.306  10.963  0.00  0.00    +0.000 C 
ATOM     17  C   UNL     1       4.474   3.364  11.900  0.00  0.00    +0.000 C 
ENDBRANCH  11  14
ENDBRANCH   6   7
ENDBRANCH   3   6
ENDBRANCH   1   3
BRANCH   2  18
ATOM     18  C   UNL     1       2.670   6.987  19.482  0.00  0.00    +0.000 C 
BRANCH  18  19
ATOM     19  C   UNL     1       2.154   5.565  19.501  0.00  0.00    +0.000 A 
ATOM     20  C   UNL     1       1.822   4.963  20.727  0.00  0.00    +0.000 A 
ATOM     21  C   UNL     1       1.227   3.698  20.765  0.00  0.00    +0.000 A 
ATOM     22  C   UNL     1       0.946   3.023  19.582  0.00  0.00    +0.000 A 
ATOM     23  C   UNL     1       1.283   3.601  18.362  0.00  0.00    +0.000 A 
ATOM     24  C   UNL     1       1.891   4.856  18.322  0.00  0.00    +0.000 A 
ENDBRANCH  18  19
ENDBRANCH   2  18
BRANCH   2  25
ATOM     25  C   UNL     1       1.544   8.229  17.504  0.00  0.00    +0.000 C 
BRANCH  25  26
ATOM     26  C   UNL     1       1.147   9.580  18.072  0.00  0.00    +0.000 A 
ATOM     27  C   UNL     1       2.105  10.603  18.188  0.00  0.00    +0.000 A 
ATOM     28  C   UNL     1       1.739  11.887  18.608  0.00  0.00    +0.000 A 
ATOM     29  C   UNL     1       0.411  12.169  18.912  0.00  0.00    +0.000 A 
ATOM     30  C   UNL     1      -0.551  11.170  18.798  0.00  0.00    +0.000 A 
ATOM     31  C   UNL     1      -0.186   9.888  18.374  0.00  0.00    +0.000 A 
ENDBRANCH  25  26
ENDBRANCH   2  25
TORSDOF 8
ENDMDL
