MODEL 1
REMARK VINA RESULT:      -9.1      0.000      0.000
REMARK  Name = 
REMARK  7 active torsions:
REMARK  status: ('A' for Active; 'I' for Inactive)
REMARK    1  A    between atoms: C_2  and  C_3
REMARK    2  A    between atoms: C_3  and  C_4
REMARK    3  A    between atoms: C_4  and  N_5
REMARK    4  A    between atoms: N_14  and  C_15
REMARK    5  A    between atoms: C_15  and  C_16
REMARK    6  A    between atoms: N_24  and  C_25
REMARK    7  A    between atoms: C_25  and  C_26
REMARK                            x       y       z     vdW  Elec       q    Type
REMARK                         _______ _______ _______ _____ _____    ______ ____
ROOT
ATOM      1  N   UNL     1       1.153   9.035  20.146  0.00  0.00    +0.000 N 
ATOM      2  C   UNL     1       0.800   9.231  21.470  0.00  0.00    +0.000 A 
ATOM      3  O   UNL     1       1.293   8.609  22.413  0.00  0.00    +0.000 OA
ATOM      4  C   UNL     1      -0.206  10.267  21.738  0.00  0.00    +0.000 A 
ATOM      5  C   UNL     1      -0.662  10.457  23.052  0.00  0.00    +0.000 A 
ATOM      6  C   UNL     1      -1.614  11.431  23.324  0.00  0.00    +0.000 A 
ATOM      7  C   UNL     1      -2.104  12.218  22.286  0.00  0.00    +0.000 A 
ATOM      8  C   UNL     1      -1.643  12.027  20.976  0.00  0.00    +0.000 A 
ATOM      9  C   UNL     1      -0.687  11.041  20.681  0.00  0.00    +0.000 A 
ATOM     10  N   UNL     1      -0.176  10.832  19.369  0.00  0.00    +0.000 N 
ATOM     11  C   UNL     1       0.801   9.879  19.103  0.00  0.00    +0.000 A 
ATOM     12  O   UNL     1       1.341   9.794  17.998  0.00  0.00    +0.000 OA
ENDROOT
BRANCH   1  13
ATOM     13  C   UNL     1       2.087   7.954  19.848  0.00  0.00    +0.000 C 
BRANCH  13  14
ATOM     14  C   UNL     1       1.583   6.612  20.350  0.00  0.00    +0.000 C 
BRANCH  14  16
ATOM     15  O   UNL     1       1.723   4.777  18.787  0.00  0.00    +0.000 OA
ATOM     16  C   UNL     1       2.278   5.491  19.611  0.00  0.00    +0.000 C 
ATOM     17  N   UNL     1       3.587   5.354  19.986  0.00  0.00    +0.000 N 
ATOM     18  H   UNL     1       3.949   5.926  20.738  0.00  0.00    +0.000 HD
BRANCH  17  19
ATOM     19  C   UNL     1       4.380   4.234  19.554  0.00  0.00    +0.000 C 
BRANCH  19  20
ATOM     20  C   UNL     1       5.256   4.666  18.410  0.00  0.00    +0.000 A 
ATOM     21  C   UNL     1       6.418   5.441  18.632  0.00  0.00    +0.000 A 
ATOM     22  C   UNL     1       7.234   5.828  17.563  0.00  0.00    +0.000 A 
ATOM     23  C   UNL     1       6.863   5.424  16.299  0.00  0.00    +0.000 A 
ATOM     24  C   UNL     1       5.709   4.708  16.075  0.00  0.00    +0.000 A 
ATOM     25  C   UNL     1       4.877   4.330  17.100  0.00  0.00    +0.000 A 
ATOM     26  O   UNL     1       5.533   4.401  14.762  0.00  0.00    +0.000 OA
ATOM     27  C   UNL     1       6.837   4.753  14.258  0.00  0.00    +0.000 C 
ATOM     28  O   UNL     1       7.563   5.627  15.148  0.00  0.00    +0.000 OA
ENDBRANCH  19  20
ENDBRANCH  17  19
ENDBRANCH  14  16
ENDBRANCH  13  14
ENDBRANCH   1  13
BRANCH  10  29
ATOM     29  C   UNL     1      -0.633  11.637  18.235  0.00  0.00    +0.000 C 
BRANCH  29  30
ATOM     30  C   UNL     1      -1.889  11.144  17.561  0.00  0.00    +0.000 A 
ATOM     31  C   UNL     1      -1.930  10.070  16.666  0.00  0.00    +0.000 A 
ATOM     32  C   UNL     1      -3.122   9.745  16.025  0.00  0.00    +0.000 A 
ATOM     33  C   UNL     1      -4.250  10.488  16.323  0.00  0.00    +0.000 A 
ATOM     34  N   UNL     1      -4.269  11.492  17.224  0.00  0.00    +0.000 NA
ATOM     35  C   UNL     1      -3.095  11.787  17.827  0.00  0.00    +0.000 A 
ENDBRANCH  29  30
ENDBRANCH  10  29
TORSDOF 7
ENDMDL
MODEL 2
REMARK VINA RESULT:      -8.7      1.141      1.184
REMARK  Name = 
REMARK  7 active torsions:
REMARK  status: ('A' for Active; 'I' for Inactive)
REMARK    1  A    between atoms: C_2  and  C_3
REMARK    2  A    between atoms: C_3  and  C_4
REMARK    3  A    between atoms: C_4  and  N_5
REMARK    4  A    between atoms: N_14  and  C_15
REMARK    5  A    between atoms: C_15  and  C_16
REMARK    6  A    between atoms: N_24  and  C_25
REMARK    7  A    between atoms: C_25  and  C_26
REMARK                            x       y       z     vdW  Elec       q    Type
REMARK                         _______ _______ _______ _____ _____    ______ ____
ROOT
ATOM      1  N   UNL     1       0.900   8.962  20.565  0.00  0.00    +0.000 N 
ATOM      2  C   UNL     1       0.480   9.341  21.828  0.00  0.00    +0.000 A 
ATOM      3  O   UNL     1       0.844   8.789  22.868  0.00  0.00    +0.000 OA
ATOM      4  C   UNL     1      -0.432  10.490  21.902  0.00  0.00    +0.000 A 
ATOM      5  C   UNL     1      -0.954  10.871  23.147  0.00  0.00    +0.000 A 
ATOM      6  C   UNL     1      -1.820  11.954  23.236  0.00  0.00    +0.000 A 
ATOM      7  C   UNL     1      -2.157  12.658  22.085  0.00  0.00    +0.000 A 
ATOM      8  C   UNL     1      -1.631  12.275  20.843  0.00  0.00    +0.000 A 
ATOM      9  C   UNL     1      -0.761  11.177  20.733  0.00  0.00    +0.000 A 
ATOM     10  N   UNL     1      -0.186  10.771  19.496  0.00  0.00    +0.000 N 
ATOM     11  C   UNL     1       0.706   9.708  19.412  0.00  0.00    +0.000 A 
ATOM     12  O   UNL     1       1.308   9.446  18.368  0.00  0.00    +0.000 OA
ENDROOT
BRANCH   1  13
ATOM     13  C   UNL     1       1.738   7.772  20.460  0.00  0.00    +0.000 C 
BRANCH  13  14
ATOM     14  C   UNL     1       0.974   6.505  20.806  0.00  0.00    +0.000 C 
BRANCH  14  16
ATOM     15  O   UNL     1       2.564   4.766  21.331  0.00  0.00    +0.000 OA
ATOM     16  C   UNL     1       1.827   5.292  20.508  0.00  0.00    +0.000 C 
ATOM     17  N   UNL     1       1.696   4.869  19.214  0.00  0.00    +0.000 N 
ATOM     18  H   UNL     1       1.133   5.410  18.570  0.00  0.00    +0.000 HD
BRANCH  17  19
ATOM     19  C   UNL     1       2.555   3.854  18.664  0.00  0.00    +0.000 C 
BRANCH  19  20
ATOM     20  C   UNL     1       3.541   4.500  17.730  0.00  0.00    +0.000 A 
ATOM     21  C   UNL     1       3.656   5.907  17.647  0.00  0.00    +0.000 A 
ATOM     22  C   UNL     1       4.585   6.500  16.785  0.00  0.00    +0.000 A 
ATOM     23  C   UNL     1       5.377   5.663  16.029  0.00  0.00    +0.000 A 
ATOM     24  C   UNL     1       5.237   4.295  16.074  0.00  0.00    +0.000 A 
ATOM     25  C   UNL     1       4.321   3.683  16.895  0.00  0.00    +0.000 A 
ATOM     26  O   UNL     1       6.120   3.654  15.262  0.00  0.00    +0.000 OA
ATOM     27  C   UNL     1       6.993   4.755  14.944  0.00  0.00    +0.000 C 
ATOM     28  O   UNL     1       6.388   6.041  15.199  0.00  0.00    +0.000 OA
ENDBRANCH  19  20
ENDBRANCH  17  19
ENDBRANCH  14  16
ENDBRANCH  13  14
ENDBRANCH   1  13
BRANCH  10  29
ATOM     29  C   UNL     1      -0.483  11.478  18.248  0.00  0.00    +0.000 C 
BRANCH  29  30
ATOM     30  C   UNL     1      -1.748  11.048  17.550  0.00  0.00    +0.000 A 
ATOM     31  C   UNL     1      -1.832   9.956  16.680  0.00  0.00    +0.000 A 
ATOM     32  C   UNL     1      -3.023   9.690  16.012  0.00  0.00    +0.000 A 
ATOM     33  C   UNL     1      -4.110  10.510  16.258  0.00  0.00    +0.000 A 
ATOM     34  N   UNL     1      -4.091  11.535  17.134  0.00  0.00    +0.000 NA
ATOM     35  C   UNL     1      -2.918  11.772  17.765  0.00  0.00    +0.000 A 
ENDBRANCH  29  30
ENDBRANCH  10  29
TORSDOF 7
ENDMDL
MODEL 3
REMARK VINA RESULT:      -8.6      1.230      1.777
REMARK  Name = 
REMARK  7 active torsions:
REMARK  status: ('A' for Active; 'I' for Inactive)
REMARK    1  A    between atoms: C_2  and  C_3
REMARK    2  A    between atoms: C_3  and  C_4
REMARK    3  A    between atoms: C_4  and  N_5
REMARK    4  A    between atoms: N_14  and  C_15
REMARK    5  A    between atoms: C_15  and  C_16
REMARK    6  A    between atoms: N_24  and  C_25
REMARK    7  A    between atoms: C_25  and  C_26
REMARK                            x       y       z     vdW  Elec       q    Type
REMARK                         _______ _______ _______ _____ _____    ______ ____
ROOT
ATOM      1  N   UNL     1       1.018   8.938  20.369  0.00  0.00    +0.000 N 
ATOM      2  C   UNL     1       0.638   9.271  21.658  0.00  0.00    +0.000 A 
ATOM      3  O   UNL     1       1.053   8.699  22.667  0.00  0.00    +0.000 OA
ATOM      4  C   UNL     1      -0.297  10.395  21.799  0.00  0.00    +0.000 A 
ATOM      5  C   UNL     1      -0.779  10.729  23.073  0.00  0.00    +0.000 A 
ATOM      6  C   UNL     1      -1.665  11.788  23.226  0.00  0.00    +0.000 A 
ATOM      7  C   UNL     1      -2.062  12.516  22.109  0.00  0.00    +0.000 A 
ATOM      8  C   UNL     1      -1.574  12.180  20.838  0.00  0.00    +0.000 A 
ATOM      9  C   UNL     1      -0.685  11.108  20.663  0.00  0.00    +0.000 A 
ATOM     10  N   UNL     1      -0.148  10.750  19.394  0.00  0.00    +0.000 N 
ATOM     11  C   UNL     1       0.764   9.711  19.246  0.00  0.00    +0.000 A 
ATOM     12  O   UNL     1       1.331   9.493  18.173  0.00  0.00    +0.000 OA
ENDROOT
BRANCH   1  13
ATOM     13  C   UNL     1       1.878   7.771  20.198  0.00  0.00    +0.000 C 
BRANCH  13  14
ATOM     14  C   UNL     1       1.396   6.584  21.014  0.00  0.00    +0.000 C 
BRANCH  14  16
ATOM     15  O   UNL     1       1.552   4.190  20.743  0.00  0.00    +0.000 OA
ATOM     16  C   UNL     1       1.618   5.303  20.240  0.00  0.00    +0.000 C 
ATOM     17  N   UNL     1       1.921   5.535  18.927  0.00  0.00    +0.000 N 
ATOM     18  H   UNL     1       2.043   6.487  18.607  0.00  0.00    +0.000 HD
BRANCH  17  19
ATOM     19  C   UNL     1       2.357   4.475  18.057  0.00  0.00    +0.000 C 
BRANCH  19  20
ATOM     20  C   UNL     1       3.850   4.549  17.903  0.00  0.00    +0.000 A 
ATOM     21  C   UNL     1       4.473   4.265  16.665  0.00  0.00    +0.000 A 
ATOM     22  C   UNL     1       5.863   4.348  16.527  0.00  0.00    +0.000 A 
ATOM     23  C   UNL     1       6.592   4.717  17.636  0.00  0.00    +0.000 A 
ATOM     24  C   UNL     1       5.994   4.951  18.853  0.00  0.00    +0.000 A 
ATOM     25  C   UNL     1       4.635   4.858  19.026  0.00  0.00    +0.000 A 
ATOM     26  O   UNL     1       6.889   5.313  19.812  0.00  0.00    +0.000 OA
ATOM     27  C   UNL     1       8.042   5.553  18.983  0.00  0.00    +0.000 C 
ATOM     28  O   UNL     1       7.936   4.934  17.684  0.00  0.00    +0.000 OA
ENDBRANCH  19  20
ENDBRANCH  17  19
ENDBRANCH  14  16
ENDBRANCH  13  14
ENDBRANCH   1  13
BRANCH  10  29
ATOM     29  C   UNL     1      -0.508  11.485  18.180  0.00  0.00    +0.000 C 
BRANCH  29  30
ATOM     30  C   UNL     1      -1.790  11.047  17.518  0.00  0.00    +0.000 A 
ATOM     31  C   UNL     1      -1.895   9.947  16.660  0.00  0.00    +0.000 A 
ATOM     32  C   UNL     1      -3.103   9.674  16.026  0.00  0.00    +0.000 A 
ATOM     33  C   UNL     1      -4.185  10.494  16.294  0.00  0.00    +0.000 A 
ATOM     34  N   UNL     1      -4.144  11.527  17.161  0.00  0.00    +0.000 NA
ATOM     35  C   UNL     1      -2.956  11.771  17.758  0.00  0.00    +0.000 A 
ENDBRANCH  29  30
ENDBRANCH  10  29
TORSDOF 7
ENDMDL
MODEL 4
REMARK VINA RESULT:      -8.6      2.291      8.869
REMARK  Name = 
REMARK  7 active torsions:
REMARK  status: ('A' for Active; 'I' for Inactive)
REMARK    1  A    between atoms: C_2  and  C_3
REMARK    2  A    between atoms: C_3  and  C_4
REMARK    3  A    between atoms: C_4  and  N_5
REMARK    4  A    between atoms: N_14  and  C_15
REMARK    5  A    between atoms: C_15  and  C_16
REMARK    6  A    between atoms: N_24  and  C_25
REMARK    7  A    between atoms: C_25  and  C_26
REMARK                            x       y       z     vdW  Elec       q    Type
REMARK                         _______ _______ _______ _____ _____    ______ ____
ROOT
ATOM      1  N   UNL     1       1.971   7.242  19.636  0.00  0.00    +0.000 N 
ATOM      2  C   UNL     1       1.467   6.246  20.454  0.00  0.00    +0.000 A 
ATOM      3  O   UNL     1       0.553   6.416  21.263  0.00  0.00    +0.000 OA
ATOM      4  C   UNL     1       2.059   4.909  20.306  0.00  0.00    +0.000 A 
ATOM      5  C   UNL     1       1.644   3.878  21.162  0.00  0.00    +0.000 A 
ATOM      6  C   UNL     1       2.194   2.608  21.038  0.00  0.00    +0.000 A 
ATOM      7  C   UNL     1       3.151   2.369  20.057  0.00  0.00    +0.000 A 
ATOM      8  C   UNL     1       3.559   3.402  19.202  0.00  0.00    +0.000 A 
ATOM      9  C   UNL     1       3.020   4.694  19.317  0.00  0.00    +0.000 A 
ATOM     10  N   UNL     1       3.390   5.763  18.454  0.00  0.00    +0.000 N 
ATOM     11  C   UNL     1       2.815   7.026  18.557  0.00  0.00    +0.000 A 
ATOM     12  O   UNL     1       3.033   7.908  17.724  0.00  0.00    +0.000 OA
ENDROOT
BRANCH   1  13
ATOM     13  C   UNL     1       1.458   8.595  19.824  0.00  0.00    +0.000 C 
BRANCH  13  14
ATOM     14  C   UNL     1       1.441   8.999  21.288  0.00  0.00    +0.000 C 
BRANCH  14  16
ATOM     15  O   UNL     1       0.335  10.721  22.568  0.00  0.00    +0.000 OA
ATOM     16  C   UNL     1       0.522  10.183  21.485  0.00  0.00    +0.000 C 
ATOM     17  N   UNL     1      -0.090  10.566  20.323  0.00  0.00    +0.000 N 
ATOM     18  H   UNL     1       0.049  10.016  19.485  0.00  0.00    +0.000 HD
BRANCH  17  19
ATOM     19  C   UNL     1      -1.146  11.544  20.315  0.00  0.00    +0.000 C 
BRANCH  19  20
ATOM     20  C   UNL     1      -2.014  11.319  19.109  0.00  0.00    +0.000 A 
ATOM     21  C   UNL     1      -3.309  11.882  19.025  0.00  0.00    +0.000 A 
ATOM     22  C   UNL     1      -4.107  11.678  17.894  0.00  0.00    +0.000 A 
ATOM     23  C   UNL     1      -3.582  10.915  16.874  0.00  0.00    +0.000 A 
ATOM     24  C   UNL     1      -2.340  10.328  16.971  0.00  0.00    +0.000 A 
ATOM     25  C   UNL     1      -1.541  10.493  18.076  0.00  0.00    +0.000 A 
ATOM     26  O   UNL     1      -2.006   9.628  15.854  0.00  0.00    +0.000 OA
ATOM     27  C   UNL     1      -3.043  10.088  14.965  0.00  0.00    +0.000 C 
ATOM     28  O   UNL     1      -4.162  10.671  15.666  0.00  0.00    +0.000 OA
ENDBRANCH  19  20
ENDBRANCH  17  19
ENDBRANCH  14  16
ENDBRANCH  13  14
ENDBRANCH   1  13
BRANCH  10  29
ATOM     29  C   UNL     1       4.376   5.577  17.388  0.00  0.00    +0.000 C 
BRANCH  29  30
ATOM     30  C   UNL     1       5.765   6.072  17.702  0.00  0.00    +0.000 A 
ATOM     31  C   UNL     1       6.601   5.504  18.669  0.00  0.00    +0.000 A 
ATOM     32  C   UNL     1       7.833   6.087  18.950  0.00  0.00    +0.000 A 
ATOM     33  C   UNL     1       8.209   7.208  18.230  0.00  0.00    +0.000 A 
ATOM     34  N   UNL     1       7.461   7.751  17.248  0.00  0.00    +0.000 NA
ATOM     35  C   UNL     1       6.267   7.166  17.000  0.00  0.00    +0.000 A 
ENDBRANCH  29  30
ENDBRANCH  10  29
TORSDOF 7
ENDMDL
MODEL 5
REMARK VINA RESULT:      -8.5      2.307      9.061
REMARK  Name = 
REMARK  7 active torsions:
REMARK  status: ('A' for Active; 'I' for Inactive)
REMARK    1  A    between atoms: C_2  and  C_3
REMARK    2  A    between atoms: C_3  and  C_4
REMARK    3  A    between atoms: C_4  and  N_5
REMARK    4  A    between atoms: N_14  and  C_15
REMARK    5  A    between atoms: C_15  and  C_16
REMARK    6  A    between atoms: N_24  and  C_25
REMARK    7  A    between atoms: C_25  and  C_26
REMARK                            x       y       z     vdW  Elec       q    Type
REMARK                         _______ _______ _______ _____ _____    ______ ____
ROOT
ATOM      1  N   UNL     1       2.137   6.596  19.362  0.00  0.00    +0.000 N 
ATOM      2  C   UNL     1       1.607   5.397  19.804  0.00  0.00    +0.000 A 
ATOM      3  O   UNL     1       0.623   5.310  20.541  0.00  0.00    +0.000 OA
ATOM      4  C   UNL     1       2.261   4.171  19.327  0.00  0.00    +0.000 A 
ATOM      5  C   UNL     1       1.818   2.928  19.803  0.00  0.00    +0.000 A 
ATOM      6  C   UNL     1       2.426   1.758  19.365  0.00  0.00    +0.000 A 
ATOM      7  C   UNL     1       3.469   1.831  18.448  0.00  0.00    +0.000 A 
ATOM      8  C   UNL     1       3.906   3.075  17.972  0.00  0.00    +0.000 A 
ATOM      9  C   UNL     1       3.309   4.269  18.411  0.00  0.00    +0.000 A 
ATOM     10  N   UNL     1       3.707   5.550  17.935  0.00  0.00    +0.000 N 
ATOM     11  C   UNL     1       3.076   6.718  18.349  0.00  0.00    +0.000 A 
ATOM     12  O   UNL     1       3.328   7.810  17.833  0.00  0.00    +0.000 OA
ENDROOT
BRANCH   1  13
ATOM     13  C   UNL     1       1.557   7.828  19.889  0.00  0.00    +0.000 C 
BRANCH  13  14
ATOM     14  C   UNL     1       1.747   7.947  21.392  0.00  0.00    +0.000 C 
BRANCH  14  16
ATOM     15  O   UNL     1       1.017   9.531  23.061  0.00  0.00    +0.000 OA
ATOM     16  C   UNL     1       1.179   9.262  21.879  0.00  0.00    +0.000 C 
ATOM     17  N   UNL     1       0.850  10.100  20.849  0.00  0.00    +0.000 N 
ATOM     18  H   UNL     1       0.933   9.770  19.896  0.00  0.00    +0.000 HD
BRANCH  17  19
ATOM     19  C   UNL     1       0.120  11.319  21.075  0.00  0.00    +0.000 C 
BRANCH  19  20
ATOM     20  C   UNL     1      -1.005  11.410  20.082  0.00  0.00    +0.000 A 
ATOM     21  C   UNL     1      -2.145  12.207  20.339  0.00  0.00    +0.000 A 
ATOM     22  C   UNL     1      -3.182  12.295  19.405  0.00  0.00    +0.000 A 
ATOM     23  C   UNL     1      -3.046  11.582  18.233  0.00  0.00    +0.000 A 
ATOM     24  C   UNL     1      -1.960  10.771  17.999  0.00  0.00    +0.000 A 
ATOM     25  C   UNL     1      -0.934  10.647  18.905  0.00  0.00    +0.000 A 
ATOM     26  O   UNL     1      -2.014  10.167  16.782  0.00  0.00    +0.000 OA
ATOM     27  C   UNL     1      -3.093  10.916  16.191  0.00  0.00    +0.000 C 
ATOM     28  O   UNL     1      -3.900  11.602  17.172  0.00  0.00    +0.000 OA
ENDBRANCH  19  20
ENDBRANCH  17  19
ENDBRANCH  14  16
ENDBRANCH  13  14
ENDBRANCH   1  13
BRANCH  10  29
ATOM     29  C   UNL     1       4.785   5.698  16.954  0.00  0.00    +0.000 C 
BRANCH  29  30
ATOM     30  C   UNL     1       6.088   6.219  17.505  0.00  0.00    +0.000 A 
ATOM     31  C   UNL     1       6.831   5.579  18.503  0.00  0.00    +0.000 A 
ATOM     32  C   UNL     1       7.977   6.183  19.010  0.00  0.00    +0.000 A 
ATOM     33  C   UNL     1       8.367   7.401  18.482  0.00  0.00    +0.000 A 
ATOM     34  N   UNL     1       7.714   8.023  17.478  0.00  0.00    +0.000 NA
ATOM     35  C   UNL     1       6.602   7.414  17.008  0.00  0.00    +0.000 A 
ENDBRANCH  29  30
ENDBRANCH  10  29
TORSDOF 7
ENDMDL
MODEL 6
REMARK VINA RESULT:      -8.4      1.029      1.244
REMARK  Name = 
REMARK  7 active torsions:
REMARK  status: ('A' for Active; 'I' for Inactive)
REMARK    1  A    between atoms: C_2  and  C_3
REMARK    2  A    between atoms: C_3  and  C_4
REMARK    3  A    between atoms: C_4  and  N_5
REMARK    4  A    between atoms: N_14  and  C_15
REMARK    5  A    between atoms: C_15  and  C_16
REMARK    6  A    between atoms: N_24  and  C_25
REMARK    7  A    between atoms: C_25  and  C_26
REMARK                            x       y       z     vdW  Elec       q    Type
REMARK                         _______ _______ _______ _____ _____    ______ ____
ROOT
ATOM      1  N   UNL     1      -0.047   9.500  21.283  0.00  0.00    +0.000 N 
ATOM      2  C   UNL     1      -0.376  10.232  22.410  0.00  0.00    +0.000 A 
ATOM      3  O   UNL     1      -0.169   9.852  23.563  0.00  0.00    +0.000 OA
ATOM      4  C   UNL     1      -0.984  11.551  22.184  0.00  0.00    +0.000 A 
ATOM      5  C   UNL     1      -1.411  12.306  23.287  0.00  0.00    +0.000 A 
ATOM      6  C   UNL     1      -1.989  13.554  23.093  0.00  0.00    +0.000 A 
ATOM      7  C   UNL     1      -2.133  14.049  21.801  0.00  0.00    +0.000 A 
ATOM      8  C   UNL     1      -1.701  13.292  20.703  0.00  0.00    +0.000 A 
ATOM      9  C   UNL     1      -1.122  12.024  20.879  0.00  0.00    +0.000 A 
ATOM     10  N   UNL     1      -0.650  11.235  19.793  0.00  0.00    +0.000 N 
ATOM     11  C   UNL     1      -0.042  10.000  19.989  0.00  0.00    +0.000 A 
ATOM     12  O   UNL     1       0.490   9.384  19.063  0.00  0.00    +0.000 OA
ENDROOT
BRANCH   1  13
ATOM     13  C   UNL     1       0.479   8.153  21.482  0.00  0.00    +0.000 C 
BRANCH  13  14
ATOM     14  C   UNL     1       1.790   7.939  20.746  0.00  0.00    +0.000 C 
BRANCH  14  16
ATOM     15  O   UNL     1       1.208   5.598  20.824  0.00  0.00    +0.000 OA
ATOM     16  C   UNL     1       1.982   6.468  20.450  0.00  0.00    +0.000 C 
ATOM     17  N   UNL     1       3.126   6.225  19.741  0.00  0.00    +0.000 N 
ATOM     18  H   UNL     1       3.759   6.989  19.545  0.00  0.00    +0.000 HD
BRANCH  17  19
ATOM     19  C   UNL     1       3.602   4.885  19.518  0.00  0.00    +0.000 C 
BRANCH  19  20
ATOM     20  C   UNL     1       4.716   4.922  18.510  0.00  0.00    +0.000 A 
ATOM     21  C   UNL     1       6.057   5.136  18.908  0.00  0.00    +0.000 A 
ATOM     22  C   UNL     1       7.089   5.157  17.965  0.00  0.00    +0.000 A 
ATOM     23  C   UNL     1       6.749   4.959  16.644  0.00  0.00    +0.000 A 
ATOM     24  C   UNL     1       5.442   4.795  16.247  0.00  0.00    +0.000 A 
ATOM     25  C   UNL     1       4.403   4.789  17.147  0.00  0.00    +0.000 A 
ATOM     26  O   UNL     1       5.324   4.603  14.906  0.00  0.00    +0.000 OA
ATOM     27  C   UNL     1       6.708   4.381  14.575  0.00  0.00    +0.000 C 
ATOM     28  O   UNL     1       7.611   4.861  15.594  0.00  0.00    +0.000 OA
ENDBRANCH  19  20
ENDBRANCH  17  19
ENDBRANCH  14  16
ENDBRANCH  13  14
ENDBRANCH   1  13
BRANCH  10  29
ATOM     29  C   UNL     1      -0.753  11.703  18.409  0.00  0.00    +0.000 C 
BRANCH  29  30
ATOM     30  C   UNL     1      -1.953  11.201  17.647  0.00  0.00    +0.000 A 
ATOM     31  C   UNL     1      -1.913  10.154  16.719  0.00  0.00    +0.000 A 
ATOM     32  C   UNL     1      -3.056   9.821  16.000  0.00  0.00    +0.000 A 
ATOM     33  C   UNL     1      -4.220  10.526  16.252  0.00  0.00    +0.000 A 
ATOM     34  N   UNL     1      -4.318  11.500  17.180  0.00  0.00    +0.000 NA
ATOM     35  C   UNL     1      -3.190  11.805  17.861  0.00  0.00    +0.000 A 
ENDBRANCH  29  30
ENDBRANCH  10  29
TORSDOF 7
ENDMDL
MODEL 7
REMARK VINA RESULT:      -8.3      2.415      9.227
REMARK  Name = 
REMARK  7 active torsions:
REMARK  status: ('A' for Active; 'I' for Inactive)
REMARK    1  A    between atoms: C_2  and  C_3
REMARK    2  A    between atoms: C_3  and  C_4
REMARK    3  A    between atoms: C_4  and  N_5
REMARK    4  A    between atoms: N_14  and  C_15
REMARK    5  A    between atoms: C_15  and  C_16
REMARK    6  A    between atoms: N_24  and  C_25
REMARK    7  A    between atoms: C_25  and  C_26
REMARK                            x       y       z     vdW  Elec       q    Type
REMARK                         _______ _______ _______ _____ _____    ______ ____
ROOT
ATOM      1  N   UNL     1       1.972   7.306  19.710  0.00  0.00    +0.000 N 
ATOM      2  C   UNL     1       1.414   6.267  20.434  0.00  0.00    +0.000 A 
ATOM      3  O   UNL     1       0.498   6.408  21.246  0.00  0.00    +0.000 OA
ATOM      4  C   UNL     1       1.949   4.923  20.177  0.00  0.00    +0.000 A 
ATOM      5  C   UNL     1       1.478   3.841  20.937  0.00  0.00    +0.000 A 
ATOM      6  C   UNL     1       1.973   2.563  20.709  0.00  0.00    +0.000 A 
ATOM      7  C   UNL     1       2.931   2.367  19.719  0.00  0.00    +0.000 A 
ATOM      8  C   UNL     1       3.396   3.450  18.961  0.00  0.00    +0.000 A 
ATOM      9  C   UNL     1       2.913   4.750  19.183  0.00  0.00    +0.000 A 
ATOM     10  N   UNL     1       3.341   5.872  18.419  0.00  0.00    +0.000 N 
ATOM     11  C   UNL     1       2.821   7.145  18.625  0.00  0.00    +0.000 A 
ATOM     12  O   UNL     1       3.088   8.086  17.873  0.00  0.00    +0.000 OA
ENDROOT
BRANCH   1  13
ATOM     13  C   UNL     1       1.517   8.660  20.010  0.00  0.00    +0.000 C 
BRANCH  13  14
ATOM     14  C   UNL     1       1.430   8.913  21.505  0.00  0.00    +0.000 C 
BRANCH  14  16
ATOM     15  O   UNL     1       0.173  10.444  22.886  0.00  0.00    +0.000 OA
ATOM     16  C   UNL     1       0.570  10.128  21.772  0.00  0.00    +0.000 C 
ATOM     17  N   UNL     1       0.269  10.814  20.628  0.00  0.00    +0.000 N 
ATOM     18  H   UNL     1       0.562  10.441  19.734  0.00  0.00    +0.000 HD
BRANCH  17  19
ATOM     19  C   UNL     1      -0.690  11.887  20.624  0.00  0.00    +0.000 C 
BRANCH  19  20
ATOM     20  C   UNL     1      -1.686  11.651  19.523  0.00  0.00    +0.000 A 
ATOM     21  C   UNL     1      -1.330  10.935  18.356  0.00  0.00    +0.000 A 
ATOM     22  C   UNL     1      -2.265  10.709  17.341  0.00  0.00    +0.000 A 
ATOM     23  C   UNL     1      -3.537  11.206  17.525  0.00  0.00    +0.000 A 
ATOM     24  C   UNL     1      -3.875  11.942  18.639  0.00  0.00    +0.000 A 
ATOM     25  C   UNL     1      -2.974  12.198  19.643  0.00  0.00    +0.000 A 
ATOM     26  O   UNL     1      -5.179  12.328  18.632  0.00  0.00    +0.000 OA
ATOM     27  C   UNL     1      -5.664  11.512  17.548  0.00  0.00    +0.000 C 
ATOM     28  O   UNL     1      -4.604  11.022  16.699  0.00  0.00    +0.000 OA
ENDBRANCH  19  20
ENDBRANCH  17  19
ENDBRANCH  14  16
ENDBRANCH  13  14
ENDBRANCH   1  13
BRANCH  10  29
ATOM     29  C   UNL     1       4.332   5.733  17.350  0.00  0.00    +0.000 C 
BRANCH  29  30
ATOM     30  C   UNL     1       5.739   6.127  17.722  0.00  0.00    +0.000 A 
ATOM     31  C   UNL     1       6.488   5.506  18.728  0.00  0.00    +0.000 A 
ATOM     32  C   UNL     1       7.747   5.998  19.059  0.00  0.00    +0.000 A 
ATOM     33  C   UNL     1       8.235   7.082  18.352  0.00  0.00    +0.000 A 
ATOM     34  N   UNL     1       7.573   7.671  17.335  0.00  0.00    +0.000 NA
ATOM     35  C   UNL     1       6.351   7.174  17.038  0.00  0.00    +0.000 A 
ENDBRANCH  29  30
ENDBRANCH  10  29
TORSDOF 7
ENDMDL
MODEL 8
REMARK VINA RESULT:      -8.3      2.421      9.329
REMARK  Name = 
REMARK  7 active torsions:
REMARK  status: ('A' for Active; 'I' for Inactive)
REMARK    1  A    between atoms: C_2  and  C_3
REMARK    2  A    between atoms: C_3  and  C_4
REMARK    3  A    between atoms: C_4  and  N_5
REMARK    4  A    between atoms: N_14  and  C_15
REMARK    5  A    between atoms: C_15  and  C_16
REMARK    6  A    between atoms: N_24  and  C_25
REMARK    7  A    between atoms: C_25  and  C_26
REMARK                            x       y       z     vdW  Elec       q    Type
REMARK                         _______ _______ _______ _____ _____    ______ ____
ROOT
ATOM      1  N   UNL     1       2.002   6.363  19.375  0.00  0.00    +0.000 N 
ATOM      2  C   UNL     1       1.597   5.095  19.755  0.00  0.00    +0.000 A 
ATOM      3  O   UNL     1       0.646   4.872  20.507  0.00  0.00    +0.000 OA
ATOM      4  C   UNL     1       2.348   3.966  19.188  0.00  0.00    +0.000 A 
ATOM      5  C   UNL     1       2.035   2.661  19.597  0.00  0.00    +0.000 A 
ATOM      6  C   UNL     1       2.735   1.581  19.074  0.00  0.00    +0.000 A 
ATOM      7  C   UNL     1       3.741   1.806  18.140  0.00  0.00    +0.000 A 
ATOM      8  C   UNL     1       4.048   3.112  17.732  0.00  0.00    +0.000 A 
ATOM      9  C   UNL     1       3.356   4.216  18.256  0.00  0.00    +0.000 A 
ATOM     10  N   UNL     1       3.621   5.554  17.851  0.00  0.00    +0.000 N 
ATOM     11  C   UNL     1       2.897   6.632  18.350  0.00  0.00    +0.000 A 
ATOM     12  O   UNL     1       3.032   7.771  17.897  0.00  0.00    +0.000 OA
ENDROOT
BRANCH   1  13
ATOM     13  C   UNL     1       1.326   7.501  19.990  0.00  0.00    +0.000 C 
BRANCH  13  14
ATOM     14  C   UNL     1       1.931   7.863  21.336  0.00  0.00    +0.000 C 
BRANCH  14  16
ATOM     15  O   UNL     1       1.128   9.428  22.989  0.00  0.00    +0.000 OA
ATOM     16  C   UNL     1       1.370   9.182  21.815  0.00  0.00    +0.000 C 
ATOM     17  N   UNL     1       1.143  10.055  20.786  0.00  0.00    +0.000 N 
ATOM     18  H   UNL     1       1.286   9.747  19.833  0.00  0.00    +0.000 HD
BRANCH  17  19
ATOM     19  C   UNL     1       0.436  11.292  20.991  0.00  0.00    +0.000 C 
BRANCH  19  20
ATOM     20  C   UNL     1      -0.755  11.333  20.074  0.00  0.00    +0.000 A 
ATOM     21  C   UNL     1      -0.763  10.620  18.853  0.00  0.00    +0.000 A 
ATOM     22  C   UNL     1      -1.880  10.654  18.010  0.00  0.00    +0.000 A 
ATOM     23  C   UNL     1      -2.962  11.402  18.419  0.00  0.00    +0.000 A 
ATOM     24  C   UNL     1      -2.942  12.133  19.585  0.00  0.00    +0.000 A 
ATOM     25  C   UNL     1      -1.853  12.136  20.423  0.00  0.00    +0.000 A 
ATOM     26  O   UNL     1      -4.111  12.790  19.809  0.00  0.00    +0.000 OA
ATOM     27  C   UNL     1      -4.936  12.155  18.813  0.00  0.00    +0.000 C 
ATOM     28  O   UNL     1      -4.165  11.495  17.786  0.00  0.00    +0.000 OA
ENDBRANCH  19  20
ENDBRANCH  17  19
ENDBRANCH  14  16
ENDBRANCH  13  14
ENDBRANCH   1  13
BRANCH  10  29
ATOM     29  C   UNL     1       4.652   5.861  16.858  0.00  0.00    +0.000 C 
BRANCH  29  30
ATOM     30  C   UNL     1       5.968   6.333  17.422  0.00  0.00    +0.000 A 
ATOM     31  C   UNL     1       6.701   5.641  18.392  0.00  0.00    +0.000 A 
ATOM     32  C   UNL     1       7.862   6.201  18.917  0.00  0.00    +0.000 A 
ATOM     33  C   UNL     1       8.275   7.429  18.431  0.00  0.00    +0.000 A 
ATOM     34  N   UNL     1       7.633   8.102  17.454  0.00  0.00    +0.000 NA
ATOM     35  C   UNL     1       6.506   7.534  16.967  0.00  0.00    +0.000 A 
ENDBRANCH  29  30
ENDBRANCH  10  29
TORSDOF 7
ENDMDL
MODEL 9
REMARK VINA RESULT:      -8.3      2.789      9.782
REMARK  Name = 
REMARK  7 active torsions:
REMARK  status: ('A' for Active; 'I' for Inactive)
REMARK    1  A    between atoms: C_2  and  C_3
REMARK    2  A    between atoms: C_3  and  C_4
REMARK    3  A    between atoms: C_4  and  N_5
REMARK    4  A    between atoms: N_14  and  C_15
REMARK    5  A    between atoms: C_15  and  C_16
REMARK    6  A    between atoms: N_24  and  C_25
REMARK    7  A    between atoms: C_25  and  C_26
REMARK                            x       y       z     vdW  Elec       q    Type
REMARK                         _______ _______ _______ _____ _____    ______ ____
ROOT
ATOM      1  N   UNL     1       2.070   7.424  19.639  0.00  0.00    +0.000 N 
ATOM      2  C   UNL     1       1.461   6.449  20.408  0.00  0.00    +0.000 A 
ATOM      3  O   UNL     1       0.537   6.669  21.194  0.00  0.00    +0.000 OA
ATOM      4  C   UNL     1       1.948   5.074  20.236  0.00  0.00    +0.000 A 
ATOM      5  C   UNL     1       1.424   4.054  21.045  0.00  0.00    +0.000 A 
ATOM      6  C   UNL     1       1.874   2.748  20.897  0.00  0.00    +0.000 A 
ATOM      7  C   UNL     1       2.840   2.461  19.939  0.00  0.00    +0.000 A 
ATOM      8  C   UNL     1       3.359   3.483  19.130  0.00  0.00    +0.000 A 
ATOM      9  C   UNL     1       2.922   4.810  19.271  0.00  0.00    +0.000 A 
ATOM     10  N   UNL     1       3.405   5.871  18.455  0.00  0.00    +0.000 N 
ATOM     11  C   UNL     1       2.930   7.172  18.580  0.00  0.00    +0.000 A 
ATOM     12  O   UNL     1       3.246   8.059  17.783  0.00  0.00    +0.000 OA
ENDROOT
BRANCH   1  13
ATOM     13  C   UNL     1       1.661   8.809  19.854  0.00  0.00    +0.000 C 
BRANCH  13  14
ATOM     14  C   UNL     1       0.752   9.313  18.747  0.00  0.00    +0.000 C 
BRANCH  14  16
ATOM     15  O   UNL     1       0.225  11.106  20.275  0.00  0.00    +0.000 OA
ATOM     16  C   UNL     1       0.124  10.627  19.154  0.00  0.00    +0.000 C 
ATOM     17  N   UNL     1      -0.586  11.202  18.136  0.00  0.00    +0.000 N 
ATOM     18  H   UNL     1      -0.696  10.701  17.263  0.00  0.00    +0.000 HD
BRANCH  17  19
ATOM     19  C   UNL     1      -1.420  12.354  18.357  0.00  0.00    +0.000 C 
BRANCH  19  20
ATOM     20  C   UNL     1      -2.862  11.940  18.264  0.00  0.00    +0.000 A 
ATOM     21  C   UNL     1      -3.373  11.325  17.097  0.00  0.00    +0.000 A 
ATOM     22  C   UNL     1      -4.714  10.932  17.023  0.00  0.00    +0.000 A 
ATOM     23  C   UNL     1      -5.507  11.164  18.126  0.00  0.00    +0.000 A 
ATOM     24  C   UNL     1      -5.025  11.801  19.246  0.00  0.00    +0.000 A 
ATOM     25  C   UNL     1      -3.719  12.217  19.342  0.00  0.00    +0.000 A 
ATOM     26  O   UNL     1      -5.964  11.921  20.222  0.00  0.00    +0.000 OA
ATOM     27  C   UNL     1      -6.973  11.040  19.692  0.00  0.00    +0.000 C 
ATOM     28  O   UNL     1      -6.806  10.783  18.281  0.00  0.00    +0.000 OA
ENDBRANCH  19  20
ENDBRANCH  17  19
ENDBRANCH  14  16
ENDBRANCH  13  14
ENDBRANCH   1  13
BRANCH  10  29
ATOM     29  C   UNL     1       4.408   5.637  17.414  0.00  0.00    +0.000 C 
BRANCH  29  30
ATOM     30  C   UNL     1       5.809   6.073  17.760  0.00  0.00    +0.000 A 
ATOM     31  C   UNL     1       6.583   5.497  18.774  0.00  0.00    +0.000 A 
ATOM     32  C   UNL     1       7.833   6.027  19.079  0.00  0.00    +0.000 A 
ATOM     33  C   UNL     1       8.288   7.104  18.338  0.00  0.00    +0.000 A 
ATOM     34  N   UNL     1       7.601   7.650  17.314  0.00  0.00    +0.000 NA
ATOM     35  C   UNL     1       6.389   7.117  17.043  0.00  0.00    +0.000 A 
ENDBRANCH  29  30
ENDBRANCH  10  29
TORSDOF 7
ENDMDL
