MODEL 1
REMARK VINA RESULT:      -5.9      0.000      0.000
REMARK  Name = 
REMARK  5 active torsions:
REMARK  status: ('A' for Active; 'I' for Inactive)
REMARK    1  A    between atoms: C_1  and  N_2
REMARK    2  A    between atoms: N_2  and  C_3
REMARK    3  A    between atoms: C_3  and  C_4
REMARK    4  A    between atoms: C_4  and  O_5
REMARK    5  A    between atoms: O_5  and  C_6
REMARK                            x       y       z     vdW  Elec       q    Type
REMARK                         _______ _______ _______ _____ _____    ______ ____
ROOT
ATOM      1  O   UNL     1       3.384   3.200  18.486  0.00  0.00    +0.000 OA
ENDROOT
BRANCH   1   2
ATOM      2  C   UNL     1       4.545   3.693  17.945  0.00  0.00    +0.000 A 
ATOM      3  C   UNL     1       5.519   4.161  18.821  0.00  0.00    +0.000 A 
ATOM      4  N   UNL     1       6.722   4.652  18.436  0.00  0.00    +0.000 NA
ATOM      5  C   UNL     1       6.961   4.691  17.100  0.00  0.00    +0.000 A 
ATOM      6  C   UNL     1       6.045   4.276  16.151  0.00  0.00    +0.000 A 
ATOM      7 BR   UNL     1       6.440   4.368  14.310  0.00  0.00    +0.000 Br
ATOM      8  C   UNL     1       4.816   3.779  16.579  0.00  0.00    +0.000 A 
ENDBRANCH   1   2
BRANCH   1   9
ATOM      9  C   UNL     1       3.437   3.090  19.918  0.00  0.00    +0.000 C 
BRANCH   9  10
ATOM     10  C   UNL     1       2.226   3.695  20.632  0.00  0.00    +0.000 C 
ATOM     11  C   UNL     1       1.461   2.794  21.586  0.00  0.00    +0.000 C 
ATOM     12  C   UNL     1       0.823   3.235  20.299  0.00  0.00    +0.000 C 
BRANCH  10  14
ATOM     13  C   UNL     1       2.235   6.098  20.042  0.00  0.00    +0.000 C 
ATOM     14  N   UNL     1       2.418   5.101  21.093  0.00  0.00    +0.000 NA
ATOM     15  H   UNL     1       1.786   5.318  21.864  0.00  0.00    +0.000 HD
ENDBRANCH  10  14
ENDBRANCH   9  10
ENDBRANCH   1   9
TORSDOF 4
ENDMDL
MODEL 2
REMARK VINA RESULT:      -5.8      1.564      2.095
REMARK  Name = 
REMARK  5 active torsions:
REMARK  status: ('A' for Active; 'I' for Inactive)
REMARK    1  A    between atoms: C_1  and  N_2
REMARK    2  A    between atoms: N_2  and  C_3
REMARK    3  A    between atoms: C_3  and  C_4
REMARK    4  A    between atoms: C_4  and  O_5
REMARK    5  A    between atoms: O_5  and  C_6
REMARK                            x       y       z     vdW  Elec       q    Type
REMARK                         _______ _______ _______ _____ _____    ______ ____
ROOT
ATOM      1  O   UNL     1       4.082   5.286  19.580  0.00  0.00    +0.000 OA
ENDROOT
BRANCH   1   2
ATOM      2  C   UNL     1       5.158   5.071  18.755  0.00  0.00    +0.000 A 
ATOM      3  C   UNL     1       6.430   5.207  19.301  0.00  0.00    +0.000 A 
ATOM      4  N   UNL     1       7.582   5.002  18.618  0.00  0.00    +0.000 NA
ATOM      5  C   UNL     1       7.459   4.654  17.312  0.00  0.00    +0.000 A 
ATOM      6  C   UNL     1       6.240   4.522  16.673  0.00  0.00    +0.000 A 
ATOM      7 BR   UNL     1       6.142   4.047  14.851  0.00  0.00    +0.000 Br
ATOM      8  C   UNL     1       5.074   4.742  17.401  0.00  0.00    +0.000 A 
ENDBRANCH   1   2
BRANCH   1   9
ATOM      9  C   UNL     1       2.830   4.936  18.968  0.00  0.00    +0.000 C 
BRANCH   9  10
ATOM     10  C   UNL     1       2.181   3.681  19.556  0.00  0.00    +0.000 C 
ATOM     11  C   UNL     1       0.973   3.881  20.455  0.00  0.00    +0.000 C 
ATOM     12  C   UNL     1       2.267   3.390  21.039  0.00  0.00    +0.000 C 
BRANCH  10  14
ATOM     13  C   UNL     1       3.311   1.723  18.552  0.00  0.00    +0.000 C 
ATOM     14  N   UNL     1       2.094   2.528  18.614  0.00  0.00    +0.000 NA
ATOM     15  H   UNL     1       1.312   1.921  18.856  0.00  0.00    +0.000 HD
ENDBRANCH  10  14
ENDBRANCH   9  10
ENDBRANCH   1   9
TORSDOF 4
ENDMDL
MODEL 3
REMARK VINA RESULT:      -5.8      3.067      5.813
REMARK  Name = 
REMARK  5 active torsions:
REMARK  status: ('A' for Active; 'I' for Inactive)
REMARK    1  A    between atoms: C_1  and  N_2
REMARK    2  A    between atoms: N_2  and  C_3
REMARK    3  A    between atoms: C_3  and  C_4
REMARK    4  A    between atoms: C_4  and  O_5
REMARK    5  A    between atoms: O_5  and  C_6
REMARK                            x       y       z     vdW  Elec       q    Type
REMARK                         _______ _______ _______ _____ _____    ______ ____
ROOT
ATOM      1  O   UNL     1       5.399   4.092  18.250  0.00  0.00    +0.000 OA
ENDROOT
BRANCH   1   2
ATOM      2  C   UNL     1       4.088   3.746  18.463  0.00  0.00    +0.000 A 
ATOM      3  C   UNL     1       3.251   3.664  17.355  0.00  0.00    +0.000 A 
ATOM      4  N   UNL     1       1.944   3.309  17.407  0.00  0.00    +0.000 NA
ATOM      5  C   UNL     1       1.439   3.036  18.636  0.00  0.00    +0.000 A 
ATOM      6  C   UNL     1       2.183   3.118  19.799  0.00  0.00    +0.000 A 
ATOM      7 BR   UNL     1       1.414   2.733  21.477  0.00  0.00    +0.000 Br
ATOM      8  C   UNL     1       3.523   3.487  19.713  0.00  0.00    +0.000 A 
ENDBRANCH   1   2
BRANCH   1   9
ATOM      9  C   UNL     1       5.553   5.454  17.817  0.00  0.00    +0.000 C 
BRANCH   9  10
ATOM     10  C   UNL     1       6.994   5.834  17.468  0.00  0.00    +0.000 C 
ATOM     11  C   UNL     1       7.858   6.382  18.591  0.00  0.00    +0.000 C 
ATOM     12  C   UNL     1       7.432   7.283  17.467  0.00  0.00    +0.000 C 
BRANCH  10  14
ATOM     13  C   UNL     1       6.985   4.714  15.263  0.00  0.00    +0.000 C 
ATOM     14  N   UNL     1       7.677   4.890  16.536  0.00  0.00    +0.000 NA
ATOM     15  H   UNL     1       8.633   5.191  16.352  0.00  0.00    +0.000 HD
ENDBRANCH  10  14
ENDBRANCH   9  10
ENDBRANCH   1   9
TORSDOF 4
ENDMDL
MODEL 4
REMARK VINA RESULT:      -5.7      3.084      5.745
REMARK  Name = 
REMARK  5 active torsions:
REMARK  status: ('A' for Active; 'I' for Inactive)
REMARK    1  A    between atoms: C_1  and  N_2
REMARK    2  A    between atoms: N_2  and  C_3
REMARK    3  A    between atoms: C_3  and  C_4
REMARK    4  A    between atoms: C_4  and  O_5
REMARK    5  A    between atoms: O_5  and  C_6
REMARK                            x       y       z     vdW  Elec       q    Type
REMARK                         _______ _______ _______ _____ _____    ______ ____
ROOT
ATOM      1  O   UNL     1       5.284   4.457  18.245  0.00  0.00    +0.000 OA
ENDROOT
BRANCH   1   2
ATOM      2  C   UNL     1       4.023   3.961  18.463  0.00  0.00    +0.000 A 
ATOM      3  C   UNL     1       3.208   3.754  17.355  0.00  0.00    +0.000 A 
ATOM      4  N   UNL     1       1.952   3.247  17.412  0.00  0.00    +0.000 NA
ATOM      5  C   UNL     1       1.477   2.943  18.646  0.00  0.00    +0.000 A 
ATOM      6  C   UNL     1       2.200   3.139  19.809  0.00  0.00    +0.000 A 
ATOM      7 BR   UNL     1       1.473   2.703  21.493  0.00  0.00    +0.000 Br
ATOM      8  C   UNL     1       3.486   3.664  19.717  0.00  0.00    +0.000 A 
ENDBRANCH   1   2
BRANCH   1   9
ATOM      9  C   UNL     1       5.295   5.576  17.344  0.00  0.00    +0.000 C 
BRANCH   9  10
ATOM     10  C   UNL     1       6.298   5.438  16.196  0.00  0.00    +0.000 C 
ATOM     11  C   UNL     1       5.731   5.245  14.800  0.00  0.00    +0.000 C 
ATOM     12  C   UNL     1       6.465   4.119  15.471  0.00  0.00    +0.000 C 
BRANCH  10  14
ATOM     13  C   UNL     1       7.457   7.222  17.457  0.00  0.00    +0.000 C 
ATOM     14  N   UNL     1       7.477   6.346  16.290  0.00  0.00    +0.000 NA
ATOM     15  H   UNL     1       8.346   5.812  16.295  0.00  0.00    +0.000 HD
ENDBRANCH  10  14
ENDBRANCH   9  10
ENDBRANCH   1   9
TORSDOF 4
ENDMDL
MODEL 5
REMARK VINA RESULT:      -5.6      1.421      1.983
REMARK  Name = 
REMARK  5 active torsions:
REMARK  status: ('A' for Active; 'I' for Inactive)
REMARK    1  A    between atoms: C_1  and  N_2
REMARK    2  A    between atoms: N_2  and  C_3
REMARK    3  A    between atoms: C_3  and  C_4
REMARK    4  A    between atoms: C_4  and  O_5
REMARK    5  A    between atoms: O_5  and  C_6
REMARK                            x       y       z     vdW  Elec       q    Type
REMARK                         _______ _______ _______ _____ _____    ______ ____
ROOT
ATOM      1  O   UNL     1       3.664   4.901  18.739  0.00  0.00    +0.000 OA
ENDROOT
BRANCH   1   2
ATOM      2  C   UNL     1       4.870   4.811  18.090  0.00  0.00    +0.000 A 
ATOM      3  C   UNL     1       6.026   4.834  18.863  0.00  0.00    +0.000 A 
ATOM      4  N   UNL     1       7.282   4.728  18.366  0.00  0.00    +0.000 NA
ATOM      5  C   UNL     1       7.392   4.608  17.019  0.00  0.00    +0.000 A 
ATOM      6  C   UNL     1       6.305   4.604  16.164  0.00  0.00    +0.000 A 
ATOM      7 BR   UNL     1       6.532   4.444  14.300  0.00  0.00    +0.000 Br
ATOM      8  C   UNL     1       5.027   4.717  16.706  0.00  0.00    +0.000 A 
ENDBRANCH   1   2
BRANCH   1   9
ATOM      9  C   UNL     1       3.485   3.874  19.729  0.00  0.00    +0.000 C 
BRANCH   9  10
ATOM     10  C   UNL     1       2.581   2.725  19.275  0.00  0.00    +0.000 C 
ATOM     11  C   UNL     1       3.240   1.576  18.533  0.00  0.00    +0.000 C 
ATOM     12  C   UNL     1       2.303   2.497  17.805  0.00  0.00    +0.000 C 
BRANCH  10  14
ATOM     13  C   UNL     1       1.712   2.930  21.582  0.00  0.00    +0.000 C 
ATOM     14  N   UNL     1       1.533   2.334  20.262  0.00  0.00    +0.000 NA
ATOM     15  H   UNL     1       0.604   2.575  19.916  0.00  0.00    +0.000 HD
ENDBRANCH  10  14
ENDBRANCH   9  10
ENDBRANCH   1   9
TORSDOF 4
ENDMDL
MODEL 6
REMARK VINA RESULT:      -5.6      3.175      5.639
REMARK  Name = 
REMARK  5 active torsions:
REMARK  status: ('A' for Active; 'I' for Inactive)
REMARK    1  A    between atoms: C_1  and  N_2
REMARK    2  A    between atoms: N_2  and  C_3
REMARK    3  A    between atoms: C_3  and  C_4
REMARK    4  A    between atoms: C_4  and  O_5
REMARK    5  A    between atoms: O_5  and  C_6
REMARK                            x       y       z     vdW  Elec       q    Type
REMARK                         _______ _______ _______ _____ _____    ______ ____
ROOT
ATOM      1  O   UNL     1       4.528   5.913  18.133  0.00  0.00    +0.000 OA
ENDROOT
BRANCH   1   2
ATOM      2  C   UNL     1       3.641   4.881  18.310  0.00  0.00    +0.000 A 
ATOM      3  C   UNL     1       3.205   4.200  17.178  0.00  0.00    +0.000 A 
ATOM      4  N   UNL     1       2.353   3.147  17.199  0.00  0.00    +0.000 NA
ATOM      5  C   UNL     1       1.897   2.761  18.418  0.00  0.00    +0.000 A 
ATOM      6  C   UNL     1       2.249   3.393  19.597  0.00  0.00    +0.000 A 
ATOM      7 BR   UNL     1       1.569   2.809  21.255  0.00  0.00    +0.000 Br
ATOM      8  C   UNL     1       3.125   4.473  19.541  0.00  0.00    +0.000 A 
ENDBRANCH   1   2
BRANCH   1   9
ATOM      9  C   UNL     1       5.162   5.890  16.843  0.00  0.00    +0.000 C 
BRANCH   9  10
ATOM     10  C   UNL     1       6.677   5.683  16.900  0.00  0.00    +0.000 C 
ATOM     11  C   UNL     1       7.220   4.372  16.357  0.00  0.00    +0.000 C 
ATOM     12  C   UNL     1       7.282   4.654  17.831  0.00  0.00    +0.000 C 
BRANCH  10  14
ATOM     13  C   UNL     1       7.710   7.780  17.708  0.00  0.00    +0.000 C 
ATOM     14  N   UNL     1       7.481   6.895  16.570  0.00  0.00    +0.000 NA
ATOM     15  H   UNL     1       8.382   6.634  16.171  0.00  0.00    +0.000 HD
ENDBRANCH  10  14
ENDBRANCH   9  10
ENDBRANCH   1   9
TORSDOF 4
ENDMDL
MODEL 7
REMARK VINA RESULT:      -5.6      3.046      5.711
REMARK  Name = 
REMARK  5 active torsions:
REMARK  status: ('A' for Active; 'I' for Inactive)
REMARK    1  A    between atoms: C_1  and  N_2
REMARK    2  A    between atoms: N_2  and  C_3
REMARK    3  A    between atoms: C_3  and  C_4
REMARK    4  A    between atoms: C_4  and  O_5
REMARK    5  A    between atoms: O_5  and  C_6
REMARK                            x       y       z     vdW  Elec       q    Type
REMARK                         _______ _______ _______ _____ _____    ______ ____
ROOT
ATOM      1  O   UNL     1       4.900   3.526  17.018  0.00  0.00    +0.000 OA
ENDROOT
BRANCH   1   2
ATOM      2  C   UNL     1       3.734   3.482  17.740  0.00  0.00    +0.000 A 
ATOM      3  C   UNL     1       2.543   3.723  17.062  0.00  0.00    +0.000 A 
ATOM      4  N   UNL     1       1.316   3.688  17.635  0.00  0.00    +0.000 NA
ATOM      5  C   UNL     1       1.274   3.413  18.963  0.00  0.00    +0.000 A 
ATOM      6  C   UNL     1       2.404   3.188  19.728  0.00  0.00    +0.000 A 
ATOM      7 BR   UNL     1       2.273   2.821  21.573  0.00  0.00    +0.000 Br
ATOM      8  C   UNL     1       3.651   3.233  19.111  0.00  0.00    +0.000 A 
ENDBRANCH   1   2
BRANCH   1   9
ATOM      9  C   UNL     1       5.849   4.467  17.546  0.00  0.00    +0.000 C 
BRANCH   9  10
ATOM     10  C   UNL     1       6.168   5.625  16.597  0.00  0.00    +0.000 C 
ATOM     11  C   UNL     1       6.101   7.030  17.170  0.00  0.00    +0.000 C 
ATOM     12  C   UNL     1       5.083   6.585  16.158  0.00  0.00    +0.000 C 
BRANCH  10  14
ATOM     13  C   UNL     1       6.898   4.769  14.394  0.00  0.00    +0.000 C 
ATOM     14  N   UNL     1       7.302   5.367  15.663  0.00  0.00    +0.000 NA
ATOM     15  H   UNL     1       7.817   6.226  15.473  0.00  0.00    +0.000 HD
ENDBRANCH  10  14
ENDBRANCH   9  10
ENDBRANCH   1   9
TORSDOF 4
ENDMDL
MODEL 8
REMARK VINA RESULT:      -5.6      1.642      1.923
REMARK  Name = 
REMARK  5 active torsions:
REMARK  status: ('A' for Active; 'I' for Inactive)
REMARK    1  A    between atoms: C_1  and  N_2
REMARK    2  A    between atoms: N_2  and  C_3
REMARK    3  A    between atoms: C_3  and  C_4
REMARK    4  A    between atoms: C_4  and  O_5
REMARK    5  A    between atoms: O_5  and  C_6
REMARK                            x       y       z     vdW  Elec       q    Type
REMARK                         _______ _______ _______ _____ _____    ______ ____
ROOT
ATOM      1  O   UNL     1       3.484   3.010  18.515  0.00  0.00    +0.000 OA
ENDROOT
BRANCH   1   2
ATOM      2  C   UNL     1       4.463   3.799  17.966  0.00  0.00    +0.000 A 
ATOM      3  C   UNL     1       4.416   4.030  16.595  0.00  0.00    +0.000 A 
ATOM      4  N   UNL     1       5.296   4.807  15.918  0.00  0.00    +0.000 NA
ATOM      5  C   UNL     1       6.290   5.374  16.648  0.00  0.00    +0.000 A 
ATOM      6  C   UNL     1       6.439   5.180  18.010  0.00  0.00    +0.000 A 
ATOM      7 BR   UNL     1       7.851   5.989  18.961  0.00  0.00    +0.000 Br
ATOM      8  C   UNL     1       5.519   4.374  18.676  0.00  0.00    +0.000 A 
ENDBRANCH   1   2
BRANCH   1   9
ATOM      9  C   UNL     1       3.482   3.041  19.951  0.00  0.00    +0.000 C 
BRANCH   9  10
ATOM     10  C   UNL     1       2.234   3.691  20.555  0.00  0.00    +0.000 C 
ATOM     11  C   UNL     1       1.375   2.830  21.466  0.00  0.00    +0.000 C 
ATOM     12  C   UNL     1       0.850   3.254  20.123  0.00  0.00    +0.000 C 
BRANCH  10  14
ATOM     13  C   UNL     1       2.339   6.078  19.915  0.00  0.00    +0.000 C 
ATOM     14  N   UNL     1       2.422   5.103  20.998  0.00  0.00    +0.000 NA
ATOM     15  H   UNL     1       1.742   5.350  21.716  0.00  0.00    +0.000 HD
ENDBRANCH  10  14
ENDBRANCH   9  10
ENDBRANCH   1   9
TORSDOF 4
ENDMDL
MODEL 9
REMARK VINA RESULT:      -5.5      1.448      1.508
REMARK  Name = 
REMARK  5 active torsions:
REMARK  status: ('A' for Active; 'I' for Inactive)
REMARK    1  A    between atoms: C_1  and  N_2
REMARK    2  A    between atoms: N_2  and  C_3
REMARK    3  A    between atoms: C_3  and  C_4
REMARK    4  A    between atoms: C_4  and  O_5
REMARK    5  A    between atoms: O_5  and  C_6
REMARK                            x       y       z     vdW  Elec       q    Type
REMARK                         _______ _______ _______ _____ _____    ______ ____
ROOT
ATOM      1  O   UNL     1       4.501   4.154  19.279  0.00  0.00    +0.000 OA
ENDROOT
BRANCH   1   2
ATOM      2  C   UNL     1       4.752   4.776  18.081  0.00  0.00    +0.000 A 
ATOM      3  C   UNL     1       4.482   6.137  17.989  0.00  0.00    +0.000 A 
ATOM      4  N   UNL     1       4.702   6.888  16.882  0.00  0.00    +0.000 NA
ATOM      5  C   UNL     1       5.207   6.241  15.801  0.00  0.00    +0.000 A 
ATOM      6  C   UNL     1       5.481   4.886  15.786  0.00  0.00    +0.000 A 
ATOM      7 BR   UNL     1       6.172   4.049  14.245  0.00  0.00    +0.000 Br
ATOM      8  C   UNL     1       5.242   4.141  16.938  0.00  0.00    +0.000 A 
ENDBRANCH   1   2
BRANCH   1   9
ATOM      9  C   UNL     1       3.226   3.493  19.308  0.00  0.00    +0.000 C 
BRANCH   9  10
ATOM     10  C   UNL     1       2.390   3.814  20.551  0.00  0.00    +0.000 C 
ATOM     11  C   UNL     1       2.249   2.718  21.593  0.00  0.00    +0.000 C 
ATOM     12  C   UNL     1       1.057   3.135  20.780  0.00  0.00    +0.000 C 
BRANCH  10  14
ATOM     13  C   UNL     1       1.735   6.197  20.460  0.00  0.00    +0.000 C 
ATOM     14  N   UNL     1       2.584   5.191  21.090  0.00  0.00    +0.000 NA
ATOM     15  H   UNL     1       2.425   5.211  22.097  0.00  0.00    +0.000 HD
ENDBRANCH  10  14
ENDBRANCH   9  10
ENDBRANCH   1   9
TORSDOF 4
ENDMDL
