MODEL 1
REMARK VINA RESULT:      -8.8      0.000      0.000
REMARK  Name = 
REMARK  6 active torsions:
REMARK  status: ('A' for Active; 'I' for Inactive)
REMARK    1  A    between atoms: C_1  and  C_2
REMARK    2  A    between atoms: C_7  and  C_8
REMARK    3  A    between atoms: C_8  and  O_10
REMARK    4  A    between atoms: O_10  and  C_11
REMARK    5  A    between atoms: C_11  and  C_12
REMARK    6  A    between atoms: C_18  and  C_19
REMARK                            x       y       z     vdW  Elec       q    Type
REMARK                         _______ _______ _______ _____ _____    ______ ____
ROOT
ATOM      1  C   UNL     1       7.705   7.723  17.876  0.00  0.00    +0.000 A 
ATOM      2  C   UNL     1       8.190   7.056  18.936  0.00  0.00    +0.000 A 
ATOM      3  C   UNL     1       7.576   5.769  19.346  0.00  0.00    +0.000 A 
ATOM      4  O   UNL     1       8.002   5.185  20.338  0.00  0.00    +0.000 OA
ATOM      5  N   UNL     1       6.535   5.371  18.537  0.00  0.00    +0.000 N 
ATOM      6  N   UNL     1       5.828   4.202  18.765  0.00  0.00    +0.000 NA
ATOM      7  C   UNL     1       4.892   4.095  17.875  0.00  0.00    +0.000 A 
ATOM      8  S   UNL     1       4.780   5.392  16.695  0.00  0.00    +0.000 S 
ATOM      9  C   UNL     1       6.123   6.147  17.488  0.00  0.00    +0.000 A 
ATOM     10  N   UNL     1       6.632   7.276  17.125  0.00  0.00    +0.000 NA
ENDROOT
BRANCH   7  11
ATOM     11  C   UNL     1       3.878   2.967  17.789  0.00  0.00    +0.000 C 
ATOM     12  C   UNL     1       3.690   2.215  19.114  0.00  0.00    +0.000 C 
ATOM     13  C   UNL     1       2.680   2.845  20.070  0.00  0.00    +0.000 C 
ATOM     14  C   UNL     1       1.360   3.154  19.377  0.00  0.00    +0.000 C 
ATOM     15  C   UNL     1       1.578   4.056  18.171  0.00  0.00    +0.000 C 
ATOM     16  C   UNL     1       2.554   3.437  17.172  0.00  0.00    +0.000 C 
ENDBRANCH   7  11
BRANCH   1  17
ATOM     17  C   UNL     1       8.323   9.048  17.459  0.00  0.00    +0.000 C 
BRANCH  17  18
ATOM     18  O   UNL     1       8.529   9.904  18.593  0.00  0.00    +0.000 OA
BRANCH  18  19
ATOM     19  C   UNL     1       9.471  10.869  18.434  0.00  0.00    +0.000 C 
ATOM     20  O   UNL     1      10.320  10.884  17.558  0.00  0.00    +0.000 OA
BRANCH  19  27
ATOM     21  C   UNL     1       8.339  13.609  17.900  0.00  0.00    +0.000 C 
ATOM     22  C   UNL     1       8.789  13.170  19.266  0.00  0.00    +0.000 A 
ATOM     23  C   UNL     1       8.674  14.081  20.332  0.00  0.00    +0.000 A 
ATOM     24  C   UNL     1       9.089  13.741  21.620  0.00  0.00    +0.000 A 
ATOM     25  C   UNL     1       9.622  12.482  21.866  0.00  0.00    +0.000 A 
ATOM     26  C   UNL     1       9.740  11.560  20.826  0.00  0.00    +0.000 A 
ATOM     27  C   UNL     1       9.334  11.890  19.518  0.00  0.00    +0.000 A 
ENDBRANCH  19  27
ENDBRANCH  18  19
ENDBRANCH  17  18
ENDBRANCH   1  17
TORSDOF 5
ENDMDL
MODEL 2
REMARK VINA RESULT:      -8.6      0.508      1.520
REMARK  Name = 
REMARK  6 active torsions:
REMARK  status: ('A' for Active; 'I' for Inactive)
REMARK    1  A    between atoms: C_1  and  C_2
REMARK    2  A    between atoms: C_7  and  C_8
REMARK    3  A    between atoms: C_8  and  O_10
REMARK    4  A    between atoms: O_10  and  C_11
REMARK    5  A    between atoms: C_11  and  C_12
REMARK    6  A    between atoms: C_18  and  C_19
REMARK                            x       y       z     vdW  Elec       q    Type
REMARK                         _______ _______ _______ _____ _____    ______ ____
ROOT
ATOM      1  C   UNL     1       7.668   7.815  17.838  0.00  0.00    +0.000 A 
ATOM      2  C   UNL     1       8.197   7.151  18.879  0.00  0.00    +0.000 A 
ATOM      3  C   UNL     1       7.618   5.852  19.301  0.00  0.00    +0.000 A 
ATOM      4  O   UNL     1       8.084   5.271  20.275  0.00  0.00    +0.000 OA
ATOM      5  N   UNL     1       6.559   5.440  18.522  0.00  0.00    +0.000 N 
ATOM      6  N   UNL     1       5.880   4.258  18.765  0.00  0.00    +0.000 NA
ATOM      7  C   UNL     1       4.919   4.139  17.903  0.00  0.00    +0.000 A 
ATOM      8  S   UNL     1       4.749   5.440  16.734  0.00  0.00    +0.000 S 
ATOM      9  C   UNL     1       6.103   6.214  17.490  0.00  0.00    +0.000 A 
ATOM     10  N   UNL     1       6.581   7.354  17.118  0.00  0.00    +0.000 NA
ENDROOT
BRANCH   7  11
ATOM     11  C   UNL     1       3.922   2.995  17.842  0.00  0.00    +0.000 C 
ATOM     12  C   UNL     1       3.740   2.274  19.185  0.00  0.00    +0.000 C 
ATOM     13  C   UNL     1       2.717   2.913  20.121  0.00  0.00    +0.000 C 
ATOM     14  C   UNL     1       1.395   3.184  19.415  0.00  0.00    +0.000 C 
ATOM     15  C   UNL     1       1.605   4.059  18.187  0.00  0.00    +0.000 C 
ATOM     16  C   UNL     1       2.593   3.429  17.209  0.00  0.00    +0.000 C 
ENDBRANCH   7  11
BRANCH   1  17
ATOM     17  C   UNL     1       8.251   9.152  17.410  0.00  0.00    +0.000 C 
BRANCH  17  18
ATOM     18  O   UNL     1       8.807   9.859  18.529  0.00  0.00    +0.000 OA
BRANCH  18  19
ATOM     19  C   UNL     1       9.625  10.896  18.218  0.00  0.00    +0.000 C 
ATOM     20  O   UNL     1      10.747  10.791  17.751  0.00  0.00    +0.000 OA
BRANCH  19  27
ATOM     21  C   UNL     1       9.895  12.128  20.953  0.00  0.00    +0.000 C 
ATOM     22  C   UNL     1       9.098  12.769  19.851  0.00  0.00    +0.000 A 
ATOM     23  C   UNL     1       8.456  13.993  20.115  0.00  0.00    +0.000 A 
ATOM     24  C   UNL     1       7.687  14.630  19.140  0.00  0.00    +0.000 A 
ATOM     25  C   UNL     1       7.552  14.058  17.882  0.00  0.00    +0.000 A 
ATOM     26  C   UNL     1       8.185  12.849  17.595  0.00  0.00    +0.000 A 
ATOM     27  C   UNL     1       8.957  12.188  18.570  0.00  0.00    +0.000 A 
ENDBRANCH  19  27
ENDBRANCH  18  19
ENDBRANCH  17  18
ENDBRANCH   1  17
TORSDOF 5
ENDMDL
MODEL 3
REMARK VINA RESULT:      -8.6      1.230      1.851
REMARK  Name = 
REMARK  6 active torsions:
REMARK  status: ('A' for Active; 'I' for Inactive)
REMARK    1  A    between atoms: C_1  and  C_2
REMARK    2  A    between atoms: C_7  and  C_8
REMARK    3  A    between atoms: C_8  and  O_10
REMARK    4  A    between atoms: O_10  and  C_11
REMARK    5  A    between atoms: C_11  and  C_12
REMARK    6  A    between atoms: C_18  and  C_19
REMARK                            x       y       z     vdW  Elec       q    Type
REMARK                         _______ _______ _______ _____ _____    ______ ____
ROOT
ATOM      1  C   UNL     1       7.872   7.688  17.763  0.00  0.00    +0.000 A 
ATOM      2  C   UNL     1       8.258   7.066  18.890  0.00  0.00    +0.000 A 
ATOM      3  C   UNL     1       7.574   5.822  19.319  0.00  0.00    +0.000 A 
ATOM      4  O   UNL     1       7.908   5.280  20.369  0.00  0.00    +0.000 OA
ATOM      5  N   UNL     1       6.582   5.409  18.457  0.00  0.00    +0.000 N 
ATOM      6  N   UNL     1       5.823   4.275  18.692  0.00  0.00    +0.000 NA
ATOM      7  C   UNL     1       4.952   4.146  17.742  0.00  0.00    +0.000 A 
ATOM      8  S   UNL     1       4.967   5.380  16.491  0.00  0.00    +0.000 S 
ATOM      9  C   UNL     1       6.273   6.139  17.342  0.00  0.00    +0.000 A 
ATOM     10  N   UNL     1       6.843   7.232  16.958  0.00  0.00    +0.000 NA
ENDROOT
BRANCH   7  11
ATOM     11  C   UNL     1       3.910   3.045  17.640  0.00  0.00    +0.000 C 
ATOM     12  C   UNL     1       3.629   2.348  18.978  0.00  0.00    +0.000 C 
ATOM     13  C   UNL     1       2.588   3.040  19.854  0.00  0.00    +0.000 C 
ATOM     14  C   UNL     1       1.317   3.360  19.079  0.00  0.00    +0.000 C 
ATOM     15  C   UNL     1       1.627   4.210  17.856  0.00  0.00    +0.000 C 
ATOM     16  C   UNL     1       2.636   3.528  16.935  0.00  0.00    +0.000 C 
ENDBRANCH   7  11
BRANCH   1  17
ATOM     17  C   UNL     1       8.561   8.970  17.324  0.00  0.00    +0.000 C 
BRANCH  17  18
ATOM     18  O   UNL     1       8.612   9.924  18.396  0.00  0.00    +0.000 OA
BRANCH  18  19
ATOM     19  C   UNL     1       8.621  11.228  18.017  0.00  0.00    +0.000 C 
ATOM     20  O   UNL     1       7.734  11.784  17.390  0.00  0.00    +0.000 OA
BRANCH  19  27
ATOM     21  C   UNL     1       9.420  11.366  20.918  0.00  0.00    +0.000 C 
ATOM     22  C   UNL     1      10.277  11.920  19.815  0.00  0.00    +0.000 A 
ATOM     23  C   UNL     1      11.500  12.526  20.159  0.00  0.00    +0.000 A 
ATOM     24  C   UNL     1      12.332  13.075  19.183  0.00  0.00    +0.000 A 
ATOM     25  C   UNL     1      11.961  13.023  17.846  0.00  0.00    +0.000 A 
ATOM     26  C   UNL     1      10.757  12.421  17.481  0.00  0.00    +0.000 A 
ATOM     27  C   UNL     1       9.900  11.871  18.453  0.00  0.00    +0.000 A 
ENDBRANCH  19  27
ENDBRANCH  18  19
ENDBRANCH  17  18
ENDBRANCH   1  17
TORSDOF 5
ENDMDL
MODEL 4
REMARK VINA RESULT:      -8.5      1.295      1.826
REMARK  Name = 
REMARK  6 active torsions:
REMARK  status: ('A' for Active; 'I' for Inactive)
REMARK    1  A    between atoms: C_1  and  C_2
REMARK    2  A    between atoms: C_7  and  C_8
REMARK    3  A    between atoms: C_8  and  O_10
REMARK    4  A    between atoms: O_10  and  C_11
REMARK    5  A    between atoms: C_11  and  C_12
REMARK    6  A    between atoms: C_18  and  C_19
REMARK                            x       y       z     vdW  Elec       q    Type
REMARK                         _______ _______ _______ _____ _____    ______ ____
ROOT
ATOM      1  C   UNL     1       7.735   7.622  17.773  0.00  0.00    +0.000 A 
ATOM      2  C   UNL     1       8.177   7.007  18.883  0.00  0.00    +0.000 A 
ATOM      3  C   UNL     1       7.528   5.756  19.345  0.00  0.00    +0.000 A 
ATOM      4  O   UNL     1       7.914   5.222  20.380  0.00  0.00    +0.000 OA
ATOM      5  N   UNL     1       6.504   5.330  18.529  0.00  0.00    +0.000 N 
ATOM      6  N   UNL     1       5.770   4.188  18.800  0.00  0.00    +0.000 NA
ATOM      7  C   UNL     1       4.859   4.046  17.889  0.00  0.00    +0.000 A 
ATOM      8  S   UNL     1       4.804   5.277  16.636  0.00  0.00    +0.000 S 
ATOM      9  C   UNL     1       6.138   6.052  17.426  0.00  0.00    +0.000 A 
ATOM     10  N   UNL     1       6.677   7.151  17.016  0.00  0.00    +0.000 NA
ENDROOT
BRANCH   7  11
ATOM     11  C   UNL     1       3.827   2.932  17.836  0.00  0.00    +0.000 C 
ATOM     12  C   UNL     1       3.615   2.234  19.186  0.00  0.00    +0.000 C 
ATOM     13  C   UNL     1       2.607   2.915  20.108  0.00  0.00    +0.000 C 
ATOM     14  C   UNL     1       1.298   3.219  19.391  0.00  0.00    +0.000 C 
ATOM     15  C   UNL     1       1.542   4.071  18.154  0.00  0.00    +0.000 C 
ATOM     16  C   UNL     1       2.516   3.399  17.189  0.00  0.00    +0.000 C 
ENDBRANCH   7  11
BRANCH   1  17
ATOM     17  C   UNL     1       8.389   8.910  17.301  0.00  0.00    +0.000 C 
BRANCH  17  18
ATOM     18  O   UNL     1       8.027  10.015  18.144  0.00  0.00    +0.000 OA
BRANCH  18  19
ATOM     19  C   UNL     1       9.026  10.514  18.916  0.00  0.00    +0.000 C 
ATOM     20  O   UNL     1       9.559   9.926  19.842  0.00  0.00    +0.000 OA
BRANCH  19  27
ATOM     21  C   UNL     1      11.853  11.388  18.353  0.00  0.00    +0.000 C 
ATOM     22  C   UNL     1      10.675  12.311  18.206  0.00  0.00    +0.000 A 
ATOM     23  C   UNL     1      10.910  13.634  17.788  0.00  0.00    +0.000 A 
ATOM     24  C   UNL     1       9.862  14.544  17.649  0.00  0.00    +0.000 A 
ATOM     25  C   UNL     1       8.559  14.146  17.918  0.00  0.00    +0.000 A 
ATOM     26  C   UNL     1       8.300  12.838  18.327  0.00  0.00    +0.000 A 
ATOM     27  C   UNL     1       9.348  11.910  18.483  0.00  0.00    +0.000 A 
ENDBRANCH  19  27
ENDBRANCH  18  19
ENDBRANCH  17  18
ENDBRANCH   1  17
TORSDOF 5
ENDMDL
MODEL 5
REMARK VINA RESULT:      -8.4      1.071      1.766
REMARK  Name = 
REMARK  6 active torsions:
REMARK  status: ('A' for Active; 'I' for Inactive)
REMARK    1  A    between atoms: C_1  and  C_2
REMARK    2  A    between atoms: C_7  and  C_8
REMARK    3  A    between atoms: C_8  and  O_10
REMARK    4  A    between atoms: O_10  and  C_11
REMARK    5  A    between atoms: C_11  and  C_12
REMARK    6  A    between atoms: C_18  and  C_19
REMARK                            x       y       z     vdW  Elec       q    Type
REMARK                         _______ _______ _______ _____ _____    ______ ____
ROOT
ATOM      1  C   UNL     1       7.834   7.794  17.890  0.00  0.00    +0.000 A 
ATOM      2  C   UNL     1       8.265   7.121  18.969  0.00  0.00    +0.000 A 
ATOM      3  C   UNL     1       7.603   5.854  19.366  0.00  0.00    +0.000 A 
ATOM      4  O   UNL     1       7.979   5.265  20.374  0.00  0.00    +0.000 OA
ATOM      5  N   UNL     1       6.578   5.479  18.525  0.00  0.00    +0.000 N 
ATOM      6  N   UNL     1       5.832   4.332  18.735  0.00  0.00    +0.000 NA
ATOM      7  C   UNL     1       4.924   4.244  17.815  0.00  0.00    +0.000 A 
ATOM      8  S   UNL     1       4.887   5.537  16.625  0.00  0.00    +0.000 S 
ATOM      9  C   UNL     1       6.223   6.259  17.458  0.00  0.00    +0.000 A 
ATOM     10  N   UNL     1       6.775   7.372  17.106  0.00  0.00    +0.000 NA
ENDROOT
BRANCH   7  11
ATOM     11  C   UNL     1       3.882   3.144  17.701  0.00  0.00    +0.000 C 
ATOM     12  C   UNL     1       3.774   2.276  18.962  0.00  0.00    +0.000 C 
ATOM     13  C   UNL     1       2.849   2.830  20.043  0.00  0.00    +0.000 C 
ATOM     14  C   UNL     1       1.489   3.221  19.480  0.00  0.00    +0.000 C 
ATOM     15  C   UNL     1       1.640   4.227  18.348  0.00  0.00    +0.000 C 
ATOM     16  C   UNL     1       2.528   3.688  17.229  0.00  0.00    +0.000 C 
ENDBRANCH   7  11
BRANCH   1  17
ATOM     17  C   UNL     1       8.502   9.099  17.486  0.00  0.00    +0.000 C 
BRANCH  17  18
ATOM     18  O   UNL     1       8.147  10.162  18.383  0.00  0.00    +0.000 OA
BRANCH  18  19
ATOM     19  C   UNL     1       9.158  10.637  19.156  0.00  0.00    +0.000 C 
ATOM     20  O   UNL     1       9.488  10.180  20.238  0.00  0.00    +0.000 OA
BRANCH  19  27
ATOM     21  C   UNL     1       8.268  13.444  19.787  0.00  0.00    +0.000 C 
ATOM     22  C   UNL     1       9.369  13.144  18.808  0.00  0.00    +0.000 A 
ATOM     23  C   UNL     1      10.004  14.222  18.164  0.00  0.00    +0.000 A 
ATOM     24  C   UNL     1      11.020  14.010  17.232  0.00  0.00    +0.000 A 
ATOM     25  C   UNL     1      11.424  12.715  16.931  0.00  0.00    +0.000 A 
ATOM     26  C   UNL     1      10.814  11.631  17.562  0.00  0.00    +0.000 A 
ATOM     27  C   UNL     1       9.780  11.827  18.498  0.00  0.00    +0.000 A 
ENDBRANCH  19  27
ENDBRANCH  18  19
ENDBRANCH  17  18
ENDBRANCH   1  17
TORSDOF 5
ENDMDL
MODEL 6
REMARK VINA RESULT:      -8.3      1.211      1.460
REMARK  Name = 
REMARK  6 active torsions:
REMARK  status: ('A' for Active; 'I' for Inactive)
REMARK    1  A    between atoms: C_1  and  C_2
REMARK    2  A    between atoms: C_7  and  C_8
REMARK    3  A    between atoms: C_8  and  O_10
REMARK    4  A    between atoms: O_10  and  C_11
REMARK    5  A    between atoms: C_11  and  C_12
REMARK    6  A    between atoms: C_18  and  C_19
REMARK                            x       y       z     vdW  Elec       q    Type
REMARK                         _______ _______ _______ _____ _____    ______ ____
ROOT
ATOM      1  C   UNL     1       7.713   7.757  17.827  0.00  0.00    +0.000 A 
ATOM      2  C   UNL     1       8.231   7.093  18.874  0.00  0.00    +0.000 A 
ATOM      3  C   UNL     1       7.626   5.812  19.311  0.00  0.00    +0.000 A 
ATOM      4  O   UNL     1       8.081   5.231  20.291  0.00  0.00    +0.000 OA
ATOM      5  N   UNL     1       6.557   5.413  18.539  0.00  0.00    +0.000 N 
ATOM      6  N   UNL     1       5.853   4.248  18.796  0.00  0.00    +0.000 NA
ATOM      7  C   UNL     1       4.888   4.140  17.938  0.00  0.00    +0.000 A 
ATOM      8  S   UNL     1       4.742   5.432  16.756  0.00  0.00    +0.000 S 
ATOM      9  C   UNL     1       6.114   6.185  17.500  0.00  0.00    +0.000 A 
ATOM     10  N   UNL     1       6.615   7.311  17.114  0.00  0.00    +0.000 NA
ENDROOT
BRANCH   7  11
ATOM     11  C   UNL     1       3.867   3.016  17.891  0.00  0.00    +0.000 C 
ATOM     12  C   UNL     1       3.598   2.382  19.263  0.00  0.00    +0.000 C 
ATOM     13  C   UNL     1       2.544   3.098  20.104  0.00  0.00    +0.000 C 
ATOM     14  C   UNL     1       1.268   3.355  19.315  0.00  0.00    +0.000 C 
ATOM     15  C   UNL     1       1.563   4.149  18.051  0.00  0.00    +0.000 C 
ATOM     16  C   UNL     1       2.584   3.441  17.164  0.00  0.00    +0.000 C 
ENDBRANCH   7  11
BRANCH   1  17
ATOM     17  C   UNL     1       8.323   9.077  17.383  0.00  0.00    +0.000 C 
BRANCH  17  18
ATOM     18  O   UNL     1       8.038  10.123  18.324  0.00  0.00    +0.000 OA
BRANCH  18  19
ATOM     19  C   UNL     1       8.432  11.368  17.952  0.00  0.00    +0.000 C 
ATOM     20  O   UNL     1       7.857  12.073  17.140  0.00  0.00    +0.000 OA
BRANCH  19  27
ATOM     21  C   UNL     1      10.721  12.710  16.527  0.00  0.00    +0.000 C 
ATOM     22  C   UNL     1      10.765  12.371  17.992  0.00  0.00    +0.000 A 
ATOM     23  C   UNL     1      11.925  12.697  18.719  0.00  0.00    +0.000 A 
ATOM     24  C   UNL     1      12.035  12.394  20.076  0.00  0.00    +0.000 A 
ATOM     25  C   UNL     1      10.985  11.764  20.732  0.00  0.00    +0.000 A 
ATOM     26  C   UNL     1       9.823  11.438  20.034  0.00  0.00    +0.000 A 
ATOM     27  C   UNL     1       9.699  11.728  18.661  0.00  0.00    +0.000 A 
ENDBRANCH  19  27
ENDBRANCH  18  19
ENDBRANCH  17  18
ENDBRANCH   1  17
TORSDOF 5
ENDMDL
MODEL 7
REMARK VINA RESULT:      -8.2      5.390      8.658
REMARK  Name = 
REMARK  6 active torsions:
REMARK  status: ('A' for Active; 'I' for Inactive)
REMARK    1  A    between atoms: C_1  and  C_2
REMARK    2  A    between atoms: C_7  and  C_8
REMARK    3  A    between atoms: C_8  and  O_10
REMARK    4  A    between atoms: O_10  and  C_11
REMARK    5  A    between atoms: C_11  and  C_12
REMARK    6  A    between atoms: C_18  and  C_19
REMARK                            x       y       z     vdW  Elec       q    Type
REMARK                         _______ _______ _______ _____ _____    ______ ____
ROOT
ATOM      1  C   UNL     1       2.431   6.244  19.792  0.00  0.00    +0.000 A 
ATOM      2  C   UNL     1       2.688   6.800  18.596  0.00  0.00    +0.000 A 
ATOM      3  C   UNL     1       2.237   8.184  18.310  0.00  0.00    +0.000 A 
ATOM      4  O   UNL     1       2.443   8.669  17.202  0.00  0.00    +0.000 OA
ATOM      5  N   UNL     1       1.590   8.784  19.367  0.00  0.00    +0.000 N 
ATOM      6  N   UNL     1       1.087  10.072  19.289  0.00  0.00    +0.000 NA
ATOM      7  C   UNL     1       0.507  10.366  20.410  0.00  0.00    +0.000 A 
ATOM      8  S   UNL     1       0.513   9.118  21.648  0.00  0.00    +0.000 S 
ATOM      9  C   UNL     1       1.378   8.108  20.537  0.00  0.00    +0.000 A 
ATOM     10  N   UNL     1       1.746   6.899  20.801  0.00  0.00    +0.000 NA
ENDROOT
BRANCH   7  11
ATOM     11  C   UNL     1      -0.196  11.676  20.726  0.00  0.00    +0.000 C 
ATOM     12  C   UNL     1       0.750  12.884  20.747  0.00  0.00    +0.000 C 
ATOM     13  C   UNL     1       1.001  13.525  19.384  0.00  0.00    +0.000 C 
ATOM     14  C   UNL     1      -0.299  13.809  18.643  0.00  0.00    +0.000 C 
ATOM     15  C   UNL     1      -1.122  12.538  18.486  0.00  0.00    +0.000 C 
ATOM     16  C   UNL     1      -1.427  11.892  19.835  0.00  0.00    +0.000 C 
ENDBRANCH   7  11
BRANCH   1  17
ATOM     17  C   UNL     1       2.880   4.822  20.086  0.00  0.00    +0.000 C 
BRANCH  17  18
ATOM     18  O   UNL     1       3.273   4.143  18.884  0.00  0.00    +0.000 OA
BRANCH  18  19
ATOM     19  C   UNL     1       4.529   3.627  18.887  0.00  0.00    +0.000 C 
ATOM     20  O   UNL     1       4.972   2.862  19.729  0.00  0.00    +0.000 OA
BRANCH  19  27
ATOM     21  C   UNL     1       6.839   5.524  19.257  0.00  0.00    +0.000 C 
ATOM     22  C   UNL     1       6.392   5.045  17.903  0.00  0.00    +0.000 A 
ATOM     23  C   UNL     1       7.085   5.506  16.769  0.00  0.00    +0.000 A 
ATOM     24  C   UNL     1       6.709   5.113  15.484  0.00  0.00    +0.000 A 
ATOM     25  C   UNL     1       5.636   4.248  15.311  0.00  0.00    +0.000 A 
ATOM     26  C   UNL     1       4.939   3.772  16.421  0.00  0.00    +0.000 A 
ATOM     27  C   UNL     1       5.299   4.166  17.724  0.00  0.00    +0.000 A 
ENDBRANCH  19  27
ENDBRANCH  18  19
ENDBRANCH  17  18
ENDBRANCH   1  17
TORSDOF 5
ENDMDL
MODEL 8
REMARK VINA RESULT:      -8.2      5.350      8.344
REMARK  Name = 
REMARK  6 active torsions:
REMARK  status: ('A' for Active; 'I' for Inactive)
REMARK    1  A    between atoms: C_1  and  C_2
REMARK    2  A    between atoms: C_7  and  C_8
REMARK    3  A    between atoms: C_8  and  O_10
REMARK    4  A    between atoms: O_10  and  C_11
REMARK    5  A    between atoms: C_11  and  C_12
REMARK    6  A    between atoms: C_18  and  C_19
REMARK                            x       y       z     vdW  Elec       q    Type
REMARK                         _______ _______ _______ _____ _____    ______ ____
ROOT
ATOM      1  C   UNL     1       2.413   6.234  19.801  0.00  0.00    +0.000 A 
ATOM      2  C   UNL     1       2.680   6.784  18.604  0.00  0.00    +0.000 A 
ATOM      3  C   UNL     1       2.251   8.174  18.316  0.00  0.00    +0.000 A 
ATOM      4  O   UNL     1       2.466   8.655  17.208  0.00  0.00    +0.000 OA
ATOM      5  N   UNL     1       1.612   8.786  19.371  0.00  0.00    +0.000 N 
ATOM      6  N   UNL     1       1.128  10.081  19.291  0.00  0.00    +0.000 NA
ATOM      7  C   UNL     1       0.551  10.385  20.411  0.00  0.00    +0.000 A 
ATOM      8  S   UNL     1       0.536   9.139  21.650  0.00  0.00    +0.000 S 
ATOM      9  C   UNL     1       1.387   8.114  20.541  0.00  0.00    +0.000 A 
ATOM     10  N   UNL     1       1.737   6.900  20.807  0.00  0.00    +0.000 NA
ENDROOT
BRANCH   7  11
ATOM     11  C   UNL     1      -0.133  11.705  20.724  0.00  0.00    +0.000 C 
ATOM     12  C   UNL     1       0.820  12.908  20.683  0.00  0.00    +0.000 C 
ATOM     13  C   UNL     1       1.023  13.518  19.298  0.00  0.00    +0.000 C 
ATOM     14  C   UNL     1      -0.302  13.794  18.600  0.00  0.00    +0.000 C 
ATOM     15  C   UNL     1      -1.137  12.525  18.501  0.00  0.00    +0.000 C 
ATOM     16  C   UNL     1      -1.395  11.910  19.875  0.00  0.00    +0.000 C 
ENDBRANCH   7  11
BRANCH   1  17
ATOM     17  C   UNL     1       2.840   4.806  20.097  0.00  0.00    +0.000 C 
BRANCH  17  18
ATOM     18  O   UNL     1       3.465   4.203  18.954  0.00  0.00    +0.000 OA
BRANCH  18  19
ATOM     19  C   UNL     1       4.732   3.755  19.148  0.00  0.00    +0.000 C 
ATOM     20  O   UNL     1       5.036   2.764  19.791  0.00  0.00    +0.000 OA
BRANCH  19  27
ATOM     21  C   UNL     1       4.806   4.102  16.157  0.00  0.00    +0.000 C 
ATOM     22  C   UNL     1       5.723   4.852  17.083  0.00  0.00    +0.000 A 
ATOM     23  C   UNL     1       6.650   5.751  16.522  0.00  0.00    +0.000 A 
ATOM     24  C   UNL     1       7.540   6.464  17.325  0.00  0.00    +0.000 A 
ATOM     25  C   UNL     1       7.515   6.297  18.704  0.00  0.00    +0.000 A 
ATOM     26  C   UNL     1       6.600   5.418  19.283  0.00  0.00    +0.000 A 
ATOM     27  C   UNL     1       5.702   4.682  18.486  0.00  0.00    +0.000 A 
ENDBRANCH  19  27
ENDBRANCH  18  19
ENDBRANCH  17  18
ENDBRANCH   1  17
TORSDOF 5
ENDMDL
MODEL 9
REMARK VINA RESULT:      -8.2      7.882     10.704
REMARK  Name = 
REMARK  6 active torsions:
REMARK  status: ('A' for Active; 'I' for Inactive)
REMARK    1  A    between atoms: C_1  and  C_2
REMARK    2  A    between atoms: C_7  and  C_8
REMARK    3  A    between atoms: C_8  and  O_10
REMARK    4  A    between atoms: O_10  and  C_11
REMARK    5  A    between atoms: C_11  and  C_12
REMARK    6  A    between atoms: C_18  and  C_19
REMARK                            x       y       z     vdW  Elec       q    Type
REMARK                         _______ _______ _______ _____ _____    ______ ____
ROOT
ATOM      1  C   UNL     1       0.881   9.116  20.416  0.00  0.00    +0.000 A 
ATOM      2  C   UNL     1       1.022   8.886  21.733  0.00  0.00    +0.000 A 
ATOM      3  C   UNL     1       0.303   9.736  22.714  0.00  0.00    +0.000 A 
ATOM      4  O   UNL     1       0.467   9.543  23.914  0.00  0.00    +0.000 OA
ATOM      5  N   UNL     1      -0.488  10.703  22.133  0.00  0.00    +0.000 N 
ATOM      6  N   UNL     1      -1.228  11.600  22.884  0.00  0.00    +0.000 NA
ATOM      7  C   UNL     1      -1.848  12.409  22.084  0.00  0.00    +0.000 A 
ATOM      8  S   UNL     1      -1.587  12.163  20.364  0.00  0.00    +0.000 S 
ATOM      9  C   UNL     1      -0.539  10.845  20.774  0.00  0.00    +0.000 A 
ATOM     10  N   UNL     1       0.090  10.129  19.903  0.00  0.00    +0.000 NA
ENDROOT
BRANCH   7  11
ATOM     11  C   UNL     1      -2.746  13.559  22.509  0.00  0.00    +0.000 C 
ATOM     12  C   UNL     1      -3.984  13.725  21.617  0.00  0.00    +0.000 C 
ATOM     13  C   UNL     1      -5.175  12.853  22.005  0.00  0.00    +0.000 C 
ATOM     14  C   UNL     1      -5.501  12.965  23.488  0.00  0.00    +0.000 C 
ATOM     15  C   UNL     1      -4.288  12.611  24.337  0.00  0.00    +0.000 C 
ATOM     16  C   UNL     1      -3.088  13.493  24.004  0.00  0.00    +0.000 C 
ENDBRANCH   7  11
BRANCH   1  17
ATOM     17  C   UNL     1       1.624   8.256  19.407  0.00  0.00    +0.000 C 
BRANCH  17  18
ATOM     18  O   UNL     1       2.463   7.294  20.064  0.00  0.00    +0.000 OA
BRANCH  18  19
ATOM     19  C   UNL     1       2.887   6.262  19.290  0.00  0.00    +0.000 C 
ATOM     20  O   UNL     1       3.595   6.368  18.303  0.00  0.00    +0.000 OA
BRANCH  19  27
ATOM     21  C   UNL     1       1.398   4.346  17.505  0.00  0.00    +0.000 C 
ATOM     22  C   UNL     1       1.636   4.075  18.965  0.00  0.00    +0.000 A 
ATOM     23  C   UNL     1       1.140   2.877  19.512  0.00  0.00    +0.000 A 
ATOM     24  C   UNL     1       1.313   2.575  20.863  0.00  0.00    +0.000 A 
ATOM     25  C   UNL     1       1.989   3.462  21.690  0.00  0.00    +0.000 A 
ATOM     26  C   UNL     1       2.495   4.653  21.169  0.00  0.00    +0.000 A 
ATOM     27  C   UNL     1       2.321   4.978  19.810  0.00  0.00    +0.000 A 
ENDBRANCH  19  27
ENDBRANCH  18  19
ENDBRANCH  17  18
ENDBRANCH   1  17
TORSDOF 5
ENDMDL
