MODEL 1
REMARK VINA RESULT:      -8.8      0.000      0.000
REMARK  Name = 
REMARK  6 active torsions:
REMARK  status: ('A' for Active; 'I' for Inactive)
REMARK    1  A    between atoms: C_1  and  O_2
REMARK    2  A    between atoms: O_2  and  C_3
REMARK    3  A    between atoms: C_6  and  C_7
REMARK    4  A    between atoms: C_9  and  C_10
REMARK    5  A    between atoms: C_15  and  O_16
REMARK    6  A    between atoms: N_23  and  C_24
REMARK                            x       y       z     vdW  Elec       q    Type
REMARK                         _______ _______ _______ _____ _____    ______ ____
ROOT
ATOM      1  C   UNL     1       0.705  10.754  18.682  0.00  0.00    +0.000 C 
ATOM      2  C   UNL     1       1.724   9.910  17.920  0.00  0.00    +0.000 C 
ATOM      3  C   UNL     1       1.877   8.740  18.861  0.00  0.00    +0.000 C 
ATOM      4  N   UNL     1       1.351   8.932  20.033  0.00  0.00    +0.000 NA
ATOM      5  N   UNL     1       0.751  10.169  20.026  0.00  0.00    +0.000 N 
ENDROOT
BRANCH   3   6
ATOM      6  C   UNL     1       2.627   7.510  18.459  0.00  0.00    +0.000 A 
ATOM      7  C   UNL     1       3.509   7.607  17.451  0.00  0.00    +0.000 A 
ATOM      8  C   UNL     1       4.247   6.432  17.003  0.00  0.00    +0.000 A 
ATOM      9  C   UNL     1       5.318   6.502  16.108  0.00  0.00    +0.000 A 
ATOM     10  C   UNL     1       5.946   5.327  15.670  0.00  0.00    +0.000 A 
ATOM     11  C   UNL     1       5.477   4.089  16.105  0.00  0.00    +0.000 A 
ATOM     12  C   UNL     1       4.422   4.003  17.002  0.00  0.00    +0.000 A 
ATOM     13  C   UNL     1       3.842   5.182  17.461  0.00  0.00    +0.000 A 
ATOM     14  O   UNL     1       2.865   5.073  18.464  0.00  0.00    +0.000 OA
ATOM     15  C   UNL     1       2.443   6.208  19.145  0.00  0.00    +0.000 A 
ATOM     16  O   UNL     1       1.908   6.111  20.244  0.00  0.00    +0.000 OA
BRANCH  11  17
ATOM     17  O   UNL     1       6.044   2.924  15.679  0.00  0.00    +0.000 OA
ATOM     18  H   UNL     1       6.875   2.781  16.161  0.00  0.00    +0.000 HD
ENDBRANCH  11  17
ENDBRANCH   3   6
BRANCH   1  22
ATOM     19  C   UNL     1       1.576  15.007  18.773  0.00  0.00    +0.000 A 
ATOM     20  C   UNL     1       0.290  14.551  18.483  0.00  0.00    +0.000 A 
ATOM     21  C   UNL     1       0.018  13.182  18.427  0.00  0.00    +0.000 A 
ATOM     22  C   UNL     1       1.031  12.239  18.665  0.00  0.00    +0.000 A 
ATOM     23  C   UNL     1       2.327  12.710  18.936  0.00  0.00    +0.000 A 
ATOM     24  C   UNL     1       2.598  14.082  18.982  0.00  0.00    +0.000 A 
BRANCH  19  26
ATOM     25  C   UNL     1       2.933  16.847  19.369  0.00  0.00    +0.000 C 
ATOM     26  O   UNL     1       1.721  16.367  18.795  0.00  0.00    +0.000 OA
ENDBRANCH  19  26
ENDBRANCH   1  22
BRANCH   5  27
ATOM     27  C   UNL     1      -0.104  10.523  21.071  0.00  0.00    +0.000 A 
ATOM     28  C   UNL     1      -0.063   9.819  22.288  0.00  0.00    +0.000 A 
ATOM     29  C   UNL     1      -0.857  10.185  23.377  0.00  0.00    +0.000 A 
ATOM     30  C   UNL     1      -1.727  11.264  23.280  0.00  0.00    +0.000 A 
ATOM     31  C   UNL     1      -1.807  11.970  22.088  0.00  0.00    +0.000 A 
ATOM     32  C   UNL     1      -1.009  11.597  21.000  0.00  0.00    +0.000 A 
ENDBRANCH   5  27
TORSDOF 5
ENDMDL
MODEL 2
REMARK VINA RESULT:      -8.8      2.588      3.466
REMARK  Name = 
REMARK  6 active torsions:
REMARK  status: ('A' for Active; 'I' for Inactive)
REMARK    1  A    between atoms: C_1  and  O_2
REMARK    2  A    between atoms: O_2  and  C_3
REMARK    3  A    between atoms: C_6  and  C_7
REMARK    4  A    between atoms: C_9  and  C_10
REMARK    5  A    between atoms: C_15  and  O_16
REMARK    6  A    between atoms: N_23  and  C_24
REMARK                            x       y       z     vdW  Elec       q    Type
REMARK                         _______ _______ _______ _____ _____    ______ ____
ROOT
ATOM      1  C   UNL     1       0.130  12.042  18.384  0.00  0.00    +0.000 C 
ATOM      2  C   UNL     1       1.329  11.251  18.904  0.00  0.00    +0.000 C 
ATOM      3  C   UNL     1       0.812   9.839  18.764  0.00  0.00    +0.000 C 
ATOM      4  N   UNL     1      -0.461   9.763  18.524  0.00  0.00    +0.000 NA
ATOM      5  N   UNL     1      -0.946  11.046  18.417  0.00  0.00    +0.000 N 
ENDROOT
BRANCH   3   6
ATOM      6  C   UNL     1       1.712   8.659  18.952  0.00  0.00    +0.000 A 
ATOM      7  C   UNL     1       2.515   8.306  17.934  0.00  0.00    +0.000 A 
ATOM      8  C   UNL     1       3.391   7.147  18.055  0.00  0.00    +0.000 A 
ATOM      9  C   UNL     1       4.391   6.848  17.126  0.00  0.00    +0.000 A 
ATOM     10  C   UNL     1       5.159   5.685  17.269  0.00  0.00    +0.000 A 
ATOM     11  C   UNL     1       4.901   4.811  18.324  0.00  0.00    +0.000 A 
ATOM     12  C   UNL     1       3.920   5.099  19.262  0.00  0.00    +0.000 A 
ATOM     13  C   UNL     1       3.199   6.282  19.128  0.00  0.00    +0.000 A 
ATOM     14  O   UNL     1       2.305   6.613  20.159  0.00  0.00    +0.000 OA
ATOM     15  C   UNL     1       1.759   7.889  20.218  0.00  0.00    +0.000 A 
ATOM     16  O   UNL     1       1.304   8.324  21.271  0.00  0.00    +0.000 OA
BRANCH  11  17
ATOM     17  O   UNL     1       5.609   3.656  18.481  0.00  0.00    +0.000 OA
ATOM     18  H   UNL     1       5.376   3.255  19.334  0.00  0.00    +0.000 HD
ENDBRANCH  11  17
ENDBRANCH   3   6
BRANCH   1  22
ATOM     19  C   UNL     1      -0.595  15.565  20.815  0.00  0.00    +0.000 A 
ATOM     20  C   UNL     1      -0.603  14.293  21.388  0.00  0.00    +0.000 A 
ATOM     21  C   UNL     1      -0.397  13.159  20.598  0.00  0.00    +0.000 A 
ATOM     22  C   UNL     1      -0.174  13.276  19.217  0.00  0.00    +0.000 A 
ATOM     23  C   UNL     1      -0.188  14.562  18.649  0.00  0.00    +0.000 A 
ATOM     24  C   UNL     1      -0.405  15.695  19.440  0.00  0.00    +0.000 A 
BRANCH  19  26
ATOM     25  C   UNL     1      -2.164  16.786  22.092  0.00  0.00    +0.000 C 
ATOM     26  O   UNL     1      -0.812  16.598  21.686  0.00  0.00    +0.000 OA
ENDBRANCH  19  26
ENDBRANCH   1  22
BRANCH   5  27
ATOM     27  C   UNL     1      -2.231  11.253  17.914  0.00  0.00    +0.000 A 
ATOM     28  C   UNL     1      -2.520  10.965  16.568  0.00  0.00    +0.000 A 
ATOM     29  C   UNL     1      -3.808  11.099  16.047  0.00  0.00    +0.000 A 
ATOM     30  C   UNL     1      -4.850  11.539  16.855  0.00  0.00    +0.000 A 
ATOM     31  C   UNL     1      -4.597  11.851  18.183  0.00  0.00    +0.000 A 
ATOM     32  C   UNL     1      -3.303  11.714  18.699  0.00  0.00    +0.000 A 
ENDBRANCH   5  27
TORSDOF 5
ENDMDL
MODEL 3
REMARK VINA RESULT:      -8.7      2.529      3.347
REMARK  Name = 
REMARK  6 active torsions:
REMARK  status: ('A' for Active; 'I' for Inactive)
REMARK    1  A    between atoms: C_1  and  O_2
REMARK    2  A    between atoms: O_2  and  C_3
REMARK    3  A    between atoms: C_6  and  C_7
REMARK    4  A    between atoms: C_9  and  C_10
REMARK    5  A    between atoms: C_15  and  O_16
REMARK    6  A    between atoms: N_23  and  C_24
REMARK                            x       y       z     vdW  Elec       q    Type
REMARK                         _______ _______ _______ _____ _____    ______ ____
ROOT
ATOM      1  C   UNL     1       0.145  11.966  18.365  0.00  0.00    +0.000 C 
ATOM      2  C   UNL     1       1.349  11.185  18.886  0.00  0.00    +0.000 C 
ATOM      3  C   UNL     1       0.851   9.769  18.731  0.00  0.00    +0.000 C 
ATOM      4  N   UNL     1      -0.420   9.679  18.482  0.00  0.00    +0.000 NA
ATOM      5  N   UNL     1      -0.919  10.957  18.382  0.00  0.00    +0.000 N 
ENDROOT
BRANCH   3   6
ATOM      6  C   UNL     1       1.764   8.597  18.914  0.00  0.00    +0.000 A 
ATOM      7  C   UNL     1       2.572   8.258  17.896  0.00  0.00    +0.000 A 
ATOM      8  C   UNL     1       3.461   7.108  18.013  0.00  0.00    +0.000 A 
ATOM      9  C   UNL     1       4.465   6.825  17.084  0.00  0.00    +0.000 A 
ATOM     10  C   UNL     1       5.246   5.670  17.223  0.00  0.00    +0.000 A 
ATOM     11  C   UNL     1       4.997   4.788  18.273  0.00  0.00    +0.000 A 
ATOM     12  C   UNL     1       4.011   5.061  19.211  0.00  0.00    +0.000 A 
ATOM     13  C   UNL     1       3.277   6.237  19.082  0.00  0.00    +0.000 A 
ATOM     14  O   UNL     1       2.378   6.552  20.113  0.00  0.00    +0.000 OA
ATOM     15  C   UNL     1       1.817   7.822  20.177  0.00  0.00    +0.000 A 
ATOM     16  O   UNL     1       1.356   8.247  21.232  0.00  0.00    +0.000 OA
BRANCH  11  17
ATOM     17  O   UNL     1       5.717   3.641  18.426  0.00  0.00    +0.000 OA
ATOM     18  H   UNL     1       6.255   3.708  19.231  0.00  0.00    +0.000 HD
ENDBRANCH  11  17
ENDBRANCH   3   6
BRANCH   1  22
ATOM     19  C   UNL     1      -0.921  15.462  20.708  0.00  0.00    +0.000 A 
ATOM     20  C   UNL     1      -0.581  15.587  19.361  0.00  0.00    +0.000 A 
ATOM     21  C   UNL     1      -0.212  14.463  18.616  0.00  0.00    +0.000 A 
ATOM     22  C   UNL     1      -0.179  13.190  19.206  0.00  0.00    +0.000 A 
ATOM     23  C   UNL     1      -0.504  13.080  20.569  0.00  0.00    +0.000 A 
ATOM     24  C   UNL     1      -0.864  14.208  21.315  0.00  0.00    +0.000 A 
BRANCH  19  26
ATOM     25  C   UNL     1      -1.193  17.802  20.528  0.00  0.00    +0.000 C 
ATOM     26  O   UNL     1      -1.260  16.631  21.334  0.00  0.00    +0.000 OA
ENDBRANCH  19  26
ENDBRANCH   1  22
BRANCH   5  27
ATOM     27  C   UNL     1      -2.203  11.153  17.872  0.00  0.00    +0.000 A 
ATOM     28  C   UNL     1      -3.234  11.617  18.710  0.00  0.00    +0.000 A 
ATOM     29  C   UNL     1      -4.514  11.886  18.221  0.00  0.00    +0.000 A 
ATOM     30  C   UNL     1      -4.808  11.690  16.877  0.00  0.00    +0.000 A 
ATOM     31  C   UNL     1      -3.820  11.215  16.025  0.00  0.00    +0.000 A 
ATOM     32  C   UNL     1      -2.539  10.946  16.522  0.00  0.00    +0.000 A 
ENDBRANCH   5  27
TORSDOF 5
ENDMDL
MODEL 4
REMARK VINA RESULT:      -8.7      3.034      9.195
REMARK  Name = 
REMARK  6 active torsions:
REMARK  status: ('A' for Active; 'I' for Inactive)
REMARK    1  A    between atoms: C_1  and  O_2
REMARK    2  A    between atoms: O_2  and  C_3
REMARK    3  A    between atoms: C_6  and  C_7
REMARK    4  A    between atoms: C_9  and  C_10
REMARK    5  A    between atoms: C_15  and  O_16
REMARK    6  A    between atoms: N_23  and  C_24
REMARK                            x       y       z     vdW  Elec       q    Type
REMARK                         _______ _______ _______ _____ _____    ______ ____
ROOT
ATOM      1  C   UNL     1       4.592   5.968  18.131  0.00  0.00    +0.000 C 
ATOM      2  C   UNL     1       4.004   7.378  18.136  0.00  0.00    +0.000 C 
ATOM      3  C   UNL     1       2.710   7.137  18.875  0.00  0.00    +0.000 C 
ATOM      4  N   UNL     1       2.409   5.882  19.019  0.00  0.00    +0.000 NA
ATOM      5  N   UNL     1       3.433   5.140  18.479  0.00  0.00    +0.000 N 
ENDROOT
BRANCH   3   6
ATOM      6  C   UNL     1       1.850   8.274  19.331  0.00  0.00    +0.000 A 
ATOM      7  C   UNL     1       1.429   8.278  20.606  0.00  0.00    +0.000 A 
ATOM      8  C   UNL     1       0.567   9.348  21.093  0.00  0.00    +0.000 A 
ATOM      9  C   UNL     1       0.264   9.524  22.446  0.00  0.00    +0.000 A 
ATOM     10  C   UNL     1      -0.621  10.536  22.842  0.00  0.00    +0.000 A 
ATOM     11  C   UNL     1      -1.221  11.346  21.880  0.00  0.00    +0.000 A 
ATOM     12  C   UNL     1      -0.922  11.191  20.534  0.00  0.00    +0.000 A 
ATOM     13  C   UNL     1      -0.005  10.210  20.164  0.00  0.00    +0.000 A 
ATOM     14  O   UNL     1       0.378  10.161  18.815  0.00  0.00    +0.000 OA
ATOM     15  C   UNL     1       1.471   9.391  18.434  0.00  0.00    +0.000 A 
ATOM     16  O   UNL     1       2.055   9.619  17.379  0.00  0.00    +0.000 OA
BRANCH  11  17
ATOM     17  O   UNL     1      -2.108  12.323  22.224  0.00  0.00    +0.000 OA
ATOM     18  H   UNL     1      -1.617  13.117  22.491  0.00  0.00    +0.000 HD
ENDBRANCH  11  17
ENDBRANCH   3   6
BRANCH   1  22
ATOM     19  C   UNL     1       6.258   4.800  14.296  0.00  0.00    +0.000 A 
ATOM     20  C   UNL     1       6.356   3.953  15.400  0.00  0.00    +0.000 A 
ATOM     21  C   UNL     1       5.843   4.344  16.640  0.00  0.00    +0.000 A 
ATOM     22  C   UNL     1       5.217   5.590  16.798  0.00  0.00    +0.000 A 
ATOM     23  C   UNL     1       5.143   6.442  15.683  0.00  0.00    +0.000 A 
ATOM     24  C   UNL     1       5.666   6.053  14.445  0.00  0.00    +0.000 A 
BRANCH  19  26
ATOM     25  C   UNL     1       6.035   3.311  12.474  0.00  0.00    +0.000 C 
ATOM     26  O   UNL     1       6.800   4.313  13.137  0.00  0.00    +0.000 OA
ENDBRANCH  19  26
ENDBRANCH   1  22
BRANCH   5  27
ATOM     27  C   UNL     1       3.487   3.767  18.722  0.00  0.00    +0.000 A 
ATOM     28  C   UNL     1       2.750   2.876  17.921  0.00  0.00    +0.000 A 
ATOM     29  C   UNL     1       2.830   1.493  18.094  0.00  0.00    +0.000 A 
ATOM     30  C   UNL     1       3.644   0.955  19.084  0.00  0.00    +0.000 A 
ATOM     31  C   UNL     1       4.371   1.806  19.905  0.00  0.00    +0.000 A 
ATOM     32  C   UNL     1       4.285   3.191  19.727  0.00  0.00    +0.000 A 
ENDBRANCH   5  27
TORSDOF 5
ENDMDL
MODEL 5
REMARK VINA RESULT:      -8.6      2.617      3.749
REMARK  Name = 
REMARK  6 active torsions:
REMARK  status: ('A' for Active; 'I' for Inactive)
REMARK    1  A    between atoms: C_1  and  O_2
REMARK    2  A    between atoms: O_2  and  C_3
REMARK    3  A    between atoms: C_6  and  C_7
REMARK    4  A    between atoms: C_9  and  C_10
REMARK    5  A    between atoms: C_15  and  O_16
REMARK    6  A    between atoms: N_23  and  C_24
REMARK                            x       y       z     vdW  Elec       q    Type
REMARK                         _______ _______ _______ _____ _____    ______ ____
ROOT
ATOM      1  C   UNL     1      -0.064  11.873  19.048  0.00  0.00    +0.000 C 
ATOM      2  C   UNL     1       1.118  11.030  19.524  0.00  0.00    +0.000 C 
ATOM      3  C   UNL     1       0.764   9.691  18.923  0.00  0.00    +0.000 C 
ATOM      4  N   UNL     1      -0.449   9.621  18.466  0.00  0.00    +0.000 NA
ATOM      5  N   UNL     1      -1.033  10.854  18.633  0.00  0.00    +0.000 N 
ENDROOT
BRANCH   3   6
ATOM      6  C   UNL     1       1.736   8.554  18.929  0.00  0.00    +0.000 A 
ATOM      7  C   UNL     1       2.494   8.362  17.836  0.00  0.00    +0.000 A 
ATOM      8  C   UNL     1       3.437   7.252  17.779  0.00  0.00    +0.000 A 
ATOM      9  C   UNL     1       4.393   7.117  16.769  0.00  0.00    +0.000 A 
ATOM     10  C   UNL     1       5.230   5.994  16.739  0.00  0.00    +0.000 A 
ATOM     11  C   UNL     1       5.085   4.997  17.702  0.00  0.00    +0.000 A 
ATOM     12  C   UNL     1       4.148   5.122  18.718  0.00  0.00    +0.000 A 
ATOM     13  C   UNL     1       3.357   6.267  18.757  0.00  0.00    +0.000 A 
ATOM     14  O   UNL     1       2.511   6.429  19.866  0.00  0.00    +0.000 OA
ATOM     15  C   UNL     1       1.901   7.656  20.096  0.00  0.00    +0.000 A 
ATOM     16  O   UNL     1       1.488   7.945  21.215  0.00  0.00    +0.000 OA
BRANCH  11  17
ATOM     17  O   UNL     1       5.862   3.876  17.690  0.00  0.00    +0.000 OA
ATOM     18  H   UNL     1       6.157   3.685  18.595  0.00  0.00    +0.000 HD
ENDBRANCH  11  17
ENDBRANCH   3   6
BRANCH   1  22
ATOM     19  C   UNL     1      -1.733  14.520  22.058  0.00  0.00    +0.000 A 
ATOM     20  C   UNL     1      -1.454  14.990  20.775  0.00  0.00    +0.000 A 
ATOM     21  C   UNL     1      -0.891  14.143  19.816  0.00  0.00    +0.000 A 
ATOM     22  C   UNL     1      -0.599  12.805  20.123  0.00  0.00    +0.000 A 
ATOM     23  C   UNL     1      -0.867  12.349  21.425  0.00  0.00    +0.000 A 
ATOM     24  C   UNL     1      -1.422  13.201  22.386  0.00  0.00    +0.000 A 
BRANCH  19  26
ATOM     25  C   UNL     1      -2.442  15.010  24.257  0.00  0.00    +0.000 C 
ATOM     26  O   UNL     1      -2.278  15.441  22.911  0.00  0.00    +0.000 OA
ENDBRANCH  19  26
ENDBRANCH   1  22
BRANCH   5  27
ATOM     27  C   UNL     1      -2.247  11.129  18.002  0.00  0.00    +0.000 A 
ATOM     28  C   UNL     1      -2.400  10.886  16.625  0.00  0.00    +0.000 A 
ATOM     29  C   UNL     1      -3.619  11.089  15.973  0.00  0.00    +0.000 A 
ATOM     30  C   UNL     1      -4.723  11.553  16.678  0.00  0.00    +0.000 A 
ATOM     31  C   UNL     1      -4.602  11.821  18.034  0.00  0.00    +0.000 A 
ATOM     32  C   UNL     1      -3.378  11.617  18.681  0.00  0.00    +0.000 A 
ENDBRANCH   5  27
TORSDOF 5
ENDMDL
MODEL 6
REMARK VINA RESULT:      -8.5      0.946      1.043
REMARK  Name = 
REMARK  6 active torsions:
REMARK  status: ('A' for Active; 'I' for Inactive)
REMARK    1  A    between atoms: C_1  and  O_2
REMARK    2  A    between atoms: O_2  and  C_3
REMARK    3  A    between atoms: C_6  and  C_7
REMARK    4  A    between atoms: C_9  and  C_10
REMARK    5  A    between atoms: C_15  and  O_16
REMARK    6  A    between atoms: N_23  and  C_24
REMARK                            x       y       z     vdW  Elec       q    Type
REMARK                         _______ _______ _______ _____ _____    ______ ____
ROOT
ATOM      1  C   UNL     1       0.476  11.467  18.766  0.00  0.00    +0.000 C 
ATOM      2  C   UNL     1       1.558  10.550  18.197  0.00  0.00    +0.000 C 
ATOM      3  C   UNL     1       1.452   9.377  19.141  0.00  0.00    +0.000 C 
ATOM      4  N   UNL     1       0.734   9.611  20.197  0.00  0.00    +0.000 NA
ATOM      5  N   UNL     1       0.233  10.887  20.091  0.00  0.00    +0.000 N 
ENDROOT
BRANCH   3   6
ATOM      6  C   UNL     1       2.177   8.095  18.875  0.00  0.00    +0.000 A 
ATOM      7  C   UNL     1       2.995   8.039  17.811  0.00  0.00    +0.000 A 
ATOM      8  C   UNL     1       3.703   6.805  17.491  0.00  0.00    +0.000 A 
ATOM      9  C   UNL     1       4.717   6.737  16.532  0.00  0.00    +0.000 A 
ATOM     10  C   UNL     1       5.316   5.507  16.229  0.00  0.00    +0.000 A 
ATOM     11  C   UNL     1       4.876   4.348  16.864  0.00  0.00    +0.000 A 
ATOM     12  C   UNL     1       3.878   4.400  17.827  0.00  0.00    +0.000 A 
ATOM     13  C   UNL     1       3.327   5.638  18.148  0.00  0.00    +0.000 A 
ATOM     14  O   UNL     1       2.415   5.682  19.214  0.00  0.00    +0.000 OA
ATOM     15  C   UNL     1       2.036   6.907  19.750  0.00  0.00    +0.000 A 
ATOM     16  O   UNL     1       1.570   6.973  20.883  0.00  0.00    +0.000 OA
BRANCH  11  17
ATOM     17  O   UNL     1       5.415   3.129  16.576  0.00  0.00    +0.000 OA
ATOM     18  H   UNL     1       4.939   2.445  17.074  0.00  0.00    +0.000 HD
ENDBRANCH  11  17
ENDBRANCH   3   6
BRANCH   1  22
ATOM     19  C   UNL     1       1.630  15.642  19.062  0.00  0.00    +0.000 A 
ATOM     20  C   UNL     1       0.324  15.289  18.724  0.00  0.00    +0.000 A 
ATOM     21  C   UNL     1      -0.038  13.944  18.602  0.00  0.00    +0.000 A 
ATOM     22  C   UNL     1       0.903  12.925  18.821  0.00  0.00    +0.000 A 
ATOM     23  C   UNL     1       2.220  13.294  19.142  0.00  0.00    +0.000 A 
ATOM     24  C   UNL     1       2.582  14.642  19.254  0.00  0.00    +0.000 A 
BRANCH  19  26
ATOM     25  C   UNL     1       1.269  17.782  18.129  0.00  0.00    +0.000 C 
ATOM     26  O   UNL     1       1.867  16.987  19.147  0.00  0.00    +0.000 OA
ENDBRANCH  19  26
ENDBRANCH   1  22
BRANCH   5  27
ATOM     27  C   UNL     1      -0.772  11.304  20.963  0.00  0.00    +0.000 A 
ATOM     28  C   UNL     1      -0.654  11.069  22.345  0.00  0.00    +0.000 A 
ATOM     29  C   UNL     1      -1.609  11.529  23.254  0.00  0.00    +0.000 A 
ATOM     30  C   UNL     1      -2.722  12.231  22.808  0.00  0.00    +0.000 A 
ATOM     31  C   UNL     1      -2.881  12.465  21.449  0.00  0.00    +0.000 A 
ATOM     32  C   UNL     1      -1.920  12.001  20.543  0.00  0.00    +0.000 A 
ENDBRANCH   5  27
TORSDOF 5
ENDMDL
MODEL 7
REMARK VINA RESULT:      -8.5      2.549      8.657
REMARK  Name = 
REMARK  6 active torsions:
REMARK  status: ('A' for Active; 'I' for Inactive)
REMARK    1  A    between atoms: C_1  and  O_2
REMARK    2  A    between atoms: O_2  and  C_3
REMARK    3  A    between atoms: C_6  and  C_7
REMARK    4  A    between atoms: C_9  and  C_10
REMARK    5  A    between atoms: C_15  and  O_16
REMARK    6  A    between atoms: N_23  and  C_24
REMARK                            x       y       z     vdW  Elec       q    Type
REMARK                         _______ _______ _______ _____ _____    ______ ____
ROOT
ATOM      1  C   UNL     1       3.680   6.812  18.245  0.00  0.00    +0.000 C 
ATOM      2  C   UNL     1       3.425   8.237  17.759  0.00  0.00    +0.000 C 
ATOM      3  C   UNL     1       2.040   8.475  18.311  0.00  0.00    +0.000 C 
ATOM      4  N   UNL     1       1.453   7.402  18.748  0.00  0.00    +0.000 NA
ATOM      5  N   UNL     1       2.336   6.356  18.613  0.00  0.00    +0.000 N 
ENDROOT
BRANCH   3   6
ATOM      6  C   UNL     1       1.413   9.833  18.283  0.00  0.00    +0.000 A 
ATOM      7  C   UNL     1       2.193  10.897  18.536  0.00  0.00    +0.000 A 
ATOM      8  C   UNL     1       1.626  12.240  18.548  0.00  0.00    +0.000 A 
ATOM      9  C   UNL     1       2.410  13.396  18.599  0.00  0.00    +0.000 A 
ATOM     10  C   UNL     1       1.799  14.656  18.669  0.00  0.00    +0.000 A 
ATOM     11  C   UNL     1       0.410  14.750  18.720  0.00  0.00    +0.000 A 
ATOM     12  C   UNL     1      -0.382  13.612  18.658  0.00  0.00    +0.000 A 
ATOM     13  C   UNL     1       0.241  12.373  18.542  0.00  0.00    +0.000 A 
ATOM     14  O   UNL     1      -0.582  11.252  18.352  0.00  0.00    +0.000 OA
ATOM     15  C   UNL     1      -0.021  10.039  17.968  0.00  0.00    +0.000 A 
ATOM     16  O   UNL     1      -0.710   9.177  17.432  0.00  0.00    +0.000 OA
BRANCH  11  17
ATOM     17  O   UNL     1      -0.219  15.956  18.815  0.00  0.00    +0.000 OA
ATOM     18  H   UNL     1      -1.087  15.829  19.231  0.00  0.00    +0.000 HD
ENDBRANCH  11  17
ENDBRANCH   3   6
BRANCH   1  22
ATOM     19  C   UNL     1       5.702   4.349  15.296  0.00  0.00    +0.000 A 
ATOM     20  C   UNL     1       5.606   5.730  15.122  0.00  0.00    +0.000 A 
ATOM     21  C   UNL     1       4.930   6.517  16.059  0.00  0.00    +0.000 A 
ATOM     22  C   UNL     1       4.341   5.935  17.193  0.00  0.00    +0.000 A 
ATOM     23  C   UNL     1       4.428   4.541  17.346  0.00  0.00    +0.000 A 
ATOM     24  C   UNL     1       5.097   3.755  16.401  0.00  0.00    +0.000 A 
BRANCH  19  26
ATOM     25  C   UNL     1       5.774   3.699  13.025  0.00  0.00    +0.000 C 
ATOM     26  O   UNL     1       6.383   3.684  14.312  0.00  0.00    +0.000 OA
ENDBRANCH  19  26
ENDBRANCH   1  22
BRANCH   5  27
ATOM     27  C   UNL     1       2.057   5.139  19.235  0.00  0.00    +0.000 A 
ATOM     28  C   UNL     1       2.421   4.930  20.577  0.00  0.00    +0.000 A 
ATOM     29  C   UNL     1       2.101   3.749  21.251  0.00  0.00    +0.000 A 
ATOM     30  C   UNL     1       1.414   2.733  20.599  0.00  0.00    +0.000 A 
ATOM     31  C   UNL     1       1.056   2.897  19.268  0.00  0.00    +0.000 A 
ATOM     32  C   UNL     1       1.380   4.083  18.599  0.00  0.00    +0.000 A 
ENDBRANCH   5  27
TORSDOF 5
ENDMDL
MODEL 8
REMARK VINA RESULT:      -8.4      2.231      2.892
REMARK  Name = 
REMARK  6 active torsions:
REMARK  status: ('A' for Active; 'I' for Inactive)
REMARK    1  A    between atoms: C_1  and  O_2
REMARK    2  A    between atoms: O_2  and  C_3
REMARK    3  A    between atoms: C_6  and  C_7
REMARK    4  A    between atoms: C_9  and  C_10
REMARK    5  A    between atoms: C_15  and  O_16
REMARK    6  A    between atoms: N_23  and  C_24
REMARK                            x       y       z     vdW  Elec       q    Type
REMARK                         _______ _______ _______ _____ _____    ______ ____
ROOT
ATOM      1  C   UNL     1       0.212  12.294  18.629  0.00  0.00    +0.000 C 
ATOM      2  C   UNL     1       1.451  11.425  18.835  0.00  0.00    +0.000 C 
ATOM      3  C   UNL     1       0.810  10.079  19.075  0.00  0.00    +0.000 C 
ATOM      4  N   UNL     1      -0.471  10.133  19.280  0.00  0.00    +0.000 NA
ATOM      5  N   UNL     1      -0.863  11.445  19.155  0.00  0.00    +0.000 N 
ENDROOT
BRANCH   3   6
ATOM      6  C   UNL     1       1.625   8.826  19.124  0.00  0.00    +0.000 A 
ATOM      7  C   UNL     1       2.357   8.504  18.044  0.00  0.00    +0.000 A 
ATOM      8  C   UNL     1       3.147   7.279  18.030  0.00  0.00    +0.000 A 
ATOM      9  C   UNL     1       4.083   6.989  17.033  0.00  0.00    +0.000 A 
ATOM     10  C   UNL     1       4.767   5.766  17.045  0.00  0.00    +0.000 A 
ATOM     11  C   UNL     1       4.487   4.826  18.036  0.00  0.00    +0.000 A 
ATOM     12  C   UNL     1       3.569   5.103  19.039  0.00  0.00    +0.000 A 
ATOM     13  C   UNL     1       2.934   6.342  19.036  0.00  0.00    +0.000 A 
ATOM     14  O   UNL     1       2.110   6.648  20.131  0.00  0.00    +0.000 OA
ATOM     15  C   UNL     1       1.664   7.950  20.319  0.00  0.00    +0.000 A 
ATOM     16  O   UNL     1       1.286   8.325  21.425  0.00  0.00    +0.000 OA
BRANCH  11  17
ATOM     17  O   UNL     1       5.111   3.614  18.065  0.00  0.00    +0.000 OA
ATOM     18  H   UNL     1       5.955   3.704  18.537  0.00  0.00    +0.000 HD
ENDBRANCH  11  17
ENDBRANCH   3   6
BRANCH   1  22
ATOM     19  C   UNL     1       0.336  16.128  20.663  0.00  0.00    +0.000 A 
ATOM     20  C   UNL     1      -0.164  16.029  19.365  0.00  0.00    +0.000 A 
ATOM     21  C   UNL     1      -0.178  14.798  18.702  0.00  0.00    +0.000 A 
ATOM     22  C   UNL     1       0.307  13.640  19.330  0.00  0.00    +0.000 A 
ATOM     23  C   UNL     1       0.827  13.756  20.630  0.00  0.00    +0.000 A 
ATOM     24  C   UNL     1       0.848  14.991  21.288  0.00  0.00    +0.000 A 
BRANCH  19  26
ATOM     25  C   UNL     1      -0.381  18.368  20.439  0.00  0.00    +0.000 C 
ATOM     26  O   UNL     1       0.302  17.383  21.207  0.00  0.00    +0.000 OA
ENDBRANCH  19  26
ENDBRANCH   1  22
BRANCH   5  27
ATOM     27  C   UNL     1      -2.221  11.752  19.078  0.00  0.00    +0.000 A 
ATOM     28  C   UNL     1      -2.975  11.351  17.960  0.00  0.00    +0.000 A 
ATOM     29  C   UNL     1      -4.350  11.584  17.877  0.00  0.00    +0.000 A 
ATOM     30  C   UNL     1      -5.014  12.236  18.908  0.00  0.00    +0.000 A 
ATOM     31  C   UNL     1      -4.298  12.663  20.019  0.00  0.00    +0.000 A 
ATOM     32  C   UNL     1      -2.921  12.427  20.094  0.00  0.00    +0.000 A 
ENDBRANCH   5  27
TORSDOF 5
ENDMDL
MODEL 9
REMARK VINA RESULT:      -8.4      2.577      4.371
REMARK  Name = 
REMARK  6 active torsions:
REMARK  status: ('A' for Active; 'I' for Inactive)
REMARK    1  A    between atoms: C_1  and  O_2
REMARK    2  A    between atoms: O_2  and  C_3
REMARK    3  A    between atoms: C_6  and  C_7
REMARK    4  A    between atoms: C_9  and  C_10
REMARK    5  A    between atoms: C_15  and  O_16
REMARK    6  A    between atoms: N_23  and  C_24
REMARK                            x       y       z     vdW  Elec       q    Type
REMARK                         _______ _______ _______ _____ _____    ______ ____
ROOT
ATOM      1  C   UNL     1      -0.573  11.294  19.962  0.00  0.00    +0.000 C 
ATOM      2  C   UNL     1      -0.306   9.797  19.811  0.00  0.00    +0.000 C 
ATOM      3  C   UNL     1       1.065   9.822  19.180  0.00  0.00    +0.000 C 
ATOM      4  N   UNL     1       1.432  10.994  18.757  0.00  0.00    +0.000 NA
ATOM      5  N   UNL     1       0.438  11.887  19.080  0.00  0.00    +0.000 N 
ENDROOT
BRANCH   3   6
ATOM      6  C   UNL     1       1.871   8.572  19.021  0.00  0.00    +0.000 A 
ATOM      7  C   UNL     1       2.599   8.425  17.901  0.00  0.00    +0.000 A 
ATOM      8  C   UNL     1       3.381   7.213  17.685  0.00  0.00    +0.000 A 
ATOM      9  C   UNL     1       4.313   7.084  16.651  0.00  0.00    +0.000 A 
ATOM     10  C   UNL     1       4.987   5.871  16.461  0.00  0.00    +0.000 A 
ATOM     11  C   UNL     1       4.702   4.784  17.286  0.00  0.00    +0.000 A 
ATOM     12  C   UNL     1       3.788   4.900  18.324  0.00  0.00    +0.000 A 
ATOM     13  C   UNL     1       3.162   6.127  18.525  0.00  0.00    +0.000 A 
ATOM     14  O   UNL     1       2.343   6.255  19.657  0.00  0.00    +0.000 OA
ATOM     15  C   UNL     1       1.906   7.512  20.057  0.00  0.00    +0.000 A 
ATOM     16  O   UNL     1       1.533   7.704  21.210  0.00  0.00    +0.000 OA
BRANCH  11  17
ATOM     17  O   UNL     1       5.318   3.580  17.115  0.00  0.00    +0.000 OA
ATOM     18  H   UNL     1       5.726   3.554  16.234  0.00  0.00    +0.000 HD
ENDBRANCH  11  17
ENDBRANCH   3   6
BRANCH   1  22
ATOM     19  C   UNL     1      -4.677  12.269  18.937  0.00  0.00    +0.000 A 
ATOM     20  C   UNL     1      -3.886  11.524  18.065  0.00  0.00    +0.000 A 
ATOM     21  C   UNL     1      -2.556  11.235  18.384  0.00  0.00    +0.000 A 
ATOM     22  C   UNL     1      -1.994  11.684  19.590  0.00  0.00    +0.000 A 
ATOM     23  C   UNL     1      -2.796  12.451  20.451  0.00  0.00    +0.000 A 
ATOM     24  C   UNL     1      -4.124  12.747  20.124  0.00  0.00    +0.000 A 
BRANCH  19  26
ATOM     25  C   UNL     1      -6.109  12.787  17.130  0.00  0.00    +0.000 C 
ATOM     26  O   UNL     1      -5.960  12.492  18.515  0.00  0.00    +0.000 OA
ENDBRANCH  19  26
ENDBRANCH   1  22
BRANCH   5  27
ATOM     27  C   UNL     1       0.683  13.256  18.968  0.00  0.00    +0.000 A 
ATOM     28  C   UNL     1       2.002  13.743  18.986  0.00  0.00    +0.000 A 
ATOM     29  C   UNL     1       2.288  15.099  18.811  0.00  0.00    +0.000 A 
ATOM     30  C   UNL     1       1.261  16.015  18.624  0.00  0.00    +0.000 A 
ATOM     31  C   UNL     1      -0.055  15.572  18.620  0.00  0.00    +0.000 A 
ATOM     32  C   UNL     1      -0.335  14.211  18.796  0.00  0.00    +0.000 A 
ENDBRANCH   5  27
TORSDOF 5
ENDMDL
