MODEL 1
REMARK VINA RESULT:      -6.6      0.000      0.000
REMARK  Name = 
REMARK  12 active torsions:
REMARK  status: ('A' for Active; 'I' for Inactive)
REMARK    1  A    between atoms: C_1  and  C_2
REMARK    2  A    between atoms: C_2  and  O_3
REMARK    3  A    between atoms: O_3  and  C_4
REMARK    4  A    between atoms: C_4  and  C_6
REMARK    5  A    between atoms: N_12  and  C_13
REMARK    6  A    between atoms: C_13  and  C_14
REMARK    7  A    between atoms: C_21  and  C_22
REMARK    8  A    between atoms: C_22  and  C_23
REMARK    9  A    between atoms: N_25  and  C_26
REMARK   10  A    between atoms: C_26  and  C_27
REMARK   11  A    between atoms: C_27  and  C_28
REMARK   12  A    between atoms: C_28  and  N_29
REMARK                            x       y       z     vdW  Elec       q    Type
REMARK                         _______ _______ _______ _____ _____    ______ ____
ROOT
ATOM      1  C   UNL     1      -0.319  12.857  20.814  0.00  0.00    +0.000 C 
ATOM      2  C   UNL     1       0.257  13.878  21.843  0.00  0.00    +0.000 C 
ATOM      3  C   UNL     1      -0.741  14.214  22.954  0.00  0.00    +0.000 C 
ATOM      4  C   UNL     1      -2.082  14.686  22.403  0.00  0.00    +0.000 C 
ATOM      5  C   UNL     1      -2.515  14.007  21.134  0.00  0.00    +0.000 C 
ATOM      6  C   UNL     1      -1.719  13.194  20.389  0.00  0.00    +0.000 C 
ATOM      7  N   UNL     1      -2.226  12.521  19.265  0.00  0.00    +0.000 N 
ATOM      8  C   UNL     1      -1.430  12.135  18.199  0.00  0.00    +0.000 C 
ATOM      9  O   UNL     1      -1.928  11.834  17.107  0.00  0.00    +0.000 OA
ATOM     10  C   UNL     1       0.061  11.899  18.411  0.00  0.00    +0.000 C 
ATOM     11  C   UNL     1       0.605  12.753  19.582  0.00  0.00    +0.000 C 
ENDROOT
BRANCH   1  12
ATOM     12  C   UNL     1      -0.516  11.539  21.575  0.00  0.00    +0.000 C 
ATOM     13  O   UNL     1      -1.588  11.146  22.040  0.00  0.00    +0.000 OA
BRANCH  12  14
ATOM     14  O   UNL     1       0.662  10.906  21.786  0.00  0.00    +0.000 OA
BRANCH  14  16
ATOM     15  C   UNL     1       1.132   8.594  21.737  0.00  0.00    +0.000 C 
ATOM     16  C   UNL     1       0.521   9.712  22.559  0.00  0.00    +0.000 C 
ENDBRANCH  14  16
ENDBRANCH  12  14
ENDBRANCH   1  12
BRANCH   7  17
ATOM     17  C   UNL     1      -3.369  11.614  19.497  0.00  0.00    +0.000 C 
BRANCH  17  18
ATOM     18  C   UNL     1      -4.699  12.145  19.126  0.00  0.00    +0.000 A 
ATOM     19  C   UNL     1      -5.764  12.714  19.791  0.00  0.00    +0.000 A 
ATOM     20  C   UNL     1      -6.764  12.945  18.814  0.00  0.00    +0.000 A 
ATOM     21  C   UNL     1      -6.237  12.530  17.613  0.00  0.00    +0.000 A 
ATOM     22  O   UNL     1      -4.989  12.043  17.792  0.00  0.00    +0.000 OA
ENDBRANCH  17  18
ENDBRANCH   7  17
BRANCH  10  23
ATOM     23  C   UNL     1       0.352  10.379  18.531  0.00  0.00    +0.000 C 
BRANCH  23  24
ATOM     24  C   UNL     1       1.687   9.774  18.016  0.00  0.00    +0.000 C 
ATOM     25  O   UNL     1       2.581  10.518  17.618  0.00  0.00    +0.000 OA
ATOM     26  N   UNL     1       1.876   8.423  18.151  0.00  0.00    +0.000 N 
ATOM     27  H   UNL     1       1.066   7.833  18.329  0.00  0.00    +0.000 HD
BRANCH  26  28
ATOM     28  C   UNL     1       3.092   7.694  17.763  0.00  0.00    +0.000 C 
BRANCH  28  29
ATOM     29  C   UNL     1       3.326   6.432  18.607  0.00  0.00    +0.000 C 
BRANCH  29  30
ATOM     30  C   UNL     1       2.360   5.286  18.260  0.00  0.00    +0.000 C 
BRANCH  30  31
ATOM     31  N   UNL     1       2.020   4.446  19.415  0.00  0.00    +0.000 N 
ATOM     32  C   UNL     1       2.370   4.806  20.768  0.00  0.00    +0.000 C 
ATOM     33  C   UNL     1       2.081   3.550  21.570  0.00  0.00    +0.000 C 
ATOM     34  C   UNL     1       0.965   2.869  20.792  0.00  0.00    +0.000 C 
ATOM     35  C   UNL     1       1.228   3.304  19.365  0.00  0.00    +0.000 C 
ATOM     36  O   UNL     1       0.778   2.760  18.373  0.00  0.00    +0.000 OA
ENDBRANCH  30  31
ENDBRANCH  29  30
ENDBRANCH  28  29
ENDBRANCH  26  28
ENDBRANCH  23  24
ENDBRANCH  10  23
TORSDOF 11
ENDMDL
MODEL 2
REMARK VINA RESULT:      -6.3      1.930      2.710
REMARK  Name = 
REMARK  12 active torsions:
REMARK  status: ('A' for Active; 'I' for Inactive)
REMARK    1  A    between atoms: C_1  and  C_2
REMARK    2  A    between atoms: C_2  and  O_3
REMARK    3  A    between atoms: O_3  and  C_4
REMARK    4  A    between atoms: C_4  and  C_6
REMARK    5  A    between atoms: N_12  and  C_13
REMARK    6  A    between atoms: C_13  and  C_14
REMARK    7  A    between atoms: C_21  and  C_22
REMARK    8  A    between atoms: C_22  and  C_23
REMARK    9  A    between atoms: N_25  and  C_26
REMARK   10  A    between atoms: C_26  and  C_27
REMARK   11  A    between atoms: C_27  and  C_28
REMARK   12  A    between atoms: C_28  and  N_29
REMARK                            x       y       z     vdW  Elec       q    Type
REMARK                         _______ _______ _______ _____ _____    ______ ____
ROOT
ATOM      1  C   UNL     1      -0.344  12.917  21.008  0.00  0.00    +0.000 C 
ATOM      2  C   UNL     1       0.167  13.989  22.019  0.00  0.00    +0.000 C 
ATOM      3  C   UNL     1      -0.924  14.446  22.989  0.00  0.00    +0.000 C 
ATOM      4  C   UNL     1      -2.176  14.928  22.264  0.00  0.00    +0.000 C 
ATOM      5  C   UNL     1      -2.505  14.173  21.007  0.00  0.00    +0.000 C 
ATOM      6  C   UNL     1      -1.674  13.276  20.411  0.00  0.00    +0.000 C 
ATOM      7  N   UNL     1      -2.091  12.541  19.289  0.00  0.00    +0.000 N 
ATOM      8  C   UNL     1      -1.206  12.045  18.345  0.00  0.00    +0.000 C 
ATOM      9  O   UNL     1      -1.600  11.683  17.230  0.00  0.00    +0.000 OA
ATOM     10  C   UNL     1       0.241  11.768  18.733  0.00  0.00    +0.000 C 
ATOM     11  C   UNL     1       0.698  12.686  19.894  0.00  0.00    +0.000 C 
ENDROOT
BRANCH   1  12
ATOM     12  C   UNL     1      -0.681  11.669  21.834  0.00  0.00    +0.000 C 
ATOM     13  O   UNL     1      -1.812  11.359  22.215  0.00  0.00    +0.000 OA
BRANCH  12  14
ATOM     14  O   UNL     1       0.437  11.002  22.205  0.00  0.00    +0.000 OA
BRANCH  14  16
ATOM     15  C   UNL     1       0.593   8.653  22.044  0.00  0.00    +0.000 C 
ATOM     16  C   UNL     1       0.154   9.802  22.929  0.00  0.00    +0.000 C 
ENDBRANCH  14  16
ENDBRANCH  12  14
ENDBRANCH   1  12
BRANCH   7  17
ATOM     17  C   UNL     1      -3.293  11.699  19.459  0.00  0.00    +0.000 C 
BRANCH  17  18
ATOM     18  C   UNL     1      -4.484  12.110  18.684  0.00  0.00    +0.000 A 
ATOM     19  C   UNL     1      -4.946  11.927  17.399  0.00  0.00    +0.000 A 
ATOM     20  C   UNL     1      -6.157  12.655  17.304  0.00  0.00    +0.000 A 
ATOM     21  C   UNL     1      -6.373  13.213  18.544  0.00  0.00    +0.000 A 
ATOM     22  O   UNL     1      -5.366  12.889  19.384  0.00  0.00    +0.000 OA
ENDBRANCH  17  18
ENDBRANCH   7  17
BRANCH  10  23
ATOM     23  C   UNL     1       0.447  10.252  18.991  0.00  0.00    +0.000 C 
BRANCH  23  24
ATOM     24  C   UNL     1       1.526   9.445  18.218  0.00  0.00    +0.000 C 
ATOM     25  O   UNL     1       2.171   9.988  17.323  0.00  0.00    +0.000 OA
ATOM     26  N   UNL     1       1.820   8.178  18.654  0.00  0.00    +0.000 N 
ATOM     27  H   UNL     1       1.163   7.714  19.278  0.00  0.00    +0.000 HD
BRANCH  26  28
ATOM     28  C   UNL     1       2.841   7.297  18.072  0.00  0.00    +0.000 C 
BRANCH  28  29
ATOM     29  C   UNL     1       3.233   6.141  19.005  0.00  0.00    +0.000 C 
BRANCH  29  30
ATOM     30  C   UNL     1       4.694   5.691  18.830  0.00  0.00    +0.000 C 
BRANCH  30  31
ATOM     31  N   UNL     1       5.033   5.351  17.443  0.00  0.00    +0.000 N 
ATOM     32  C   UNL     1       4.503   4.185  16.777  0.00  0.00    +0.000 C 
ATOM     33  C   UNL     1       5.320   4.085  15.502  0.00  0.00    +0.000 C 
ATOM     34  C   UNL     1       5.712   5.525  15.206  0.00  0.00    +0.000 C 
ATOM     35  C   UNL     1       5.775   6.152  16.584  0.00  0.00    +0.000 C 
ATOM     36  O   UNL     1       6.343   7.195  16.852  0.00  0.00    +0.000 OA
ENDBRANCH  30  31
ENDBRANCH  29  30
ENDBRANCH  28  29
ENDBRANCH  26  28
ENDBRANCH  23  24
ENDBRANCH  10  23
TORSDOF 11
ENDMDL
MODEL 3
REMARK VINA RESULT:      -6.3      1.863      2.974
REMARK  Name = 
REMARK  12 active torsions:
REMARK  status: ('A' for Active; 'I' for Inactive)
REMARK    1  A    between atoms: C_1  and  C_2
REMARK    2  A    between atoms: C_2  and  O_3
REMARK    3  A    between atoms: O_3  and  C_4
REMARK    4  A    between atoms: C_4  and  C_6
REMARK    5  A    between atoms: N_12  and  C_13
REMARK    6  A    between atoms: C_13  and  C_14
REMARK    7  A    between atoms: C_21  and  C_22
REMARK    8  A    between atoms: C_22  and  C_23
REMARK    9  A    between atoms: N_25  and  C_26
REMARK   10  A    between atoms: C_26  and  C_27
REMARK   11  A    between atoms: C_27  and  C_28
REMARK   12  A    between atoms: C_28  and  N_29
REMARK                            x       y       z     vdW  Elec       q    Type
REMARK                         _______ _______ _______ _____ _____    ______ ____
ROOT
ATOM      1  C   UNL     1       1.249  12.453  19.276  0.00  0.00    +0.000 C 
ATOM      2  C   UNL     1       2.100  13.757  19.197  0.00  0.00    +0.000 C 
ATOM      3  C   UNL     1       1.298  15.003  19.582  0.00  0.00    +0.000 C 
ATOM      4  C   UNL     1       0.012  15.134  18.772  0.00  0.00    +0.000 C 
ATOM      5  C   UNL     1      -0.663  13.832  18.447  0.00  0.00    +0.000 C 
ATOM      6  C   UNL     1      -0.106  12.608  18.646  0.00  0.00    +0.000 C 
ATOM      7  N   UNL     1      -0.837  11.433  18.404  0.00  0.00    +0.000 N 
ATOM      8  C   UNL     1      -0.237  10.230  18.071  0.00  0.00    +0.000 C 
ATOM      9  O   UNL     1      -0.889   9.309  17.566  0.00  0.00    +0.000 OA
ATOM     10  C   UNL     1       1.203   9.958  18.493  0.00  0.00    +0.000 C 
ATOM     11  C   UNL     1       2.008  11.274  18.630  0.00  0.00    +0.000 C 
ENDROOT
BRANCH   1  12
ATOM     12  C   UNL     1       0.901  12.251  20.757  0.00  0.00    +0.000 C 
ATOM     13  O   UNL     1       1.498  11.495  21.526  0.00  0.00    +0.000 OA
BRANCH  12  14
ATOM     14  O   UNL     1      -0.228  12.916  21.096  0.00  0.00    +0.000 OA
BRANCH  14  16
ATOM     15  C   UNL     1      -2.024  13.292  22.580  0.00  0.00    +0.000 C 
ATOM     16  C   UNL     1      -0.686  12.598  22.413  0.00  0.00    +0.000 C 
ENDBRANCH  14  16
ENDBRANCH  12  14
ENDBRANCH   1  12
BRANCH   7  17
ATOM     17  C   UNL     1      -2.093  11.268  19.164  0.00  0.00    +0.000 C 
BRANCH  17  18
ATOM     18  C   UNL     1      -3.339  11.553  18.422  0.00  0.00    +0.000 A 
ATOM     19  C   UNL     1      -4.603  12.004  18.735  0.00  0.00    +0.000 A 
ATOM     20  C   UNL     1      -5.339  11.995  17.525  0.00  0.00    +0.000 A 
ATOM     21  C   UNL     1      -4.473  11.568  16.545  0.00  0.00    +0.000 A 
ATOM     22  O   UNL     1      -3.261  11.297  17.079  0.00  0.00    +0.000 OA
ENDBRANCH  17  18
ENDBRANCH   7  17
BRANCH  10  23
ATOM     23  C   UNL     1       1.230   9.051  19.752  0.00  0.00    +0.000 C 
BRANCH  23  24
ATOM     24  C   UNL     1       1.869   7.635  19.708  0.00  0.00    +0.000 C 
ATOM     25  O   UNL     1       2.622   7.333  18.784  0.00  0.00    +0.000 OA
ATOM     26  N   UNL     1       1.676   6.807  20.784  0.00  0.00    +0.000 N 
ATOM     27  H   UNL     1       0.928   7.026  21.438  0.00  0.00    +0.000 HD
BRANCH  26  28
ATOM     28  C   UNL     1       2.244   5.459  20.929  0.00  0.00    +0.000 C 
BRANCH  28  29
ATOM     29  C   UNL     1       1.239   4.350  20.584  0.00  0.00    +0.000 C 
BRANCH  29  30
ATOM     30  C   UNL     1       1.902   3.105  19.969  0.00  0.00    +0.000 C 
BRANCH  30  31
ATOM     31  N   UNL     1       2.897   3.428  18.939  0.00  0.00    +0.000 N 
ATOM     32  C   UNL     1       4.316   3.286  19.159  0.00  0.00    +0.000 C 
ATOM     33  C   UNL     1       4.946   3.981  17.965  0.00  0.00    +0.000 C 
ATOM     34  C   UNL     1       3.910   3.820  16.862  0.00  0.00    +0.000 C 
ATOM     35  C   UNL     1       2.603   3.770  17.625  0.00  0.00    +0.000 C 
ATOM     36  O   UNL     1       1.502   3.958  17.139  0.00  0.00    +0.000 OA
ENDBRANCH  30  31
ENDBRANCH  29  30
ENDBRANCH  28  29
ENDBRANCH  26  28
ENDBRANCH  23  24
ENDBRANCH  10  23
TORSDOF 11
ENDMDL
MODEL 4
REMARK VINA RESULT:      -6.3      2.055      2.663
REMARK  Name = 
REMARK  12 active torsions:
REMARK  status: ('A' for Active; 'I' for Inactive)
REMARK    1  A    between atoms: C_1  and  C_2
REMARK    2  A    between atoms: C_2  and  O_3
REMARK    3  A    between atoms: O_3  and  C_4
REMARK    4  A    between atoms: C_4  and  C_6
REMARK    5  A    between atoms: N_12  and  C_13
REMARK    6  A    between atoms: C_13  and  C_14
REMARK    7  A    between atoms: C_21  and  C_22
REMARK    8  A    between atoms: C_22  and  C_23
REMARK    9  A    between atoms: N_25  and  C_26
REMARK   10  A    between atoms: C_26  and  C_27
REMARK   11  A    between atoms: C_27  and  C_28
REMARK   12  A    between atoms: C_28  and  N_29
REMARK                            x       y       z     vdW  Elec       q    Type
REMARK                         _______ _______ _______ _____ _____    ______ ____
ROOT
ATOM      1  C   UNL     1      -0.605  13.043  21.236  0.00  0.00    +0.000 C 
ATOM      2  C   UNL     1      -0.030  14.072  22.257  0.00  0.00    +0.000 C 
ATOM      3  C   UNL     1      -1.012  14.384  23.390  0.00  0.00    +0.000 C 
ATOM      4  C   UNL     1      -2.373  14.830  22.867  0.00  0.00    +0.000 C 
ATOM      5  C   UNL     1      -2.817  14.146  21.605  0.00  0.00    +0.000 C 
ATOM      6  C   UNL     1      -2.020  13.352  20.840  0.00  0.00    +0.000 C 
ATOM      7  N   UNL     1      -2.535  12.672  19.724  0.00  0.00    +0.000 N 
ATOM      8  C   UNL     1      -1.753  12.307  18.641  0.00  0.00    +0.000 C 
ATOM      9  O   UNL     1      -2.266  11.999  17.558  0.00  0.00    +0.000 OA
ATOM     10  C   UNL     1      -0.254  12.101  18.822  0.00  0.00    +0.000 C 
ATOM     11  C   UNL     1       0.296  12.963  19.986  0.00  0.00    +0.000 C 
ENDROOT
BRANCH   1  12
ATOM     12  C   UNL     1      -0.759  11.719  21.996  0.00  0.00    +0.000 C 
ATOM     13  O   UNL     1      -1.807  11.314  22.504  0.00  0.00    +0.000 OA
BRANCH  12  14
ATOM     14  O   UNL     1       0.431  11.093  22.151  0.00  0.00    +0.000 OA
BRANCH  14  16
ATOM     15  C   UNL     1       0.985   8.812  21.915  0.00  0.00    +0.000 C 
ATOM     16  C   UNL     1       0.315   9.832  22.814  0.00  0.00    +0.000 C 
ENDBRANCH  14  16
ENDBRANCH  12  14
ENDBRANCH   1  12
BRANCH   7  17
ATOM     17  C   UNL     1      -3.655  11.741  19.976  0.00  0.00    +0.000 C 
BRANCH  17  18
ATOM     18  C   UNL     1      -4.999  12.353  20.047  0.00  0.00    +0.000 A 
ATOM     19  C   UNL     1      -5.758  13.183  19.251  0.00  0.00    +0.000 A 
ATOM     20  C   UNL     1      -6.959  13.426  19.962  0.00  0.00    +0.000 A 
ATOM     21  C   UNL     1      -6.872  12.706  21.131  0.00  0.00    +0.000 A 
ATOM     22  O   UNL     1      -5.689  12.055  21.192  0.00  0.00    +0.000 OA
ENDBRANCH  17  18
ENDBRANCH   7  17
BRANCH  10  23
ATOM     23  C   UNL     1       0.071  10.588  18.931  0.00  0.00    +0.000 C 
BRANCH  23  24
ATOM     24  C   UNL     1       1.386  10.004  18.344  0.00  0.00    +0.000 C 
ATOM     25  O   UNL     1       2.270  10.764  17.953  0.00  0.00    +0.000 OA
ATOM     26  N   UNL     1       1.574   8.648  18.406  0.00  0.00    +0.000 N 
ATOM     27  H   UNL     1       0.766   8.052  18.580  0.00  0.00    +0.000 HD
BRANCH  26  28
ATOM     28  C   UNL     1       2.773   7.935  17.943  0.00  0.00    +0.000 C 
BRANCH  28  29
ATOM     29  C   UNL     1       2.840   6.488  18.454  0.00  0.00    +0.000 C 
BRANCH  29  30
ATOM     30  C   UNL     1       3.768   5.593  17.613  0.00  0.00    +0.000 C 
BRANCH  30  31
ATOM     31  N   UNL     1       5.182   5.710  17.990  0.00  0.00    +0.000 N 
ATOM     32  C   UNL     1       5.729   5.072  19.164  0.00  0.00    +0.000 C 
ATOM     33  C   UNL     1       7.112   5.681  19.304  0.00  0.00    +0.000 C 
ATOM     34  C   UNL     1       7.501   6.035  17.877  0.00  0.00    +0.000 C 
ATOM     35  C   UNL     1       6.166   6.317  17.219  0.00  0.00    +0.000 C 
ATOM     36  O   UNL     1       6.015   6.930  16.178  0.00  0.00    +0.000 OA
ENDBRANCH  30  31
ENDBRANCH  29  30
ENDBRANCH  28  29
ENDBRANCH  26  28
ENDBRANCH  23  24
ENDBRANCH  10  23
TORSDOF 11
ENDMDL
MODEL 5
REMARK VINA RESULT:      -6.3      2.242      4.568
REMARK  Name = 
REMARK  12 active torsions:
REMARK  status: ('A' for Active; 'I' for Inactive)
REMARK    1  A    between atoms: C_1  and  C_2
REMARK    2  A    between atoms: C_2  and  O_3
REMARK    3  A    between atoms: O_3  and  C_4
REMARK    4  A    between atoms: C_4  and  C_6
REMARK    5  A    between atoms: N_12  and  C_13
REMARK    6  A    between atoms: C_13  and  C_14
REMARK    7  A    between atoms: C_21  and  C_22
REMARK    8  A    between atoms: C_22  and  C_23
REMARK    9  A    between atoms: N_25  and  C_26
REMARK   10  A    between atoms: C_26  and  C_27
REMARK   11  A    between atoms: C_27  and  C_28
REMARK   12  A    between atoms: C_28  and  N_29
REMARK                            x       y       z     vdW  Elec       q    Type
REMARK                         _______ _______ _______ _____ _____    ______ ____
ROOT
ATOM      1  C   UNL     1      -1.272  13.112  22.318  0.00  0.00    +0.000 C 
ATOM      2  C   UNL     1      -1.925  13.325  23.718  0.00  0.00    +0.000 C 
ATOM      3  C   UNL     1      -2.248  14.796  23.995  0.00  0.00    +0.000 C 
ATOM      4  C   UNL     1      -1.032  15.697  23.812  0.00  0.00    +0.000 C 
ATOM      5  C   UNL     1      -0.107  15.290  22.700  0.00  0.00    +0.000 C 
ATOM      6  C   UNL     1      -0.187  14.109  22.030  0.00  0.00    +0.000 C 
ATOM      7  N   UNL     1       0.656  13.840  20.939  0.00  0.00    +0.000 N 
ATOM      8  C   UNL     1       1.010  12.555  20.562  0.00  0.00    +0.000 C 
ATOM      9  O   UNL     1       1.976  12.350  19.818  0.00  0.00    +0.000 OA
ATOM     10  C   UNL     1       0.098  11.384  20.913  0.00  0.00    +0.000 C 
ATOM     11  C   UNL     1      -0.725  11.674  22.192  0.00  0.00    +0.000 C 
ENDROOT
BRANCH   1  12
ATOM     12  C   UNL     1      -2.340  13.480  21.280  0.00  0.00    +0.000 C 
ATOM     13  O   UNL     1      -2.359  14.526  20.627  0.00  0.00    +0.000 OA
BRANCH  12  14
ATOM     14  O   UNL     1      -3.339  12.567  21.250  0.00  0.00    +0.000 OA
BRANCH  14  16
ATOM     15  C   UNL     1      -5.578  12.638  20.507  0.00  0.00    +0.000 C 
ATOM     16  C   UNL     1      -4.129  12.646  20.061  0.00  0.00    +0.000 C 
ENDBRANCH  14  16
ENDBRANCH  12  14
ENDBRANCH   1  12
BRANCH   7  17
ATOM     17  C   UNL     1       0.590  14.783  19.803  0.00  0.00    +0.000 C 
BRANCH  17  18
ATOM     18  C   UNL     1       1.828  15.542  19.522  0.00  0.00    +0.000 A 
ATOM     19  C   UNL     1       2.619  16.443  20.201  0.00  0.00    +0.000 A 
ATOM     20  C   UNL     1       3.645  16.827  19.304  0.00  0.00    +0.000 A 
ATOM     21  C   UNL     1       3.434  16.115  18.145  0.00  0.00    +0.000 A 
ATOM     22  O   UNL     1       2.336  15.337  18.267  0.00  0.00    +0.000 OA
ENDBRANCH  17  18
ENDBRANCH   7  17
BRANCH  10  23
ATOM     23  C   UNL     1      -0.750  10.976  19.679  0.00  0.00    +0.000 C 
BRANCH  23  24
ATOM     24  C   UNL     1      -0.178  10.030  18.588  0.00  0.00    +0.000 C 
ATOM     25  O   UNL     1      -0.758   9.919  17.510  0.00  0.00    +0.000 OA
ATOM     26  N   UNL     1       1.043   9.447  18.816  0.00  0.00    +0.000 N 
ATOM     27  H   UNL     1       1.404   9.431  19.767  0.00  0.00    +0.000 HD
BRANCH  26  28
ATOM     28  C   UNL     1       1.750   8.566  17.876  0.00  0.00    +0.000 C 
BRANCH  28  29
ATOM     29  C   UNL     1       2.741   7.622  18.574  0.00  0.00    +0.000 C 
BRANCH  29  30
ATOM     30  C   UNL     1       2.709   6.190  18.013  0.00  0.00    +0.000 C 
BRANCH  30  31
ATOM     31  N   UNL     1       2.152   5.212  18.955  0.00  0.00    +0.000 N 
ATOM     32  C   UNL     1       2.095   5.447  20.378  0.00  0.00    +0.000 C 
ATOM     33  C   UNL     1       1.717   4.097  20.960  0.00  0.00    +0.000 C 
ATOM     34  C   UNL     1       0.915   3.433  19.851  0.00  0.00    +0.000 C 
ATOM     35  C   UNL     1       1.508   4.034  18.594  0.00  0.00    +0.000 C 
ATOM     36  O   UNL     1       1.389   3.570  17.474  0.00  0.00    +0.000 OA
ENDBRANCH  30  31
ENDBRANCH  29  30
ENDBRANCH  28  29
ENDBRANCH  26  28
ENDBRANCH  23  24
ENDBRANCH  10  23
TORSDOF 11
ENDMDL
MODEL 6
REMARK VINA RESULT:      -6.2      0.997      1.193
REMARK  Name = 
REMARK  12 active torsions:
REMARK  status: ('A' for Active; 'I' for Inactive)
REMARK    1  A    between atoms: C_1  and  C_2
REMARK    2  A    between atoms: C_2  and  O_3
REMARK    3  A    between atoms: O_3  and  C_4
REMARK    4  A    between atoms: C_4  and  C_6
REMARK    5  A    between atoms: N_12  and  C_13
REMARK    6  A    between atoms: C_13  and  C_14
REMARK    7  A    between atoms: C_21  and  C_22
REMARK    8  A    between atoms: C_22  and  C_23
REMARK    9  A    between atoms: N_25  and  C_26
REMARK   10  A    between atoms: C_26  and  C_27
REMARK   11  A    between atoms: C_27  and  C_28
REMARK   12  A    between atoms: C_28  and  N_29
REMARK                            x       y       z     vdW  Elec       q    Type
REMARK                         _______ _______ _______ _____ _____    ______ ____
ROOT
ATOM      1  C   UNL     1      -0.665  13.071  20.897  0.00  0.00    +0.000 C 
ATOM      2  C   UNL     1      -0.202  14.169  21.902  0.00  0.00    +0.000 C 
ATOM      3  C   UNL     1      -1.278  14.508  22.936  0.00  0.00    +0.000 C 
ATOM      4  C   UNL     1      -2.605  14.883  22.286  0.00  0.00    +0.000 C 
ATOM      5  C   UNL     1      -2.930  14.121  21.032  0.00  0.00    +0.000 C 
ATOM      6  C   UNL     1      -2.053  13.315  20.376  0.00  0.00    +0.000 C 
ATOM      7  N   UNL     1      -2.459  12.562  19.261  0.00  0.00    +0.000 N 
ATOM      8  C   UNL     1      -1.585  12.166  18.263  0.00  0.00    +0.000 C 
ATOM      9  O   UNL     1      -2.002  11.787  17.162  0.00  0.00    +0.000 OA
ATOM     10  C   UNL     1      -0.099  12.017  18.571  0.00  0.00    +0.000 C 
ATOM     11  C   UNL     1       0.333  12.955  19.726  0.00  0.00    +0.000 C 
ENDROOT
BRANCH   1  12
ATOM     12  C   UNL     1      -0.843  11.784  21.712  0.00  0.00    +0.000 C 
ATOM     13  O   UNL     1      -1.922  11.355  22.128  0.00  0.00    +0.000 OA
BRANCH  12  14
ATOM     14  O   UNL     1       0.350  11.229  22.031  0.00  0.00    +0.000 OA
BRANCH  14  16
ATOM     15  C   UNL     1       0.977   8.955  21.989  0.00  0.00    +0.000 C 
ATOM     16  C   UNL     1       0.217  10.011  22.767  0.00  0.00    +0.000 C 
ENDBRANCH  14  16
ENDBRANCH  12  14
ENDBRANCH   1  12
BRANCH   7  17
ATOM     17  C   UNL     1      -3.570  11.611  19.476  0.00  0.00    +0.000 C 
BRANCH  17  18
ATOM     18  C   UNL     1      -4.862  11.977  18.858  0.00  0.00    +0.000 A 
ATOM     19  C   UNL     1      -5.347  12.121  17.576  0.00  0.00    +0.000 A 
ATOM     20  C   UNL     1      -6.688  12.556  17.704  0.00  0.00    +0.000 A 
ATOM     21  C   UNL     1      -6.948  12.622  19.054  0.00  0.00    +0.000 A 
ATOM     22  O   UNL     1      -5.848  12.275  19.759  0.00  0.00    +0.000 OA
ENDBRANCH  17  18
ENDBRANCH   7  17
BRANCH  10  23
ATOM     23  C   UNL     1       0.257  10.523  18.786  0.00  0.00    +0.000 C 
BRANCH  23  24
ATOM     24  C   UNL     1       1.590   9.930  18.252  0.00  0.00    +0.000 C 
ATOM     25  O   UNL     1       2.489  10.683  17.882  0.00  0.00    +0.000 OA
ATOM     26  N   UNL     1       1.774   8.574  18.340  0.00  0.00    +0.000 N 
ATOM     27  H   UNL     1       0.960   7.982  18.494  0.00  0.00    +0.000 HD
BRANCH  26  28
ATOM     28  C   UNL     1       2.987   7.854  17.928  0.00  0.00    +0.000 C 
BRANCH  28  29
ATOM     29  C   UNL     1       2.812   6.328  17.953  0.00  0.00    +0.000 C 
BRANCH  29  30
ATOM     30  C   UNL     1       3.631   5.644  19.061  0.00  0.00    +0.000 C 
BRANCH  30  31
ATOM     31  N   UNL     1       2.909   4.553  19.725  0.00  0.00    +0.000 N 
ATOM     32  C   UNL     1       3.326   3.174  19.633  0.00  0.00    +0.000 C 
ATOM     33  C   UNL     1       2.161   2.396  20.218  0.00  0.00    +0.000 C 
ATOM     34  C   UNL     1       1.537   3.365  21.210  0.00  0.00    +0.000 C 
ATOM     35  C   UNL     1       1.846   4.719  20.606  0.00  0.00    +0.000 C 
ATOM     36  O   UNL     1       1.280   5.759  20.892  0.00  0.00    +0.000 OA
ENDBRANCH  30  31
ENDBRANCH  29  30
ENDBRANCH  28  29
ENDBRANCH  26  28
ENDBRANCH  23  24
ENDBRANCH  10  23
TORSDOF 11
ENDMDL
MODEL 7
REMARK VINA RESULT:      -6.2      2.804      4.089
REMARK  Name = 
REMARK  12 active torsions:
REMARK  status: ('A' for Active; 'I' for Inactive)
REMARK    1  A    between atoms: C_1  and  C_2
REMARK    2  A    between atoms: C_2  and  O_3
REMARK    3  A    between atoms: O_3  and  C_4
REMARK    4  A    between atoms: C_4  and  C_6
REMARK    5  A    between atoms: N_12  and  C_13
REMARK    6  A    between atoms: C_13  and  C_14
REMARK    7  A    between atoms: C_21  and  C_22
REMARK    8  A    between atoms: C_22  and  C_23
REMARK    9  A    between atoms: N_25  and  C_26
REMARK   10  A    between atoms: C_26  and  C_27
REMARK   11  A    between atoms: C_27  and  C_28
REMARK   12  A    between atoms: C_28  and  N_29
REMARK                            x       y       z     vdW  Elec       q    Type
REMARK                         _______ _______ _______ _____ _____    ______ ____
ROOT
ATOM      1  C   UNL     1      -0.402  13.491  20.541  0.00  0.00    +0.000 C 
ATOM      2  C   UNL     1      -0.052  14.142  19.169  0.00  0.00    +0.000 C 
ATOM      3  C   UNL     1       0.114  15.661  19.266  0.00  0.00    +0.000 C 
ATOM      4  C   UNL     1      -1.100  16.333  19.900  0.00  0.00    +0.000 C 
ATOM      5  C   UNL     1      -1.760  15.541  20.993  0.00  0.00    +0.000 C 
ATOM      6  C   UNL     1      -1.473  14.243  21.280  0.00  0.00    +0.000 C 
ATOM      7  N   UNL     1      -2.066  13.598  22.378  0.00  0.00    +0.000 N 
ATOM      8  C   UNL     1      -2.254  12.226  22.432  0.00  0.00    +0.000 C 
ATOM      9  O   UNL     1      -3.040  11.721  23.242  0.00  0.00    +0.000 OA
ATOM     10  C   UNL     1      -1.354  11.305  21.616  0.00  0.00    +0.000 C 
ATOM     11  C   UNL     1      -0.819  12.017  20.349  0.00  0.00    +0.000 C 
ENDROOT
BRANCH   1  12
ATOM     12  C   UNL     1       0.822  13.694  21.443  0.00  0.00    +0.000 C 
ATOM     13  O   UNL     1       0.854  14.422  22.438  0.00  0.00    +0.000 OA
BRANCH  12  14
ATOM     14  O   UNL     1       1.915  13.069  20.946  0.00  0.00    +0.000 OA
BRANCH  14  16
ATOM     15  C   UNL     1       3.504  14.422  19.844  0.00  0.00    +0.000 C 
ATOM     16  C   UNL     1       3.124  13.798  21.173  0.00  0.00    +0.000 C 
ENDBRANCH  14  16
ENDBRANCH  12  14
ENDBRANCH   1  12
BRANCH   7  17
ATOM     17  C   UNL     1      -1.840  14.208  23.704  0.00  0.00    +0.000 C 
BRANCH  17  18
ATOM     18  C   UNL     1      -2.871  15.167  24.157  0.00  0.00    +0.000 A 
ATOM     19  C   UNL     1      -2.916  16.252  25.006  0.00  0.00    +0.000 A 
ATOM     20  C   UNL     1      -4.264  16.687  25.022  0.00  0.00    +0.000 A 
ATOM     21  C   UNL     1      -4.950  15.861  24.162  0.00  0.00    +0.000 A 
ATOM     22  O   UNL     1      -4.116  14.938  23.635  0.00  0.00    +0.000 OA
ENDBRANCH  17  18
ENDBRANCH   7  17
BRANCH  10  23
ATOM     23  C   UNL     1      -0.256  10.688  22.521  0.00  0.00    +0.000 C 
BRANCH  23  24
ATOM     24  C   UNL     1       0.889   9.825  21.921  0.00  0.00    +0.000 C 
ATOM     25  O   UNL     1       1.809   9.445  22.642  0.00  0.00    +0.000 OA
ATOM     26  N   UNL     1       0.762   9.397  20.625  0.00  0.00    +0.000 N 
ATOM     27  H   UNL     1       0.083   9.860  20.024  0.00  0.00    +0.000 HD
BRANCH  26  28
ATOM     28  C   UNL     1       1.722   8.539  19.917  0.00  0.00    +0.000 C 
BRANCH  28  29
ATOM     29  C   UNL     1       1.664   7.074  20.378  0.00  0.00    +0.000 C 
BRANCH  29  30
ATOM     30  C   UNL     1       2.245   6.092  19.346  0.00  0.00    +0.000 C 
BRANCH  30  31
ATOM     31  N   UNL     1       1.800   4.708  19.548  0.00  0.00    +0.000 N 
ATOM     32  C   UNL     1       1.572   4.149  20.859  0.00  0.00    +0.000 C 
ATOM     33  C   UNL     1       1.405   2.662  20.602  0.00  0.00    +0.000 C 
ATOM     34  C   UNL     1       0.846   2.598  19.189  0.00  0.00    +0.000 C 
ATOM     35  C   UNL     1       1.425   3.834  18.534  0.00  0.00    +0.000 C 
ATOM     36  O   UNL     1       1.498   4.022  17.333  0.00  0.00    +0.000 OA
ENDBRANCH  30  31
ENDBRANCH  29  30
ENDBRANCH  28  29
ENDBRANCH  26  28
ENDBRANCH  23  24
ENDBRANCH  10  23
TORSDOF 11
ENDMDL
MODEL 8
REMARK VINA RESULT:      -6.1      2.236      4.731
REMARK  Name = 
REMARK  12 active torsions:
REMARK  status: ('A' for Active; 'I' for Inactive)
REMARK    1  A    between atoms: C_1  and  C_2
REMARK    2  A    between atoms: C_2  and  O_3
REMARK    3  A    between atoms: O_3  and  C_4
REMARK    4  A    between atoms: C_4  and  C_6
REMARK    5  A    between atoms: N_12  and  C_13
REMARK    6  A    between atoms: C_13  and  C_14
REMARK    7  A    between atoms: C_21  and  C_22
REMARK    8  A    between atoms: C_22  and  C_23
REMARK    9  A    between atoms: N_25  and  C_26
REMARK   10  A    between atoms: C_26  and  C_27
REMARK   11  A    between atoms: C_27  and  C_28
REMARK   12  A    between atoms: C_28  and  N_29
REMARK                            x       y       z     vdW  Elec       q    Type
REMARK                         _______ _______ _______ _____ _____    ______ ____
ROOT
ATOM      1  C   UNL     1      -2.082  12.575  22.610  0.00  0.00    +0.000 C 
ATOM      2  C   UNL     1      -3.091  12.560  23.799  0.00  0.00    +0.000 C 
ATOM      3  C   UNL     1      -3.531  13.967  24.211  0.00  0.00    +0.000 C 
ATOM      4  C   UNL     1      -2.345  14.879  24.507  0.00  0.00    +0.000 C 
ATOM      5  C   UNL     1      -1.143  14.653  23.634  0.00  0.00    +0.000 C 
ATOM      6  C   UNL     1      -0.998  13.599  22.787  0.00  0.00    +0.000 C 
ATOM      7  N   UNL     1       0.114  13.507  21.933  0.00  0.00    +0.000 N 
ATOM      8  C   UNL     1       0.603  12.299  21.464  0.00  0.00    +0.000 C 
ATOM      9  O   UNL     1       1.739  12.213  20.983  0.00  0.00    +0.000 OA
ATOM     10  C   UNL     1      -0.324  11.092  21.366  0.00  0.00    +0.000 C 
ATOM     11  C   UNL     1      -1.467  11.174  22.407  0.00  0.00    +0.000 C 
ENDROOT
BRANCH   1  12
ATOM     12  C   UNL     1      -2.850  13.115  21.397  0.00  0.00    +0.000 C 
ATOM     13  O   UNL     1      -2.502  14.082  20.715  0.00  0.00    +0.000 OA
BRANCH  12  14
ATOM     14  O   UNL     1      -4.032  12.476  21.232  0.00  0.00    +0.000 OA
BRANCH  14  16
ATOM     15  C   UNL     1      -5.970  12.156  19.925  0.00  0.00    +0.000 C 
ATOM     16  C   UNL     1      -4.496  12.507  19.880  0.00  0.00    +0.000 C 
ENDBRANCH  14  16
ENDBRANCH  12  14
ENDBRANCH   1  12
BRANCH   7  17
ATOM     17  C   UNL     1       0.316  14.624  20.987  0.00  0.00    +0.000 C 
BRANCH  17  18
ATOM     18  C   UNL     1       1.422  15.551  21.309  0.00  0.00    +0.000 A 
ATOM     19  C   UNL     1       2.513  15.544  22.151  0.00  0.00    +0.000 A 
ATOM     20  C   UNL     1       3.143  16.803  21.996  0.00  0.00    +0.000 A 
ATOM     21  C   UNL     1       2.417  17.487  21.049  0.00  0.00    +0.000 A 
ATOM     22  O   UNL     1       1.373  16.738  20.629  0.00  0.00    +0.000 OA
ENDBRANCH  17  18
ENDBRANCH   7  17
BRANCH  10  23
ATOM     23  C   UNL     1      -0.798  10.898  19.901  0.00  0.00    +0.000 C 
BRANCH  23  24
ATOM     24  C   UNL     1      -0.022   9.975  18.921  0.00  0.00    +0.000 C 
ATOM     25  O   UNL     1      -0.400   9.866  17.757  0.00  0.00    +0.000 OA
ATOM     26  N   UNL     1       1.151   9.414  19.356  0.00  0.00    +0.000 N 
ATOM     27  H   UNL     1       1.339   9.395  20.357  0.00  0.00    +0.000 HD
BRANCH  26  28
ATOM     28  C   UNL     1       2.032   8.558  18.550  0.00  0.00    +0.000 C 
BRANCH  28  29
ATOM     29  C   UNL     1       2.365   7.227  19.240  0.00  0.00    +0.000 C 
BRANCH  29  30
ATOM     30  C   UNL     1       2.283   6.018  18.292  0.00  0.00    +0.000 C 
BRANCH  30  31
ATOM     31  N   UNL     1       1.870   4.781  18.966  0.00  0.00    +0.000 N 
ATOM     32  C   UNL     1       1.470   4.747  20.353  0.00  0.00    +0.000 C 
ATOM     33  C   UNL     1       1.406   3.267  20.683  0.00  0.00    +0.000 C 
ATOM     34  C   UNL     1       1.071   2.611  19.352  0.00  0.00    +0.000 C 
ATOM     35  C   UNL     1       1.690   3.553  18.340  0.00  0.00    +0.000 C 
ATOM     36  O   UNL     1       1.935   3.272  17.181  0.00  0.00    +0.000 OA
ENDBRANCH  30  31
ENDBRANCH  29  30
ENDBRANCH  28  29
ENDBRANCH  26  28
ENDBRANCH  23  24
ENDBRANCH  10  23
TORSDOF 11
ENDMDL
MODEL 9
REMARK VINA RESULT:      -6.1      1.380      1.687
REMARK  Name = 
REMARK  12 active torsions:
REMARK  status: ('A' for Active; 'I' for Inactive)
REMARK    1  A    between atoms: C_1  and  C_2
REMARK    2  A    between atoms: C_2  and  O_3
REMARK    3  A    between atoms: O_3  and  C_4
REMARK    4  A    between atoms: C_4  and  C_6
REMARK    5  A    between atoms: N_12  and  C_13
REMARK    6  A    between atoms: C_13  and  C_14
REMARK    7  A    between atoms: C_21  and  C_22
REMARK    8  A    between atoms: C_22  and  C_23
REMARK    9  A    between atoms: N_25  and  C_26
REMARK   10  A    between atoms: C_26  and  C_27
REMARK   11  A    between atoms: C_27  and  C_28
REMARK   12  A    between atoms: C_28  and  N_29
REMARK                            x       y       z     vdW  Elec       q    Type
REMARK                         _______ _______ _______ _____ _____    ______ ____
ROOT
ATOM      1  C   UNL     1      -0.392  13.025  20.746  0.00  0.00    +0.000 C 
ATOM      2  C   UNL     1       0.237  14.132  21.646  0.00  0.00    +0.000 C 
ATOM      3  C   UNL     1      -0.753  14.682  22.676  0.00  0.00    +0.000 C 
ATOM      4  C   UNL     1      -2.046  15.168  22.030  0.00  0.00    +0.000 C 
ATOM      5  C   UNL     1      -2.505  14.357  20.851  0.00  0.00    +0.000 C 
ATOM      6  C   UNL     1      -1.757  13.399  20.241  0.00  0.00    +0.000 C 
ATOM      7  N   UNL     1      -2.291  12.618  19.202  0.00  0.00    +0.000 N 
ATOM      8  C   UNL     1      -1.506  12.039  18.218  0.00  0.00    +0.000 C 
ATOM      9  O   UNL     1      -2.004  11.630  17.163  0.00  0.00    +0.000 OA
ATOM     10  C   UNL     1      -0.040  11.731  18.501  0.00  0.00    +0.000 C 
ATOM     11  C   UNL     1       0.543  12.694  19.564  0.00  0.00    +0.000 C 
ENDROOT
BRANCH   1  12
ATOM     12  C   UNL     1      -0.698  11.838  21.668  0.00  0.00    +0.000 C 
ATOM     13  O   UNL     1      -1.821  11.526  22.070  0.00  0.00    +0.000 OA
BRANCH  12  14
ATOM     14  O   UNL     1       0.436  11.234  22.094  0.00  0.00    +0.000 OA
BRANCH  14  16
ATOM     15  C   UNL     1       0.257   9.385  23.548  0.00  0.00    +0.000 C 
ATOM     16  C   UNL     1       0.341   9.808  22.095  0.00  0.00    +0.000 C 
ENDBRANCH  14  16
ENDBRANCH  12  14
ENDBRANCH   1  12
BRANCH   7  17
ATOM     17  C   UNL     1      -3.501  11.832  19.521  0.00  0.00    +0.000 C 
BRANCH  17  18
ATOM     18  C   UNL     1      -4.732  12.222  18.800  0.00  0.00    +0.000 A 
ATOM     19  C   UNL     1      -5.401  11.798  17.672  0.00  0.00    +0.000 A 
ATOM     20  C   UNL     1      -6.509  12.666  17.518  0.00  0.00    +0.000 A 
ATOM     21  C   UNL     1      -6.465  13.545  18.576  0.00  0.00    +0.000 A 
ATOM     22  O   UNL     1      -5.393  13.284  19.356  0.00  0.00    +0.000 OA
ENDBRANCH  17  18
ENDBRANCH   7  17
BRANCH  10  23
ATOM     23  C   UNL     1       0.138  10.225  18.829  0.00  0.00    +0.000 C 
BRANCH  23  24
ATOM     24  C   UNL     1       1.354   9.423  18.287  0.00  0.00    +0.000 C 
ATOM     25  O   UNL     1       2.098   9.933  17.452  0.00  0.00    +0.000 OA
ATOM     26  N   UNL     1       1.637   8.212  18.865  0.00  0.00    +0.000 N 
ATOM     27  H   UNL     1       0.917   7.760  19.425  0.00  0.00    +0.000 HD
BRANCH  26  28
ATOM     28  C   UNL     1       2.771   7.348  18.510  0.00  0.00    +0.000 C 
BRANCH  28  29
ATOM     29  C   UNL     1       3.000   6.218  19.526  0.00  0.00    +0.000 C 
BRANCH  29  30
ATOM     30  C   UNL     1       4.142   5.268  19.125  0.00  0.00    +0.000 C 
BRANCH  30  31
ATOM     31  N   UNL     1       3.669   3.955  18.670  0.00  0.00    +0.000 N 
ATOM     32  C   UNL     1       3.126   3.739  17.350  0.00  0.00    +0.000 C 
ATOM     33  C   UNL     1       2.526   2.346  17.420  0.00  0.00    +0.000 C 
ATOM     34  C   UNL     1       3.372   1.638  18.468  0.00  0.00    +0.000 C 
ATOM     35  C   UNL     1       3.804   2.768  19.380  0.00  0.00    +0.000 C 
ATOM     36  O   UNL     1       4.230   2.629  20.512  0.00  0.00    +0.000 OA
ENDBRANCH  30  31
ENDBRANCH  29  30
ENDBRANCH  28  29
ENDBRANCH  26  28
ENDBRANCH  23  24
ENDBRANCH  10  23
TORSDOF 11
ENDMDL
