MODEL 1
REMARK VINA RESULT:      -8.0      0.000      0.000
REMARK  Name = 
REMARK  11 active torsions:
REMARK  status: ('A' for Active; 'I' for Inactive)
REMARK    1  A    between atoms: C_1  and  C_2
REMARK    2  A    between atoms: N_4  and  C_5
REMARK    3  A    between atoms: C_5  and  C_6
REMARK    4  A    between atoms: C_5  and  C_7
REMARK    5  A    between atoms: C_7  and  C_8
REMARK    6  A    between atoms: C_11  and  C_12
REMARK    7  A    between atoms: C_13  and  C_14
REMARK    8  A    between atoms: C_18  and  C_19
REMARK    9  A    between atoms: N_21  and  C_22
REMARK   10  A    between atoms: N_21  and  C_23
REMARK   11  A    between atoms: C_23  and  C_24
REMARK                            x       y       z     vdW  Elec       q    Type
REMARK                         _______ _______ _______ _____ _____    ______ ____
ROOT
ATOM      1  C   UNL     1       9.357  10.518  18.544  0.00  0.00    +0.000 A 
ATOM      2  C   UNL     1      10.376  10.940  17.691  0.00  0.00    +0.000 A 
ATOM      3  C   UNL     1      11.092  12.095  18.008  0.00  0.00    +0.000 A 
ATOM      4  C   UNL     1      10.750  12.842  19.143  0.00  0.00    +0.000 A 
ATOM      5  C   UNL     1       9.689  12.448  19.981  0.00  0.00    +0.000 A 
ATOM      6  C   UNL     1       9.044  11.250  19.693  0.00  0.00    +0.000 A 
ENDROOT
BRANCH   5   7
ATOM      7  C   UNL     1       9.438  13.225  21.234  0.00  0.00    +0.000 C 
ATOM      8  O   UNL     1       9.690  12.633  22.287  0.00  0.00    +0.000 OA
ATOM      9  N   UNL     1       8.924  14.535  21.243  0.00  0.00    +0.000 N 
ATOM     10  C   UNL     1       8.803  15.452  20.114  0.00  0.00    +0.000 C 
BRANCH   9  11
ATOM     11  C   UNL     1       8.645  15.120  22.558  0.00  0.00    +0.000 C 
BRANCH  11  12
ATOM     12  C   UNL     1       7.316  14.763  23.184  0.00  0.00    +0.000 A 
ATOM     13  C   UNL     1       7.238  14.119  24.423  0.00  0.00    +0.000 A 
ATOM     14  C   UNL     1       5.993  13.970  25.023  0.00  0.00    +0.000 A 
ATOM     15  N   UNL     1       4.835  14.391  24.473  0.00  0.00    +0.000 NA
ATOM     16  C   UNL     1       4.925  14.975  23.259  0.00  0.00    +0.000 A 
ATOM     17  C   UNL     1       6.121  15.173  22.583  0.00  0.00    +0.000 A 
ENDBRANCH  11  12
ENDBRANCH   9  11
ENDBRANCH   5   7
BRANCH   1  19
ATOM     18  C   UNL     1       8.036   8.299  18.050  0.00  0.00    +0.000 C 
ATOM     19  C   UNL     1       8.644   9.303  18.330  0.00  0.00    +0.000 C 
BRANCH  18  23
ATOM     20  C   UNL     1       5.653   4.920  17.158  0.00  0.00    +0.000 A 
ATOM     21  C   UNL     1       5.352   6.185  16.636  0.00  0.00    +0.000 A 
ATOM     22  C   UNL     1       6.149   7.283  16.936  0.00  0.00    +0.000 A 
ATOM     23  C   UNL     1       7.257   7.143  17.765  0.00  0.00    +0.000 A 
ATOM     24  C   UNL     1       7.585   5.883  18.286  0.00  0.00    +0.000 A 
ATOM     25  C   UNL     1       6.780   4.777  17.983  0.00  0.00    +0.000 A 
BRANCH  20  26
ATOM     26  C   UNL     1       4.739   3.747  16.878  0.00  0.00    +0.000 C 
BRANCH  26  27
ATOM     27  C   UNL     1       3.975   3.225  18.112  0.00  0.00    +0.000 C 
ATOM     28  C   UNL     1       3.084   2.043  17.731  0.00  0.00    +0.000 C 
BRANCH  27  32
ATOM     29  C   UNL     1       1.920   5.331  20.504  0.00  0.00    +0.000 C 
ATOM     30  C   UNL     1       2.768   4.177  20.051  0.00  0.00    +0.000 C 
ATOM     31  O   UNL     1       3.066   3.249  20.794  0.00  0.00    +0.000 OA
ATOM     32  N   UNL     1       3.176   4.273  18.739  0.00  0.00    +0.000 N 
ATOM     33  H   UNL     1       2.822   5.028  18.167  0.00  0.00    +0.000 HD
ENDBRANCH  27  32
ENDBRANCH  26  27
ENDBRANCH  20  26
ENDBRANCH  18  23
ENDBRANCH   1  19
TORSDOF 8
ENDMDL
MODEL 2
REMARK VINA RESULT:      -8.0      2.617     10.370
REMARK  Name = 
REMARK  11 active torsions:
REMARK  status: ('A' for Active; 'I' for Inactive)
REMARK    1  A    between atoms: C_1  and  C_2
REMARK    2  A    between atoms: N_4  and  C_5
REMARK    3  A    between atoms: C_5  and  C_6
REMARK    4  A    between atoms: C_5  and  C_7
REMARK    5  A    between atoms: C_7  and  C_8
REMARK    6  A    between atoms: C_11  and  C_12
REMARK    7  A    between atoms: C_13  and  C_14
REMARK    8  A    between atoms: C_18  and  C_19
REMARK    9  A    between atoms: N_21  and  C_22
REMARK   10  A    between atoms: N_21  and  C_23
REMARK   11  A    between atoms: C_23  and  C_24
REMARK                            x       y       z     vdW  Elec       q    Type
REMARK                         _______ _______ _______ _____ _____    ______ ____
ROOT
ATOM      1  C   UNL     1       7.040   6.574  16.885  0.00  0.00    +0.000 A 
ATOM      2  C   UNL     1       7.538   5.933  15.751  0.00  0.00    +0.000 A 
ATOM      3  C   UNL     1       6.820   4.871  15.202  0.00  0.00    +0.000 A 
ATOM      4  C   UNL     1       5.641   4.429  15.817  0.00  0.00    +0.000 A 
ATOM      5  C   UNL     1       5.159   5.041  16.990  0.00  0.00    +0.000 A 
ATOM      6  C   UNL     1       5.845   6.150  17.474  0.00  0.00    +0.000 A 
ENDROOT
BRANCH   5   7
ATOM      7  C   UNL     1       3.842   4.596  17.542  0.00  0.00    +0.000 C 
ATOM      8  O   UNL     1       3.707   3.377  17.679  0.00  0.00    +0.000 OA
ATOM      9  N   UNL     1       2.799   5.484  17.866  0.00  0.00    +0.000 N 
ATOM     10  C   UNL     1       2.873   6.936  17.994  0.00  0.00    +0.000 C 
BRANCH   9  11
ATOM     11  C   UNL     1       1.538   4.880  18.306  0.00  0.00    +0.000 C 
BRANCH  11  12
ATOM     12  C   UNL     1       1.552   4.208  19.660  0.00  0.00    +0.000 A 
ATOM     13  C   UNL     1       0.896   2.992  19.883  0.00  0.00    +0.000 A 
ATOM     14  C   UNL     1       1.086   2.342  21.096  0.00  0.00    +0.000 A 
ATOM     15  N   UNL     1       1.854   2.821  22.097  0.00  0.00    +0.000 NA
ATOM     16  C   UNL     1       2.448   4.014  21.880  0.00  0.00    +0.000 A 
ATOM     17  C   UNL     1       2.323   4.735  20.702  0.00  0.00    +0.000 A 
ENDBRANCH  11  12
ENDBRANCH   9  11
ENDBRANCH   5   7
BRANCH   1  19
ATOM     18  C   UNL     1       8.117   8.731  17.933  0.00  0.00    +0.000 C 
ATOM     19  C   UNL     1       7.674   7.719  17.449  0.00  0.00    +0.000 C 
BRANCH  18  23
ATOM     20  C   UNL     1       9.800  12.277  19.511  0.00  0.00    +0.000 A 
ATOM     21  C   UNL     1       9.798  11.081  20.241  0.00  0.00    +0.000 A 
ATOM     22  C   UNL     1       9.245   9.924  19.704  0.00  0.00    +0.000 A 
ATOM     23  C   UNL     1       8.679   9.939  18.434  0.00  0.00    +0.000 A 
ATOM     24  C   UNL     1       8.684  11.122  17.680  0.00  0.00    +0.000 A 
ATOM     25  C   UNL     1       9.242  12.286  18.223  0.00  0.00    +0.000 A 
BRANCH  20  26
ATOM     26  C   UNL     1      10.345  13.544  20.133  0.00  0.00    +0.000 C 
BRANCH  26  27
ATOM     27  C   UNL     1       9.826  14.845  19.489  0.00  0.00    +0.000 C 
ATOM     28  C   UNL     1      10.840  15.975  19.668  0.00  0.00    +0.000 C 
BRANCH  27  32
ATOM     29  C   UNL     1       6.318  16.197  19.992  0.00  0.00    +0.000 C 
ATOM     30  C   UNL     1       7.564  15.819  19.242  0.00  0.00    +0.000 C 
ATOM     31  O   UNL     1       7.688  16.005  18.037  0.00  0.00    +0.000 OA
ATOM     32  N   UNL     1       8.532  15.242  20.035  0.00  0.00    +0.000 N 
ATOM     33  H   UNL     1       8.387  15.197  21.034  0.00  0.00    +0.000 HD
ENDBRANCH  27  32
ENDBRANCH  26  27
ENDBRANCH  20  26
ENDBRANCH  18  23
ENDBRANCH   1  19
TORSDOF 8
ENDMDL
MODEL 3
REMARK VINA RESULT:      -7.9      2.536      3.052
REMARK  Name = 
REMARK  11 active torsions:
REMARK  status: ('A' for Active; 'I' for Inactive)
REMARK    1  A    between atoms: C_1  and  C_2
REMARK    2  A    between atoms: N_4  and  C_5
REMARK    3  A    between atoms: C_5  and  C_6
REMARK    4  A    between atoms: C_5  and  C_7
REMARK    5  A    between atoms: C_7  and  C_8
REMARK    6  A    between atoms: C_11  and  C_12
REMARK    7  A    between atoms: C_13  and  C_14
REMARK    8  A    between atoms: C_18  and  C_19
REMARK    9  A    between atoms: N_21  and  C_22
REMARK   10  A    between atoms: N_21  and  C_23
REMARK   11  A    between atoms: C_23  and  C_24
REMARK                            x       y       z     vdW  Elec       q    Type
REMARK                         _______ _______ _______ _____ _____    ______ ____
ROOT
ATOM      1  C   UNL     1       9.769  11.264  18.971  0.00  0.00    +0.000 A 
ATOM      2  C   UNL     1      11.051  11.383  19.507  0.00  0.00    +0.000 A 
ATOM      3  C   UNL     1      11.540  12.650  19.825  0.00  0.00    +0.000 A 
ATOM      4  C   UNL     1      10.765  13.787  19.559  0.00  0.00    +0.000 A 
ATOM      5  C   UNL     1       9.489  13.678  18.973  0.00  0.00    +0.000 A 
ATOM      6  C   UNL     1       8.988  12.401  18.741  0.00  0.00    +0.000 A 
ENDROOT
BRANCH   5   7
ATOM      7  C   UNL     1       8.666  14.915  18.810  0.00  0.00    +0.000 C 
ATOM      8  O   UNL     1       8.763  15.478  17.716  0.00  0.00    +0.000 OA
ATOM      9  N   UNL     1       7.848  15.440  19.828  0.00  0.00    +0.000 N 
ATOM     10  C   UNL     1       7.436  14.786  21.066  0.00  0.00    +0.000 C 
BRANCH   9  11
ATOM     11  C   UNL     1       7.181  16.713  19.540  0.00  0.00    +0.000 C 
BRANCH  11  12
ATOM     12  C   UNL     1       5.687  16.652  19.313  0.00  0.00    +0.000 A 
ATOM     13  C   UNL     1       5.124  15.800  18.357  0.00  0.00    +0.000 A 
ATOM     14  C   UNL     1       3.742  15.663  18.313  0.00  0.00    +0.000 A 
ATOM     15  N   UNL     1       2.892  16.323  19.127  0.00  0.00    +0.000 NA
ATOM     16  C   UNL     1       3.450  17.171  20.018  0.00  0.00    +0.000 A 
ATOM     17  C   UNL     1       4.817  17.370  20.141  0.00  0.00    +0.000 A 
ENDBRANCH  11  12
ENDBRANCH   9  11
ENDBRANCH   5   7
BRANCH   1  19
ATOM     18  C   UNL     1       8.613   8.973  18.405  0.00  0.00    +0.000 C 
ATOM     19  C   UNL     1       9.173   9.998  18.704  0.00  0.00    +0.000 C 
BRANCH  18  23
ATOM     20  C   UNL     1       6.495   5.423  17.507  0.00  0.00    +0.000 A 
ATOM     21  C   UNL     1       6.346   6.579  16.729  0.00  0.00    +0.000 A 
ATOM     22  C   UNL     1       7.054   7.736  17.036  0.00  0.00    +0.000 A 
ATOM     23  C   UNL     1       7.918   7.762  18.126  0.00  0.00    +0.000 A 
ATOM     24  C   UNL     1       8.093   6.611  18.908  0.00  0.00    +0.000 A 
ATOM     25  C   UNL     1       7.378   5.448  18.598  0.00  0.00    +0.000 A 
BRANCH  20  26
ATOM     26  C   UNL     1       5.668   4.193  17.202  0.00  0.00    +0.000 C 
BRANCH  26  27
ATOM     27  C   UNL     1       4.284   4.170  17.882  0.00  0.00    +0.000 C 
ATOM     28  C   UNL     1       3.489   2.941  17.440  0.00  0.00    +0.000 C 
BRANCH  27  32
ATOM     29  C   UNL     1       2.282   7.380  18.143  0.00  0.00    +0.000 C 
ATOM     30  C   UNL     1       3.082   6.203  18.623  0.00  0.00    +0.000 C 
ATOM     31  O   UNL     1       3.319   6.007  19.809  0.00  0.00    +0.000 OA
ATOM     32  N   UNL     1       3.523   5.384  17.606  0.00  0.00    +0.000 N 
ATOM     33  H   UNL     1       3.219   5.568  16.659  0.00  0.00    +0.000 HD
ENDBRANCH  27  32
ENDBRANCH  26  27
ENDBRANCH  20  26
ENDBRANCH  18  23
ENDBRANCH   1  19
TORSDOF 8
ENDMDL
MODEL 4
REMARK VINA RESULT:      -7.9      6.256     11.338
REMARK  Name = 
REMARK  11 active torsions:
REMARK  status: ('A' for Active; 'I' for Inactive)
REMARK    1  A    between atoms: C_1  and  C_2
REMARK    2  A    between atoms: N_4  and  C_5
REMARK    3  A    between atoms: C_5  and  C_6
REMARK    4  A    between atoms: C_5  and  C_7
REMARK    5  A    between atoms: C_7  and  C_8
REMARK    6  A    between atoms: C_11  and  C_12
REMARK    7  A    between atoms: C_13  and  C_14
REMARK    8  A    between atoms: C_18  and  C_19
REMARK    9  A    between atoms: N_21  and  C_22
REMARK   10  A    between atoms: N_21  and  C_23
REMARK   11  A    between atoms: C_23  and  C_24
REMARK                            x       y       z     vdW  Elec       q    Type
REMARK                         _______ _______ _______ _____ _____    ______ ____
ROOT
ATOM      1  C   UNL     1       2.030   5.884  20.324  0.00  0.00    +0.000 A 
ATOM      2  C   UNL     1       1.494   4.663  20.733  0.00  0.00    +0.000 A 
ATOM      3  C   UNL     1       2.134   3.482  20.361  0.00  0.00    +0.000 A 
ATOM      4  C   UNL     1       3.273   3.528  19.546  0.00  0.00    +0.000 A 
ATOM      5  C   UNL     1       3.792   4.755  19.090  0.00  0.00    +0.000 A 
ATOM      6  C   UNL     1       3.187   5.924  19.540  0.00  0.00    +0.000 A 
ENDROOT
BRANCH   5   7
ATOM      7  C   UNL     1       5.069   4.750  18.312  0.00  0.00    +0.000 C 
ATOM      8  O   UNL     1       5.871   3.862  18.612  0.00  0.00    +0.000 OA
ATOM      9  N   UNL     1       5.373   5.697  17.316  0.00  0.00    +0.000 N 
ATOM     10  C   UNL     1       4.462   6.643  16.679  0.00  0.00    +0.000 C 
BRANCH   9  11
ATOM     11  C   UNL     1       6.707   5.610  16.715  0.00  0.00    +0.000 C 
BRANCH  11  12
ATOM     12  C   UNL     1       6.782   4.995  15.335  0.00  0.00    +0.000 A 
ATOM     13  C   UNL     1       5.869   4.021  14.915  0.00  0.00    +0.000 A 
ATOM     14  C   UNL     1       5.885   3.620  13.584  0.00  0.00    +0.000 A 
ATOM     15  N   UNL     1       6.747   4.097  12.662  0.00  0.00    +0.000 NA
ATOM     16  C   UNL     1       7.647   5.007  13.094  0.00  0.00    +0.000 A 
ATOM     17  C   UNL     1       7.706   5.473  14.400  0.00  0.00    +0.000 A 
ENDBRANCH  11  12
ENDBRANCH   9  11
ENDBRANCH   5   7
BRANCH   1  19
ATOM     18  C   UNL     1       1.000   8.145  21.182  0.00  0.00    +0.000 C 
ATOM     19  C   UNL     1       1.479   7.131  20.739  0.00  0.00    +0.000 C 
BRANCH  18  23
ATOM     20  C   UNL     1      -0.821  11.724  22.511  0.00  0.00    +0.000 A 
ATOM     21  C   UNL     1      -0.075  11.680  21.326  0.00  0.00    +0.000 A 
ATOM     22  C   UNL     1       0.513  10.494  20.902  0.00  0.00    +0.000 A 
ATOM     23  C   UNL     1       0.371   9.332  21.654  0.00  0.00    +0.000 A 
ATOM     24  C   UNL     1      -0.385   9.350  22.835  0.00  0.00    +0.000 A 
ATOM     25  C   UNL     1      -0.975  10.547  23.260  0.00  0.00    +0.000 A 
BRANCH  20  26
ATOM     26  C   UNL     1      -1.399  13.036  22.995  0.00  0.00    +0.000 C 
BRANCH  26  27
ATOM     27  C   UNL     1      -2.938  13.114  22.941  0.00  0.00    +0.000 C 
ATOM     28  C   UNL     1      -3.551  12.487  24.194  0.00  0.00    +0.000 C 
BRANCH  27  32
ATOM     29  C   UNL     1      -4.311  12.359  19.488  0.00  0.00    +0.000 C 
ATOM     30  C   UNL     1      -3.725  13.186  20.596  0.00  0.00    +0.000 C 
ATOM     31  O   UNL     1      -3.491  14.383  20.470  0.00  0.00    +0.000 OA
ATOM     32  N   UNL     1      -3.472  12.470  21.746  0.00  0.00    +0.000 N 
ATOM     33  H   UNL     1      -3.767  11.505  21.799  0.00  0.00    +0.000 HD
ENDBRANCH  27  32
ENDBRANCH  26  27
ENDBRANCH  20  26
ENDBRANCH  18  23
ENDBRANCH   1  19
TORSDOF 8
ENDMDL
MODEL 5
REMARK VINA RESULT:      -7.8      5.761      7.821
REMARK  Name = 
REMARK  11 active torsions:
REMARK  status: ('A' for Active; 'I' for Inactive)
REMARK    1  A    between atoms: C_1  and  C_2
REMARK    2  A    between atoms: N_4  and  C_5
REMARK    3  A    between atoms: C_5  and  C_6
REMARK    4  A    between atoms: C_5  and  C_7
REMARK    5  A    between atoms: C_7  and  C_8
REMARK    6  A    between atoms: C_11  and  C_12
REMARK    7  A    between atoms: C_13  and  C_14
REMARK    8  A    between atoms: C_18  and  C_19
REMARK    9  A    between atoms: N_21  and  C_22
REMARK   10  A    between atoms: N_21  and  C_23
REMARK   11  A    between atoms: C_23  and  C_24
REMARK                            x       y       z     vdW  Elec       q    Type
REMARK                         _______ _______ _______ _____ _____    ______ ____
ROOT
ATOM      1  C   UNL     1       0.789   9.383  21.160  0.00  0.00    +0.000 A 
ATOM      2  C   UNL     1      -0.026   8.935  22.199  0.00  0.00    +0.000 A 
ATOM      3  C   UNL     1      -0.813   9.856  22.890  0.00  0.00    +0.000 A 
ATOM      4  C   UNL     1      -0.742  11.218  22.571  0.00  0.00    +0.000 A 
ATOM      5  C   UNL     1       0.115  11.684  21.555  0.00  0.00    +0.000 A 
ATOM      6  C   UNL     1       0.828  10.740  20.823  0.00  0.00    +0.000 A 
ENDROOT
BRANCH   5   7
ATOM      7  C   UNL     1       0.071  13.132  21.186  0.00  0.00    +0.000 C 
ATOM      8  O   UNL     1       0.521  13.910  22.032  0.00  0.00    +0.000 OA
ATOM      9  N   UNL     1      -0.467  13.607  19.976  0.00  0.00    +0.000 N 
ATOM     10  C   UNL     1      -0.810  12.831  18.788  0.00  0.00    +0.000 C 
BRANCH   9  11
ATOM     11  C   UNL     1      -0.522  15.062  19.810  0.00  0.00    +0.000 C 
BRANCH  11  12
ATOM     12  C   UNL     1       0.580  15.686  18.983  0.00  0.00    +0.000 A 
ATOM     13  C   UNL     1       0.412  16.923  18.350  0.00  0.00    +0.000 A 
ATOM     14  C   UNL     1       1.513  17.521  17.749  0.00  0.00    +0.000 A 
ATOM     15  N   UNL     1       2.745  16.972  17.713  0.00  0.00    +0.000 NA
ATOM     16  C   UNL     1       2.880  15.760  18.294  0.00  0.00    +0.000 A 
ATOM     17  C   UNL     1       1.843  15.087  18.924  0.00  0.00    +0.000 A 
ENDBRANCH  11  12
ENDBRANCH   9  11
ENDBRANCH   5   7
BRANCH   1  19
ATOM     18  C   UNL     1       2.187   7.799  19.596  0.00  0.00    +0.000 C 
ATOM     19  C   UNL     1       1.552   8.489  20.355  0.00  0.00    +0.000 C 
BRANCH  18  23
ATOM     20  C   UNL     1       4.266   5.290  16.899  0.00  0.00    +0.000 A 
ATOM     21  C   UNL     1       4.353   6.685  16.813  0.00  0.00    +0.000 A 
ATOM     22  C   UNL     1       3.667   7.495  17.712  0.00  0.00    +0.000 A 
ATOM     23  C   UNL     1       2.878   6.928  18.707  0.00  0.00    +0.000 A 
ATOM     24  C   UNL     1       2.788   5.533  18.819  0.00  0.00    +0.000 A 
ATOM     25  C   UNL     1       3.480   4.720  17.913  0.00  0.00    +0.000 A 
BRANCH  20  26
ATOM     26  C   UNL     1       4.964   4.422  15.874  0.00  0.00    +0.000 C 
BRANCH  26  27
ATOM     27  C   UNL     1       6.490   4.315  16.064  0.00  0.00    +0.000 C 
ATOM     28  C   UNL     1       6.892   4.786  17.463  0.00  0.00    +0.000 C 
BRANCH  27  32
ATOM     29  C   UNL     1       8.029   5.589  12.841  0.00  0.00    +0.000 C 
ATOM     30  C   UNL     1       7.185   4.714  13.723  0.00  0.00    +0.000 C 
ATOM     31  O   UNL     1       6.528   3.777  13.284  0.00  0.00    +0.000 OA
ATOM     32  N   UNL     1       7.219   5.073  15.053  0.00  0.00    +0.000 N 
ATOM     33  H   UNL     1       7.848   5.807  15.348  0.00  0.00    +0.000 HD
ENDBRANCH  27  32
ENDBRANCH  26  27
ENDBRANCH  20  26
ENDBRANCH  18  23
ENDBRANCH   1  19
TORSDOF 8
ENDMDL
MODEL 6
REMARK VINA RESULT:      -7.7      1.140      1.266
REMARK  Name = 
REMARK  11 active torsions:
REMARK  status: ('A' for Active; 'I' for Inactive)
REMARK    1  A    between atoms: C_1  and  C_2
REMARK    2  A    between atoms: N_4  and  C_5
REMARK    3  A    between atoms: C_5  and  C_6
REMARK    4  A    between atoms: C_5  and  C_7
REMARK    5  A    between atoms: C_7  and  C_8
REMARK    6  A    between atoms: C_11  and  C_12
REMARK    7  A    between atoms: C_13  and  C_14
REMARK    8  A    between atoms: C_18  and  C_19
REMARK    9  A    between atoms: N_21  and  C_22
REMARK   10  A    between atoms: N_21  and  C_23
REMARK   11  A    between atoms: C_23  and  C_24
REMARK                            x       y       z     vdW  Elec       q    Type
REMARK                         _______ _______ _______ _____ _____    ______ ____
ROOT
ATOM      1  C   UNL     1       9.410  10.916  18.273  0.00  0.00    +0.000 A 
ATOM      2  C   UNL     1      10.674  11.071  17.705  0.00  0.00    +0.000 A 
ATOM      3  C   UNL     1      11.382  12.250  17.936  0.00  0.00    +0.000 A 
ATOM      4  C   UNL     1      10.802  13.280  18.689  0.00  0.00    +0.000 A 
ATOM      5  C   UNL     1       9.506  13.149  19.225  0.00  0.00    +0.000 A 
ATOM      6  C   UNL     1       8.852  11.934  19.052  0.00  0.00    +0.000 A 
ENDROOT
BRANCH   5   7
ATOM      7  C   UNL     1       8.981  14.235  20.108  0.00  0.00    +0.000 C 
ATOM      8  O   UNL     1       9.503  14.314  21.223  0.00  0.00    +0.000 OA
ATOM      9  N   UNL     1       7.944  15.108  19.728  0.00  0.00    +0.000 N 
ATOM     10  C   UNL     1       7.394  15.309  18.391  0.00  0.00    +0.000 C 
BRANCH   9  11
ATOM     11  C   UNL     1       7.481  16.055  20.745  0.00  0.00    +0.000 C 
BRANCH  11  12
ATOM     12  C   UNL     1       6.444  15.542  21.719  0.00  0.00    +0.000 A 
ATOM     13  C   UNL     1       6.574  15.732  23.099  0.00  0.00    +0.000 A 
ATOM     14  C   UNL     1       5.510  15.389  23.925  0.00  0.00    +0.000 A 
ATOM     15  N   UNL     1       4.352  14.857  23.483  0.00  0.00    +0.000 NA
ATOM     16  C   UNL     1       4.258  14.644  22.152  0.00  0.00    +0.000 A 
ATOM     17  C   UNL     1       5.262  14.958  21.248  0.00  0.00    +0.000 A 
ENDBRANCH  11  12
ENDBRANCH   9  11
ENDBRANCH   5   7
BRANCH   1  19
ATOM     18  C   UNL     1       8.113   8.647  17.986  0.00  0.00    +0.000 C 
ATOM     19  C   UNL     1       8.667   9.706  18.151  0.00  0.00    +0.000 C 
BRANCH  18  23
ATOM     20  C   UNL     1       5.924   5.105  17.242  0.00  0.00    +0.000 A 
ATOM     21  C   UNL     1       5.618   6.304  16.586  0.00  0.00    +0.000 A 
ATOM     22  C   UNL     1       6.351   7.458  16.840  0.00  0.00    +0.000 A 
ATOM     23  C   UNL     1       7.399   7.438  17.754  0.00  0.00    +0.000 A 
ATOM     24  C   UNL     1       7.732   6.244  18.410  0.00  0.00    +0.000 A 
ATOM     25  C   UNL     1       6.991   5.083  18.154  0.00  0.00    +0.000 A 
BRANCH  20  26
ATOM     26  C   UNL     1       5.075   3.874  17.007  0.00  0.00    +0.000 C 
BRANCH  26  27
ATOM     27  C   UNL     1       3.836   3.771  17.919  0.00  0.00    +0.000 C 
ATOM     28  C   UNL     1       2.755   2.913  17.261  0.00  0.00    +0.000 C 
BRANCH  27  32
ATOM     29  C   UNL     1       2.342   6.781  19.678  0.00  0.00    +0.000 C 
ATOM     30  C   UNL     1       2.909   5.397  19.539  0.00  0.00    +0.000 C 
ATOM     31  O   UNL     1       3.017   4.632  20.490  0.00  0.00    +0.000 OA
ATOM     32  N   UNL     1       3.297   5.085  18.254  0.00  0.00    +0.000 N 
ATOM     33  H   UNL     1       3.101   5.739  17.508  0.00  0.00    +0.000 HD
ENDBRANCH  27  32
ENDBRANCH  26  27
ENDBRANCH  20  26
ENDBRANCH  18  23
ENDBRANCH   1  19
TORSDOF 8
ENDMDL
MODEL 7
REMARK VINA RESULT:      -7.7      1.887      2.114
REMARK  Name = 
REMARK  11 active torsions:
REMARK  status: ('A' for Active; 'I' for Inactive)
REMARK    1  A    between atoms: C_1  and  C_2
REMARK    2  A    between atoms: N_4  and  C_5
REMARK    3  A    between atoms: C_5  and  C_6
REMARK    4  A    between atoms: C_5  and  C_7
REMARK    5  A    between atoms: C_7  and  C_8
REMARK    6  A    between atoms: C_11  and  C_12
REMARK    7  A    between atoms: C_13  and  C_14
REMARK    8  A    between atoms: C_18  and  C_19
REMARK    9  A    between atoms: N_21  and  C_22
REMARK   10  A    between atoms: N_21  and  C_23
REMARK   11  A    between atoms: C_23  and  C_24
REMARK                            x       y       z     vdW  Elec       q    Type
REMARK                         _______ _______ _______ _____ _____    ______ ____
ROOT
ATOM      1  C   UNL     1       9.678  11.112  18.382  0.00  0.00    +0.000 A 
ATOM      2  C   UNL     1      11.017  11.168  17.995  0.00  0.00    +0.000 A 
ATOM      3  C   UNL     1      11.750  12.327  18.250  0.00  0.00    +0.000 A 
ATOM      4  C   UNL     1      11.127  13.434  18.842  0.00  0.00    +0.000 A 
ATOM      5  C   UNL     1       9.762  13.402  19.190  0.00  0.00    +0.000 A 
ATOM      6  C   UNL     1       9.072  12.209  19.003  0.00  0.00    +0.000 A 
ENDROOT
BRANCH   5   7
ATOM      7  C   UNL     1       9.178  14.573  19.913  0.00  0.00    +0.000 C 
ATOM      8  O   UNL     1       9.483  14.668  21.106  0.00  0.00    +0.000 OA
ATOM      9  N   UNL     1       8.315  15.505  19.308  0.00  0.00    +0.000 N 
ATOM     10  C   UNL     1       8.051  15.679  17.884  0.00  0.00    +0.000 C 
BRANCH   9  11
ATOM     11  C   UNL     1       7.753  16.540  20.181  0.00  0.00    +0.000 C 
BRANCH  11  12
ATOM     12  C   UNL     1       6.254  16.510  20.378  0.00  0.00    +0.000 A 
ATOM     13  C   UNL     1       5.592  15.351  20.796  0.00  0.00    +0.000 A 
ATOM     14  C   UNL     1       4.243  15.432  21.123  0.00  0.00    +0.000 A 
ATOM     15  N   UNL     1       3.514  16.564  21.042  0.00  0.00    +0.000 NA
ATOM     16  C   UNL     1       4.159  17.665  20.599  0.00  0.00    +0.000 A 
ATOM     17  C   UNL     1       5.503  17.685  20.255  0.00  0.00    +0.000 A 
ENDBRANCH  11  12
ENDBRANCH   9  11
ENDBRANCH   5   7
BRANCH   1  19
ATOM     18  C   UNL     1       8.317   8.879  18.116  0.00  0.00    +0.000 C 
ATOM     19  C   UNL     1       8.894   9.932  18.232  0.00  0.00    +0.000 C 
BRANCH  18  23
ATOM     20  C   UNL     1       6.176   5.298  17.421  0.00  0.00    +0.000 A 
ATOM     21  C   UNL     1       5.916   6.460  16.682  0.00  0.00    +0.000 A 
ATOM     22  C   UNL     1       6.633   7.627  16.921  0.00  0.00    +0.000 A 
ATOM     23  C   UNL     1       7.618   7.658  17.903  0.00  0.00    +0.000 A 
ATOM     24  C   UNL     1       7.905   6.501  18.643  0.00  0.00    +0.000 A 
ATOM     25  C   UNL     1       7.181   5.327  18.401  0.00  0.00    +0.000 A 
BRANCH  20  26
ATOM     26  C   UNL     1       5.343   4.055  17.196  0.00  0.00    +0.000 C 
BRANCH  26  27
ATOM     27  C   UNL     1       4.113   3.937  18.118  0.00  0.00    +0.000 C 
ATOM     28  C   UNL     1       3.068   3.005  17.503  0.00  0.00    +0.000 C 
BRANCH  27  32
ATOM     29  C   UNL     1       2.340   6.892  19.702  0.00  0.00    +0.000 C 
ATOM     30  C   UNL     1       2.933   5.515  19.616  0.00  0.00    +0.000 C 
ATOM     31  O   UNL     1       2.898   4.725  20.553  0.00  0.00    +0.000 OA
ATOM     32  N   UNL     1       3.518   5.240  18.400  0.00  0.00    +0.000 N 
ATOM     33  H   UNL     1       3.435   5.913  17.650  0.00  0.00    +0.000 HD
ENDBRANCH  27  32
ENDBRANCH  26  27
ENDBRANCH  20  26
ENDBRANCH  18  23
ENDBRANCH   1  19
TORSDOF 8
ENDMDL
MODEL 8
REMARK VINA RESULT:      -7.7      6.565     11.503
REMARK  Name = 
REMARK  11 active torsions:
REMARK  status: ('A' for Active; 'I' for Inactive)
REMARK    1  A    between atoms: C_1  and  C_2
REMARK    2  A    between atoms: N_4  and  C_5
REMARK    3  A    between atoms: C_5  and  C_6
REMARK    4  A    between atoms: C_5  and  C_7
REMARK    5  A    between atoms: C_7  and  C_8
REMARK    6  A    between atoms: C_11  and  C_12
REMARK    7  A    between atoms: C_13  and  C_14
REMARK    8  A    between atoms: C_18  and  C_19
REMARK    9  A    between atoms: N_21  and  C_22
REMARK   10  A    between atoms: N_21  and  C_23
REMARK   11  A    between atoms: C_23  and  C_24
REMARK                            x       y       z     vdW  Elec       q    Type
REMARK                         _______ _______ _______ _____ _____    ______ ____
ROOT
ATOM      1  C   UNL     1       2.383   5.485  20.375  0.00  0.00    +0.000 A 
ATOM      2  C   UNL     1       2.014   4.243  20.892  0.00  0.00    +0.000 A 
ATOM      3  C   UNL     1       2.802   3.128  20.607  0.00  0.00    +0.000 A 
ATOM      4  C   UNL     1       3.919   3.254  19.771  0.00  0.00    +0.000 A 
ATOM      5  C   UNL     1       4.269   4.496  19.206  0.00  0.00    +0.000 A 
ATOM      6  C   UNL     1       3.519   5.609  19.570  0.00  0.00    +0.000 A 
ENDROOT
BRANCH   5   7
ATOM      7  C   UNL     1       5.529   4.591  18.408  0.00  0.00    +0.000 C 
ATOM      8  O   UNL     1       6.577   4.510  19.055  0.00  0.00    +0.000 OA
ATOM      9  N   UNL     1       5.551   4.787  17.014  0.00  0.00    +0.000 N 
ATOM     10  C   UNL     1       4.436   4.664  16.081  0.00  0.00    +0.000 C 
BRANCH   9  11
ATOM     11  C   UNL     1       6.869   4.956  16.397  0.00  0.00    +0.000 C 
BRANCH  11  12
ATOM     12  C   UNL     1       6.967   4.630  14.923  0.00  0.00    +0.000 A 
ATOM     13  C   UNL     1       6.180   3.631  14.339  0.00  0.00    +0.000 A 
ATOM     14  C   UNL     1       6.191   3.495  12.956  0.00  0.00    +0.000 A 
ATOM     15  N   UNL     1       6.936   4.257  12.128  0.00  0.00    +0.000 NA
ATOM     16  C   UNL     1       7.719   5.189  12.712  0.00  0.00    +0.000 A 
ATOM     17  C   UNL     1       7.772   5.405  14.081  0.00  0.00    +0.000 A 
ENDBRANCH  11  12
ENDBRANCH   9  11
ENDBRANCH   5   7
BRANCH   1  19
ATOM     18  C   UNL     1       1.160   7.720  21.022  0.00  0.00    +0.000 C 
ATOM     19  C   UNL     1       1.676   6.680  20.696  0.00  0.00    +0.000 C 
BRANCH  18  23
ATOM     20  C   UNL     1      -0.788  11.284  22.204  0.00  0.00    +0.000 A 
ATOM     21  C   UNL     1      -0.218  11.150  20.931  0.00  0.00    +0.000 A 
ATOM     22  C   UNL     1       0.414   9.970  20.558  0.00  0.00    +0.000 A 
ATOM     23  C   UNL     1       0.494   8.904  21.448  0.00  0.00    +0.000 A 
ATOM     24  C   UNL     1      -0.083   9.011  22.722  0.00  0.00    +0.000 A 
ATOM     25  C   UNL     1      -0.719  10.202  23.096  0.00  0.00    +0.000 A 
BRANCH  20  26
ATOM     26  C   UNL     1      -1.413  12.597  22.620  0.00  0.00    +0.000 C 
BRANCH  26  27
ATOM     27  C   UNL     1      -2.736  12.929  21.901  0.00  0.00    +0.000 C 
ATOM     28  C   UNL     1      -2.497  13.935  20.775  0.00  0.00    +0.000 C 
BRANCH  27  32
ATOM     29  C   UNL     1      -5.953  13.718  23.749  0.00  0.00    +0.000 C 
ATOM     30  C   UNL     1      -5.062  13.052  22.740  0.00  0.00    +0.000 C 
ATOM     31  O   UNL     1      -5.482  12.235  21.929  0.00  0.00    +0.000 OA
ATOM     32  N   UNL     1      -3.743  13.442  22.825  0.00  0.00    +0.000 N 
ATOM     33  H   UNL     1      -3.488  14.180  23.467  0.00  0.00    +0.000 HD
ENDBRANCH  27  32
ENDBRANCH  26  27
ENDBRANCH  20  26
ENDBRANCH  18  23
ENDBRANCH   1  19
TORSDOF 8
ENDMDL
MODEL 9
REMARK VINA RESULT:      -7.7      1.473      1.787
REMARK  Name = 
REMARK  11 active torsions:
REMARK  status: ('A' for Active; 'I' for Inactive)
REMARK    1  A    between atoms: C_1  and  C_2
REMARK    2  A    between atoms: N_4  and  C_5
REMARK    3  A    between atoms: C_5  and  C_6
REMARK    4  A    between atoms: C_5  and  C_7
REMARK    5  A    between atoms: C_7  and  C_8
REMARK    6  A    between atoms: C_11  and  C_12
REMARK    7  A    between atoms: C_13  and  C_14
REMARK    8  A    between atoms: C_18  and  C_19
REMARK    9  A    between atoms: N_21  and  C_22
REMARK   10  A    between atoms: N_21  and  C_23
REMARK   11  A    between atoms: C_23  and  C_24
REMARK                            x       y       z     vdW  Elec       q    Type
REMARK                         _______ _______ _______ _____ _____    ______ ____
ROOT
ATOM      1  C   UNL     1       9.475  10.970  18.233  0.00  0.00    +0.000 A 
ATOM      2  C   UNL     1      10.757  11.192  17.733  0.00  0.00    +0.000 A 
ATOM      3  C   UNL     1      11.361  12.433  17.936  0.00  0.00    +0.000 A 
ATOM      4  C   UNL     1      10.660  13.454  18.592  0.00  0.00    +0.000 A 
ATOM      5  C   UNL     1       9.346  13.252  19.057  0.00  0.00    +0.000 A 
ATOM      6  C   UNL     1       8.795  11.982  18.917  0.00  0.00    +0.000 A 
ENDROOT
BRANCH   5   7
ATOM      7  C   UNL     1       8.687  14.341  19.842  0.00  0.00    +0.000 C 
ATOM      8  O   UNL     1       9.192  14.584  20.942  0.00  0.00    +0.000 OA
ATOM      9  N   UNL     1       7.551  15.040  19.394  0.00  0.00    +0.000 N 
ATOM     10  C   UNL     1       6.985  15.050  18.049  0.00  0.00    +0.000 C 
BRANCH   9  11
ATOM     11  C   UNL     1       6.971  16.011  20.325  0.00  0.00    +0.000 C 
BRANCH  11  12
ATOM     12  C   UNL     1       5.807  15.528  21.161  0.00  0.00    +0.000 A 
ATOM     13  C   UNL     1       5.993  15.010  22.447  0.00  0.00    +0.000 A 
ATOM     14  C   UNL     1       4.875  14.741  23.228  0.00  0.00    +0.000 A 
ATOM     15  N   UNL     1       3.603  14.928  22.816  0.00  0.00    +0.000 NA
ATOM     16  C   UNL     1       3.442  15.391  21.558  0.00  0.00    +0.000 A 
ATOM     17  C   UNL     1       4.494  15.693  20.706  0.00  0.00    +0.000 A 
ENDBRANCH  11  12
ENDBRANCH   9  11
ENDBRANCH   5   7
BRANCH   1  19
ATOM     18  C   UNL     1       8.223   8.671  17.993  0.00  0.00    +0.000 C 
ATOM     19  C   UNL     1       8.833   9.702  18.139  0.00  0.00    +0.000 C 
BRANCH  18  23
ATOM     20  C   UNL     1       5.962   5.113  17.650  0.00  0.00    +0.000 A 
ATOM     21  C   UNL     1       5.744   6.202  16.795  0.00  0.00    +0.000 A 
ATOM     22  C   UNL     1       6.500   7.362  16.920  0.00  0.00    +0.000 A 
ATOM     23  C   UNL     1       7.482   7.459  17.900  0.00  0.00    +0.000 A 
ATOM     24  C   UNL     1       7.726   6.375  18.755  0.00  0.00    +0.000 A 
ATOM     25  C   UNL     1       6.963   5.208  18.629  0.00  0.00    +0.000 A 
BRANCH  20  26
ATOM     26  C   UNL     1       5.087   3.883  17.547  0.00  0.00    +0.000 C 
BRANCH  26  27
ATOM     27  C   UNL     1       3.648   4.079  18.066  0.00  0.00    +0.000 C 
ATOM     28  C   UNL     1       3.164   5.501  17.783  0.00  0.00    +0.000 C 
BRANCH  27  32
ATOM     29  C   UNL     1       2.698   2.682  21.462  0.00  0.00    +0.000 C 
ATOM     30  C   UNL     1       2.702   2.803  19.965  0.00  0.00    +0.000 C 
ATOM     31  O   UNL     1       2.022   2.081  19.245  0.00  0.00    +0.000 OA
ATOM     32  N   UNL     1       3.542   3.789  19.493  0.00  0.00    +0.000 N 
ATOM     33  H   UNL     1       4.007   4.396  20.153  0.00  0.00    +0.000 HD
ENDBRANCH  27  32
ENDBRANCH  26  27
ENDBRANCH  20  26
ENDBRANCH  18  23
ENDBRANCH   1  19
TORSDOF 8
ENDMDL
