MODEL 1
REMARK VINA RESULT:      -7.7      0.000      0.000
REMARK  Name = 
REMARK  3 active torsions:
REMARK  status: ('A' for Active; 'I' for Inactive)
REMARK    1  A    between atoms: O_1  and  C_2
REMARK    2  A    between atoms: C_11  and  C_12
REMARK    3  A    between atoms: C_12  and  N_13
REMARK                            x       y       z     vdW  Elec       q    Type
REMARK                         _______ _______ _______ _____ _____    ______ ____
ROOT
ATOM      1  C   UNL     1       4.847   6.296  17.103  0.00  0.00    +0.000 A 
ATOM      2  C   UNL     1       3.748   7.020  17.552  0.00  0.00    +0.000 A 
ATOM      3  C   UNL     1       2.633   6.346  18.041  0.00  0.00    +0.000 A 
ATOM      4  C   UNL     1       2.613   4.948  18.108  0.00  0.00    +0.000 A 
ATOM      5  C   UNL     1       1.472   4.297  18.608  0.00  0.00    +0.000 A 
ATOM      6  C   UNL     1       1.419   2.907  18.690  0.00  0.00    +0.000 A 
ATOM      7  C   UNL     1       2.505   2.153  18.275  0.00  0.00    +0.000 A 
ATOM      8  C   UNL     1       3.646   2.787  17.771  0.00  0.00    +0.000 A 
ATOM      9  C   UNL     1       3.736   4.195  17.666  0.00  0.00    +0.000 A 
ATOM     10  C   UNL     1       4.866   4.890  17.136  0.00  0.00    +0.000 A 
ENDROOT
BRANCH   1  11
ATOM     11  O   UNL     1       5.924   6.969  16.596  0.00  0.00    +0.000 OA
ATOM     12  H   UNL     1       6.519   6.339  16.159  0.00  0.00    +0.000 HD
ENDBRANCH   1  11
BRANCH  10  13
ATOM     13  C   UNL     1       6.071   4.148  16.574  0.00  0.00    +0.000 C 
BRANCH  13  14
ATOM     14  N   UNL     1       5.758   3.550  15.278  0.00  0.00    +0.000 N 
ATOM     15  C   UNL     1       6.462   4.110  14.200  0.00  0.00    +0.000 A 
ATOM     16  C   UNL     1       6.272   3.563  12.931  0.00  0.00    +0.000 A 
ATOM     17  C   UNL     1       6.953   4.096  11.837  0.00  0.00    +0.000 A 
ATOM     18  C   UNL     1       7.815   5.165  12.033  0.00  0.00    +0.000 A 
ATOM     19  C   UNL     1       7.964   5.641  13.322  0.00  0.00    +0.000 A 
ATOM     20  N   UNL     1       7.314   5.138  14.395  0.00  0.00    +0.000 NA
ATOM     21  H   UNL     1       4.764   3.554  15.081  0.00  0.00    +0.000 HD
ENDBRANCH  13  14
ENDBRANCH  10  13
TORSDOF 3
ENDMDL
MODEL 2
REMARK VINA RESULT:      -7.7      1.100      1.100
REMARK  Name = 
REMARK  3 active torsions:
REMARK  status: ('A' for Active; 'I' for Inactive)
REMARK    1  A    between atoms: O_1  and  C_2
REMARK    2  A    between atoms: C_11  and  C_12
REMARK    3  A    between atoms: C_12  and  N_13
REMARK                            x       y       z     vdW  Elec       q    Type
REMARK                         _______ _______ _______ _____ _____    ______ ____
ROOT
ATOM      1  C   UNL     1       4.793   6.506  17.025  0.00  0.00    +0.000 A 
ATOM      2  C   UNL     1       3.733   7.270  17.500  0.00  0.00    +0.000 A 
ATOM      3  C   UNL     1       2.909   6.758  18.498  0.00  0.00    +0.000 A 
ATOM      4  C   UNL     1       3.148   5.493  19.046  0.00  0.00    +0.000 A 
ATOM      5  C   UNL     1       2.298   5.004  20.053  0.00  0.00    +0.000 A 
ATOM      6  C   UNL     1       2.508   3.750  20.621  0.00  0.00    +0.000 A 
ATOM      7  C   UNL     1       3.570   2.970  20.191  0.00  0.00    +0.000 A 
ATOM      8  C   UNL     1       4.422   3.441  19.185  0.00  0.00    +0.000 A 
ATOM      9  C   UNL     1       4.237   4.706  18.579  0.00  0.00    +0.000 A 
ATOM     10  C   UNL     1       5.062   5.223  17.533  0.00  0.00    +0.000 A 
ENDROOT
BRANCH   1  11
ATOM     11  O   UNL     1       5.576   7.008  16.022  0.00  0.00    +0.000 OA
ATOM     12  H   UNL     1       6.508   6.953  16.285  0.00  0.00    +0.000 HD
ENDBRANCH   1  11
BRANCH  10  13
ATOM     13  C   UNL     1       6.198   4.407  16.932  0.00  0.00    +0.000 C 
BRANCH  13  14
ATOM     14  N   UNL     1       5.749   3.682  15.745  0.00  0.00    +0.000 N 
ATOM     15  C   UNL     1       6.374   4.085  14.554  0.00  0.00    +0.000 A 
ATOM     16  C   UNL     1       6.052   3.408  13.378  0.00  0.00    +0.000 A 
ATOM     17  C   UNL     1       6.652   3.784  12.176  0.00  0.00    +0.000 A 
ATOM     18  C   UNL     1       7.566   4.826  12.173  0.00  0.00    +0.000 A 
ATOM     19  C   UNL     1       7.847   5.436  13.381  0.00  0.00    +0.000 A 
ATOM     20  N   UNL     1       7.277   5.088  14.556  0.00  0.00    +0.000 NA
ATOM     21  H   UNL     1       4.742   3.711  15.633  0.00  0.00    +0.000 HD
ENDBRANCH  13  14
ENDBRANCH  10  13
TORSDOF 3
ENDMDL
MODEL 3
REMARK VINA RESULT:      -7.6      3.278      4.458
REMARK  Name = 
REMARK  3 active torsions:
REMARK  status: ('A' for Active; 'I' for Inactive)
REMARK    1  A    between atoms: O_1  and  C_2
REMARK    2  A    between atoms: C_11  and  C_12
REMARK    3  A    between atoms: C_12  and  N_13
REMARK                            x       y       z     vdW  Elec       q    Type
REMARK                         _______ _______ _______ _____ _____    ______ ____
ROOT
ATOM      1  C   UNL     1       3.184   2.081  18.540  0.00  0.00    +0.000 A 
ATOM      2  C   UNL     1       2.117   1.752  19.368  0.00  0.00    +0.000 A 
ATOM      3  C   UNL     1       1.453   2.756  20.066  0.00  0.00    +0.000 A 
ATOM      4  C   UNL     1       1.831   4.097  19.927  0.00  0.00    +0.000 A 
ATOM      5  C   UNL     1       1.140   5.088  20.646  0.00  0.00    +0.000 A 
ATOM      6  C   UNL     1       1.489   6.431  20.530  0.00  0.00    +0.000 A 
ATOM      7  C   UNL     1       2.532   6.800  19.695  0.00  0.00    +0.000 A 
ATOM      8  C   UNL     1       3.233   5.824  18.977  0.00  0.00    +0.000 A 
ATOM      9  C   UNL     1       2.912   4.449  19.073  0.00  0.00    +0.000 A 
ATOM     10  C   UNL     1       3.611   3.412  18.382  0.00  0.00    +0.000 A 
ENDROOT
BRANCH   1  11
ATOM     11  O   UNL     1       3.849   1.081  17.885  0.00  0.00    +0.000 OA
ATOM     12  H   UNL     1       4.281   0.505  18.534  0.00  0.00    +0.000 HD
ENDBRANCH   1  11
BRANCH  10  13
ATOM     13  C   UNL     1       4.825   3.706  17.511  0.00  0.00    +0.000 C 
BRANCH  13  14
ATOM     14  N   UNL     1       5.999   3.993  18.332  0.00  0.00    +0.000 N 
ATOM     15  C   UNL     1       6.561   5.261  18.110  0.00  0.00    +0.000 A 
ATOM     16  C   UNL     1       7.651   5.646  18.890  0.00  0.00    +0.000 A 
ATOM     17  C   UNL     1       8.235   6.897  18.694  0.00  0.00    +0.000 A 
ATOM     18  C   UNL     1       7.716   7.742  17.725  0.00  0.00    +0.000 A 
ATOM     19  C   UNL     1       6.624   7.297  17.004  0.00  0.00    +0.000 A 
ATOM     20  N   UNL     1       6.043   6.089  17.178  0.00  0.00    +0.000 NA
ATOM     21  H   UNL     1       6.714   3.279  18.245  0.00  0.00    +0.000 HD
ENDBRANCH  13  14
ENDBRANCH  10  13
TORSDOF 3
ENDMDL
MODEL 4
REMARK VINA RESULT:      -7.5      0.728      1.343
REMARK  Name = 
REMARK  3 active torsions:
REMARK  status: ('A' for Active; 'I' for Inactive)
REMARK    1  A    between atoms: O_1  and  C_2
REMARK    2  A    between atoms: C_11  and  C_12
REMARK    3  A    between atoms: C_12  and  N_13
REMARK                            x       y       z     vdW  Elec       q    Type
REMARK                         _______ _______ _______ _____ _____    ______ ____
ROOT
ATOM      1  C   UNL     1       5.329   6.676  17.232  0.00  0.00    +0.000 A 
ATOM      2  C   UNL     1       4.157   7.368  17.516  0.00  0.00    +0.000 A 
ATOM      3  C   UNL     1       2.983   6.662  17.760  0.00  0.00    +0.000 A 
ATOM      4  C   UNL     1       2.973   5.262  17.747  0.00  0.00    +0.000 A 
ATOM      5  C   UNL     1       1.771   4.577  17.998  0.00  0.00    +0.000 A 
ATOM      6  C   UNL     1       1.726   3.185  17.994  0.00  0.00    +0.000 A 
ATOM      7  C   UNL     1       2.880   2.461  17.739  0.00  0.00    +0.000 A 
ATOM      8  C   UNL     1       4.083   3.129  17.482  0.00  0.00    +0.000 A 
ATOM      9  C   UNL     1       4.168   4.542  17.471  0.00  0.00    +0.000 A 
ATOM     10  C   UNL     1       5.364   5.271  17.190  0.00  0.00    +0.000 A 
ENDROOT
BRANCH   1  11
ATOM     11  O   UNL     1       6.468   7.384  16.961  0.00  0.00    +0.000 OA
ATOM     12  H   UNL     1       6.820   7.752  17.787  0.00  0.00    +0.000 HD
ENDBRANCH   1  11
BRANCH  10  13
ATOM     13  C   UNL     1       6.661   4.569  16.812  0.00  0.00    +0.000 C 
BRANCH  13  14
ATOM     14  N   UNL     1       7.349   5.285  15.741  0.00  0.00    +0.000 N 
ATOM     15  C   UNL     1       7.102   4.774  14.456  0.00  0.00    +0.000 A 
ATOM     16  C   UNL     1       7.670   5.429  13.364  0.00  0.00    +0.000 A 
ATOM     17  C   UNL     1       7.448   4.947  12.074  0.00  0.00    +0.000 A 
ATOM     18  C   UNL     1       6.657   3.821  11.900  0.00  0.00    +0.000 A 
ATOM     19  C   UNL     1       6.115   3.237  13.029  0.00  0.00    +0.000 A 
ATOM     20  N   UNL     1       6.318   3.688  14.287  0.00  0.00    +0.000 NA
ATOM     21  H   UNL     1       8.348   5.350  15.899  0.00  0.00    +0.000 HD
ENDBRANCH  13  14
ENDBRANCH  10  13
TORSDOF 3
ENDMDL
MODEL 5
REMARK VINA RESULT:      -7.4      3.209      4.395
REMARK  Name = 
REMARK  3 active torsions:
REMARK  status: ('A' for Active; 'I' for Inactive)
REMARK    1  A    between atoms: O_1  and  C_2
REMARK    2  A    between atoms: C_11  and  C_12
REMARK    3  A    between atoms: C_12  and  N_13
REMARK                            x       y       z     vdW  Elec       q    Type
REMARK                         _______ _______ _______ _____ _____    ______ ____
ROOT
ATOM      1  C   UNL     1       2.214   2.563  18.959  0.00  0.00    +0.000 A 
ATOM      2  C   UNL     1       1.463   2.515  20.128  0.00  0.00    +0.000 A 
ATOM      3  C   UNL     1       1.143   3.696  20.790  0.00  0.00    +0.000 A 
ATOM      4  C   UNL     1       1.547   4.936  20.279  0.00  0.00    +0.000 A 
ATOM      5  C   UNL     1       1.207   6.112  20.970  0.00  0.00    +0.000 A 
ATOM      6  C   UNL     1       1.591   7.361  20.489  0.00  0.00    +0.000 A 
ATOM      7  C   UNL     1       2.319   7.450  19.313  0.00  0.00    +0.000 A 
ATOM      8  C   UNL     1       2.669   6.288  18.617  0.00  0.00    +0.000 A 
ATOM      9  C   UNL     1       2.303   5.001  19.076  0.00  0.00    +0.000 A 
ATOM     10  C   UNL     1       2.656   3.783  18.417  0.00  0.00    +0.000 A 
ENDROOT
BRANCH   1  11
ATOM     11  O   UNL     1       2.549   1.392  18.336  0.00  0.00    +0.000 OA
ATOM     12  H   UNL     1       2.277   1.435  17.406  0.00  0.00    +0.000 HD
ENDBRANCH   1  11
BRANCH  10  13
ATOM     13  C   UNL     1       3.527   3.771  17.169  0.00  0.00    +0.000 C 
BRANCH  13  14
ATOM     14  N   UNL     1       4.930   3.554  17.512  0.00  0.00    +0.000 N 
ATOM     15  C   UNL     1       5.719   4.716  17.479  0.00  0.00    +0.000 A 
ATOM     16  C   UNL     1       7.059   4.616  17.850  0.00  0.00    +0.000 A 
ATOM     17  C   UNL     1       7.871   5.749  17.825  0.00  0.00    +0.000 A 
ATOM     18  C   UNL     1       7.326   6.963  17.434  0.00  0.00    +0.000 A 
ATOM     19  C   UNL     1       5.986   6.986  17.098  0.00  0.00    +0.000 A 
ATOM     20  N   UNL     1       5.183   5.900  17.115  0.00  0.00    +0.000 NA
ATOM     21  H   UNL     1       5.359   2.830  16.946  0.00  0.00    +0.000 HD
ENDBRANCH  13  14
ENDBRANCH  10  13
TORSDOF 3
ENDMDL
MODEL 6
REMARK VINA RESULT:      -7.2      2.248      3.835
REMARK  Name = 
REMARK  3 active torsions:
REMARK  status: ('A' for Active; 'I' for Inactive)
REMARK    1  A    between atoms: O_1  and  C_2
REMARK    2  A    between atoms: C_11  and  C_12
REMARK    3  A    between atoms: C_12  and  N_13
REMARK                            x       y       z     vdW  Elec       q    Type
REMARK                         _______ _______ _______ _____ _____    ______ ____
ROOT
ATOM      1  C   UNL     1       2.223   2.433  19.324  0.00  0.00    +0.000 A 
ATOM      2  C   UNL     1       1.501   2.640  20.494  0.00  0.00    +0.000 A 
ATOM      3  C   UNL     1       1.274   3.937  20.943  0.00  0.00    +0.000 A 
ATOM      4  C   UNL     1       1.742   5.039  20.217  0.00  0.00    +0.000 A 
ATOM      5  C   UNL     1       1.496   6.337  20.696  0.00  0.00    +0.000 A 
ATOM      6  C   UNL     1       1.947   7.456  19.999  0.00  0.00    +0.000 A 
ATOM      7  C   UNL     1       2.648   7.290  18.815  0.00  0.00    +0.000 A 
ATOM      8  C   UNL     1       2.905   6.003  18.328  0.00  0.00    +0.000 A 
ATOM      9  C   UNL     1       2.470   4.843  19.011  0.00  0.00    +0.000 A 
ATOM     10  C   UNL     1       2.728   3.508  18.571  0.00  0.00    +0.000 A 
ENDROOT
BRANCH   1  11
ATOM     11  O   UNL     1       2.467   1.152  18.912  0.00  0.00    +0.000 OA
ATOM     12  H   UNL     1       1.847   0.550  19.353  0.00  0.00    +0.000 HD
ENDBRANCH   1  11
BRANCH  10  13
ATOM     13  C   UNL     1       3.564   3.221  17.331  0.00  0.00    +0.000 C 
BRANCH  13  14
ATOM     14  N   UNL     1       4.955   3.618  17.536  0.00  0.00    +0.000 N 
ATOM     15  C   UNL     1       5.611   4.040  16.368  0.00  0.00    +0.000 A 
ATOM     16  C   UNL     1       6.925   4.494  16.475  0.00  0.00    +0.000 A 
ATOM     17  C   UNL     1       7.607   4.918  15.335  0.00  0.00    +0.000 A 
ATOM     18  C   UNL     1       6.961   4.883  14.109  0.00  0.00    +0.000 A 
ATOM     19  C   UNL     1       5.653   4.437  14.084  0.00  0.00    +0.000 A 
ATOM     20  N   UNL     1       4.975   4.023  15.178  0.00  0.00    +0.000 NA
ATOM     21  H   UNL     1       5.499   2.897  17.995  0.00  0.00    +0.000 HD
ENDBRANCH  13  14
ENDBRANCH  10  13
TORSDOF 3
ENDMDL
MODEL 7
REMARK VINA RESULT:      -7.1      2.381      3.470
REMARK  Name = 
REMARK  3 active torsions:
REMARK  status: ('A' for Active; 'I' for Inactive)
REMARK    1  A    between atoms: O_1  and  C_2
REMARK    2  A    between atoms: C_11  and  C_12
REMARK    3  A    between atoms: C_12  and  N_13
REMARK                            x       y       z     vdW  Elec       q    Type
REMARK                         _______ _______ _______ _____ _____    ______ ____
ROOT
ATOM      1  C   UNL     1       4.048   2.707  20.069  0.00  0.00    +0.000 A 
ATOM      2  C   UNL     1       3.060   2.570  21.037  0.00  0.00    +0.000 A 
ATOM      3  C   UNL     1       2.218   3.642  21.319  0.00  0.00    +0.000 A 
ATOM      4  C   UNL     1       2.339   4.850  20.623  0.00  0.00    +0.000 A 
ATOM      5  C   UNL     1       1.474   5.914  20.930  0.00  0.00    +0.000 A 
ATOM      6  C   UNL     1       1.566   7.130  20.256  0.00  0.00    +0.000 A 
ATOM      7  C   UNL     1       2.522   7.295  19.267  0.00  0.00    +0.000 A 
ATOM      8  C   UNL     1       3.394   6.247  18.954  0.00  0.00    +0.000 A 
ATOM      9  C   UNL     1       3.337   5.000  19.620  0.00  0.00    +0.000 A 
ATOM     10  C   UNL     1       4.219   3.907  19.356  0.00  0.00    +0.000 A 
ENDROOT
BRANCH   1  11
ATOM     11  O   UNL     1       4.889   1.657  19.825  0.00  0.00    +0.000 OA
ATOM     12  H   UNL     1       5.318   1.784  18.964  0.00  0.00    +0.000 HD
ENDBRANCH   1  11
BRANCH  10  13
ATOM     13  C   UNL     1       5.357   4.021  18.352  0.00  0.00    +0.000 C 
BRANCH  13  14
ATOM     14  N   UNL     1       4.964   3.481  17.052  0.00  0.00    +0.000 N 
ATOM     15  C   UNL     1       5.725   3.961  15.975  0.00  0.00    +0.000 A 
ATOM     16  C   UNL     1       5.461   3.456  14.702  0.00  0.00    +0.000 A 
ATOM     17  C   UNL     1       6.196   3.913  13.608  0.00  0.00    +0.000 A 
ATOM     18  C   UNL     1       7.186   4.863  13.809  0.00  0.00    +0.000 A 
ATOM     19  C   UNL     1       7.402   5.302  15.101  0.00  0.00    +0.000 A 
ATOM     20  N   UNL     1       6.700   4.872  16.174  0.00  0.00    +0.000 NA
ATOM     21  H   UNL     1       3.976   3.612  16.862  0.00  0.00    +0.000 HD
ENDBRANCH  13  14
ENDBRANCH  10  13
TORSDOF 3
ENDMDL
MODEL 8
REMARK VINA RESULT:      -7.1      3.566      6.600
REMARK  Name = 
REMARK  3 active torsions:
REMARK  status: ('A' for Active; 'I' for Inactive)
REMARK    1  A    between atoms: O_1  and  C_2
REMARK    2  A    between atoms: C_11  and  C_12
REMARK    3  A    between atoms: C_12  and  N_13
REMARK                            x       y       z     vdW  Elec       q    Type
REMARK                         _______ _______ _______ _____ _____    ______ ____
ROOT
ATOM      1  C   UNL     1       4.182   5.866  17.430  0.00  0.00    +0.000 A 
ATOM      2  C   UNL     1       4.559   4.738  16.710  0.00  0.00    +0.000 A 
ATOM      3  C   UNL     1       3.929   3.522  16.956  0.00  0.00    +0.000 A 
ATOM      4  C   UNL     1       2.904   3.425  17.904  0.00  0.00    +0.000 A 
ATOM      5  C   UNL     1       2.286   2.183  18.129  0.00  0.00    +0.000 A 
ATOM      6  C   UNL     1       1.262   2.051  19.064  0.00  0.00    +0.000 A 
ATOM      7  C   UNL     1       0.842   3.159  19.783  0.00  0.00    +0.000 A 
ATOM      8  C   UNL     1       1.451   4.401  19.573  0.00  0.00    +0.000 A 
ATOM      9  C   UNL     1       2.499   4.574  18.638  0.00  0.00    +0.000 A 
ATOM     10  C   UNL     1       3.169   5.814  18.404  0.00  0.00    +0.000 A 
ENDROOT
BRANCH   1  11
ATOM     11  O   UNL     1       4.832   7.048  17.201  0.00  0.00    +0.000 OA
ATOM     12  H   UNL     1       5.783   6.878  17.109  0.00  0.00    +0.000 HD
ENDBRANCH   1  11
BRANCH  10  13
ATOM     13  C   UNL     1       2.841   7.066  19.205  0.00  0.00    +0.000 C 
BRANCH  13  14
ATOM     14  N   UNL     1       2.234   8.086  18.355  0.00  0.00    +0.000 N 
ATOM     15  C   UNL     1       1.365   8.958  19.032  0.00  0.00    +0.000 A 
ATOM     16  C   UNL     1       0.783  10.001  18.313  0.00  0.00    +0.000 A 
ATOM     17  C   UNL     1      -0.086  10.884  18.953  0.00  0.00    +0.000 A 
ATOM     18  C   UNL     1      -0.355  10.709  20.302  0.00  0.00    +0.000 A 
ATOM     19  C   UNL     1       0.273   9.663  20.951  0.00  0.00    +0.000 A 
ATOM     20  N   UNL     1       1.119   8.797  20.349  0.00  0.00    +0.000 NA
ATOM     21  H   UNL     1       1.764   7.688  17.549  0.00  0.00    +0.000 HD
ENDBRANCH  13  14
ENDBRANCH  10  13
TORSDOF 3
ENDMDL
MODEL 9
REMARK VINA RESULT:      -7.1      2.291      6.397
REMARK  Name = 
REMARK  3 active torsions:
REMARK  status: ('A' for Active; 'I' for Inactive)
REMARK    1  A    between atoms: O_1  and  C_2
REMARK    2  A    between atoms: C_11  and  C_12
REMARK    3  A    between atoms: C_12  and  N_13
REMARK                            x       y       z     vdW  Elec       q    Type
REMARK                         _______ _______ _______ _____ _____    ______ ____
ROOT
ATOM      1  C   UNL     1       5.957   4.810  18.171  0.00  0.00    +0.000 A 
ATOM      2  C   UNL     1       6.942   5.767  17.949  0.00  0.00    +0.000 A 
ATOM      3  C   UNL     1       7.433   5.962  16.662  0.00  0.00    +0.000 A 
ATOM      4  C   UNL     1       6.931   5.225  15.583  0.00  0.00    +0.000 A 
ATOM      5  C   UNL     1       7.448   5.447  14.295  0.00  0.00    +0.000 A 
ATOM      6  C   UNL     1       6.970   4.731  13.199  0.00  0.00    +0.000 A 
ATOM      7  C   UNL     1       5.971   3.787  13.378  0.00  0.00    +0.000 A 
ATOM      8  C   UNL     1       5.451   3.552  14.655  0.00  0.00    +0.000 A 
ATOM      9  C   UNL     1       5.914   4.253  15.794  0.00  0.00    +0.000 A 
ATOM     10  C   UNL     1       5.435   4.033  17.122  0.00  0.00    +0.000 A 
ENDROOT
BRANCH   1  11
ATOM     11  O   UNL     1       5.506   4.605  19.446  0.00  0.00    +0.000 OA
ATOM     12  H   UNL     1       6.212   4.197  19.973  0.00  0.00    +0.000 HD
ENDBRANCH   1  11
BRANCH  10  13
ATOM     13  C   UNL     1       4.403   2.958  17.433  0.00  0.00    +0.000 C 
BRANCH  13  14
ATOM     14  N   UNL     1       3.081   3.546  17.637  0.00  0.00    +0.000 N 
ATOM     15  C   UNL     1       2.576   3.391  18.938  0.00  0.00    +0.000 A 
ATOM     16  C   UNL     1       1.345   3.971  19.243  0.00  0.00    +0.000 A 
ATOM     17  C   UNL     1       0.813   3.834  20.524  0.00  0.00    +0.000 A 
ATOM     18  C   UNL     1       1.524   3.123  21.480  0.00  0.00    +0.000 A 
ATOM     19  C   UNL     1       2.744   2.592  21.108  0.00  0.00    +0.000 A 
ATOM     20  N   UNL     1       3.278   2.714  19.871  0.00  0.00    +0.000 NA
ATOM     21  H   UNL     1       2.402   3.213  16.962  0.00  0.00    +0.000 HD
ENDBRANCH  13  14
ENDBRANCH  10  13
TORSDOF 3
ENDMDL
