MODEL 1
REMARK VINA RESULT:      -7.4      0.000      0.000
REMARK  Name = 
REMARK  9 active torsions:
REMARK  status: ('A' for Active; 'I' for Inactive)
REMARK    1  A    between atoms: C_2  and  C_3
REMARK    2  A    between atoms: C_3  and  O_4
REMARK    3  A    between atoms: O_4  and  C_5
REMARK    4  A    between atoms: C_9  and  C_10
REMARK    5  A    between atoms: N_12  and  C_13
REMARK    6  A    between atoms: C_13  and  C_14
REMARK    7  A    between atoms: C_19  and  O_20
REMARK    8  A    between atoms: O_20  and  C_21
REMARK    9  A    between atoms: N_25  and  C_26
REMARK                            x       y       z     vdW  Elec       q    Type
REMARK                         _______ _______ _______ _____ _____    ______ ____
ROOT
ATOM      1  C   UNL     1       1.599   9.138  19.678  0.00  0.00    +0.000 A 
ATOM      2  C   UNL     1       1.855   7.794  19.517  0.00  0.00    +0.000 A 
ATOM      3  C   UNL     1       1.699   6.795  20.479  0.00  0.00    +0.000 A 
ATOM      4  C   UNL     1       2.019   5.522  19.946  0.00  0.00    +0.000 A 
ATOM      5  C   UNL     1       2.484   5.305  18.603  0.00  0.00    +0.000 A 
ATOM      6  C   UNL     1       2.739   6.363  17.710  0.00  0.00    +0.000 A 
ATOM      7  C   UNL     1       2.342   7.614  18.182  0.00  0.00    +0.000 A 
ATOM      8  N   UNL     1       2.329   8.779  17.532  0.00  0.00    +0.000 NA
ATOM      9  N   UNL     1       1.919   9.683  18.446  0.00  0.00    +0.000 N 
ATOM     10  C   UNL     1       1.964  11.066  18.034  0.00  0.00    +0.000 C 
ENDROOT
BRANCH   5  11
ATOM     11  C   UNL     1       2.670   3.897  18.153  0.00  0.00    +0.000 C 
ATOM     12  O   UNL     1       1.787   3.349  17.498  0.00  0.00    +0.000 OA
ATOM     13  N   UNL     1       3.847   3.226  18.408  0.00  0.00    +0.000 N 
ATOM     14  H   UNL     1       3.851   2.272  18.068  0.00  0.00    +0.000 HD
BRANCH  13  15
ATOM     15  C   UNL     1       5.012   3.674  19.150  0.00  0.00    +0.000 C 
BRANCH  15  16
ATOM     16  C   UNL     1       5.910   4.598  18.386  0.00  0.00    +0.000 A 
ATOM     17  C   UNL     1       6.641   5.523  19.168  0.00  0.00    +0.000 A 
ATOM     18  C   UNL     1       7.442   6.501  18.589  0.00  0.00    +0.000 A 
ATOM     19  C   UNL     1       7.549   6.562  17.210  0.00  0.00    +0.000 A 
ATOM     20  C   UNL     1       6.852   5.646  16.424  0.00  0.00    +0.000 A 
ATOM     21  C   UNL     1       6.023   4.655  16.985  0.00  0.00    +0.000 A 
BRANCH  21  22
ATOM     22  O   UNL     1       5.431   3.915  16.004  0.00  0.00    +0.000 OA
ATOM     23  C   UNL     1       5.629   4.169  14.628  0.00  0.00    +0.000 C 
ENDBRANCH  21  22
ENDBRANCH  15  16
ENDBRANCH  13  15
ENDBRANCH   5  11
BRANCH   1  24
ATOM     24  O   UNL     1       1.205   9.791  20.780  0.00  0.00    +0.000 OA
BRANCH  24  25
ATOM     25  C   UNL     1      -0.187  10.002  20.976  0.00  0.00    +0.000 C 
BRANCH  25  27
ATOM     26  C   UNL     1      -0.126   9.453  23.413  0.00  0.00    +0.000 C 
ATOM     27  C   UNL     1      -0.413  10.306  22.423  0.00  0.00    +0.000 C 
ENDBRANCH  25  27
ENDBRANCH  24  25
ENDBRANCH   1  24
TORSDOF 7
ENDMDL
MODEL 2
REMARK VINA RESULT:      -7.2      1.051      1.918
REMARK  Name = 
REMARK  9 active torsions:
REMARK  status: ('A' for Active; 'I' for Inactive)
REMARK    1  A    between atoms: C_2  and  C_3
REMARK    2  A    between atoms: C_3  and  O_4
REMARK    3  A    between atoms: O_4  and  C_5
REMARK    4  A    between atoms: C_9  and  C_10
REMARK    5  A    between atoms: N_12  and  C_13
REMARK    6  A    between atoms: C_13  and  C_14
REMARK    7  A    between atoms: C_19  and  O_20
REMARK    8  A    between atoms: O_20  and  C_21
REMARK    9  A    between atoms: N_25  and  C_26
REMARK                            x       y       z     vdW  Elec       q    Type
REMARK                         _______ _______ _______ _____ _____    ______ ____
ROOT
ATOM      1  C   UNL     1       1.476   9.469  19.769  0.00  0.00    +0.000 A 
ATOM      2  C   UNL     1       1.663   8.105  19.750  0.00  0.00    +0.000 A 
ATOM      3  C   UNL     1       1.437   7.218  20.804  0.00  0.00    +0.000 A 
ATOM      4  C   UNL     1       1.697   5.883  20.409  0.00  0.00    +0.000 A 
ATOM      5  C   UNL     1       2.171   5.506  19.105  0.00  0.00    +0.000 A 
ATOM      6  C   UNL     1       2.497   6.453  18.115  0.00  0.00    +0.000 A 
ATOM      7  C   UNL     1       2.160   7.764  18.451  0.00  0.00    +0.000 A 
ATOM      8  N   UNL     1       2.220   8.856  17.686  0.00  0.00    +0.000 NA
ATOM      9  N   UNL     1       1.845   9.869  18.496  0.00  0.00    +0.000 N 
ATOM     10  C   UNL     1       1.971  11.198  17.947  0.00  0.00    +0.000 C 
ENDROOT
BRANCH   5  11
ATOM     11  C   UNL     1       2.288   4.052  18.803  0.00  0.00    +0.000 C 
ATOM     12  O   UNL     1       1.272   3.389  18.615  0.00  0.00    +0.000 OA
ATOM     13  N   UNL     1       3.525   3.458  18.671  0.00  0.00    +0.000 N 
ATOM     14  H   UNL     1       3.479   2.464  18.481  0.00  0.00    +0.000 HD
BRANCH  13  15
ATOM     15  C   UNL     1       4.843   4.042  18.844  0.00  0.00    +0.000 C 
BRANCH  15  16
ATOM     16  C   UNL     1       5.582   4.282  17.563  0.00  0.00    +0.000 A 
ATOM     17  C   UNL     1       4.818   4.132  16.381  0.00  0.00    +0.000 A 
ATOM     18  C   UNL     1       5.391   4.234  15.119  0.00  0.00    +0.000 A 
ATOM     19  C   UNL     1       6.743   4.511  15.009  0.00  0.00    +0.000 A 
ATOM     20  C   UNL     1       7.508   4.682  16.161  0.00  0.00    +0.000 A 
ATOM     21  C   UNL     1       6.953   4.571  17.450  0.00  0.00    +0.000 A 
BRANCH  21  22
ATOM     22  O   UNL     1       7.915   4.745  18.402  0.00  0.00    +0.000 OA
ATOM     23  C   UNL     1       7.870   5.789  19.353  0.00  0.00    +0.000 C 
ENDBRANCH  21  22
ENDBRANCH  15  16
ENDBRANCH  13  15
ENDBRANCH   5  11
BRANCH   1  24
ATOM     24  O   UNL     1       1.101  10.250  20.791  0.00  0.00    +0.000 OA
BRANCH  24  25
ATOM     25  C   UNL     1      -0.266  10.628  20.883  0.00  0.00    +0.000 C 
BRANCH  25  27
ATOM     26  C   UNL     1      -0.284   9.735  23.216  0.00  0.00    +0.000 C 
ATOM     27  C   UNL     1      -0.643  10.670  22.330  0.00  0.00    +0.000 C 
ENDBRANCH  25  27
ENDBRANCH  24  25
ENDBRANCH   1  24
TORSDOF 7
ENDMDL
MODEL 3
REMARK VINA RESULT:      -7.0      2.278      4.275
REMARK  Name = 
REMARK  9 active torsions:
REMARK  status: ('A' for Active; 'I' for Inactive)
REMARK    1  A    between atoms: C_2  and  C_3
REMARK    2  A    between atoms: C_3  and  O_4
REMARK    3  A    between atoms: O_4  and  C_5
REMARK    4  A    between atoms: C_9  and  C_10
REMARK    5  A    between atoms: N_12  and  C_13
REMARK    6  A    between atoms: C_13  and  C_14
REMARK    7  A    between atoms: C_19  and  O_20
REMARK    8  A    between atoms: O_20  and  C_21
REMARK    9  A    between atoms: N_25  and  C_26
REMARK                            x       y       z     vdW  Elec       q    Type
REMARK                         _______ _______ _______ _____ _____    ______ ____
ROOT
ATOM      1  C   UNL     1       0.435  10.179  20.502  0.00  0.00    +0.000 A 
ATOM      2  C   UNL     1       1.150   9.416  19.605  0.00  0.00    +0.000 A 
ATOM      3  C   UNL     1       1.366   9.699  18.257  0.00  0.00    +0.000 A 
ATOM      4  C   UNL     1       2.182   8.711  17.654  0.00  0.00    +0.000 A 
ATOM      5  C   UNL     1       2.682   7.550  18.341  0.00  0.00    +0.000 A 
ATOM      6  C   UNL     1       2.335   7.250  19.671  0.00  0.00    +0.000 A 
ATOM      7  C   UNL     1       1.610   8.257  20.310  0.00  0.00    +0.000 A 
ATOM      8  N   UNL     1       1.249   8.331  21.593  0.00  0.00    +0.000 NA
ATOM      9  N   UNL     1       0.519   9.463  21.684  0.00  0.00    +0.000 N 
ATOM     10  C   UNL     1      -0.127   9.700  22.953  0.00  0.00    +0.000 C 
ENDROOT
BRANCH   5  11
ATOM     11  C   UNL     1       3.623   6.660  17.605  0.00  0.00    +0.000 C 
ATOM     12  O   UNL     1       4.705   7.102  17.228  0.00  0.00    +0.000 OA
ATOM     13  N   UNL     1       3.319   5.332  17.397  0.00  0.00    +0.000 N 
ATOM     14  H   UNL     1       4.026   4.832  16.873  0.00  0.00    +0.000 HD
BRANCH  13  15
ATOM     15  C   UNL     1       2.115   4.603  17.754  0.00  0.00    +0.000 C 
BRANCH  15  16
ATOM     16  C   UNL     1       2.221   3.828  19.031  0.00  0.00    +0.000 A 
ATOM     17  C   UNL     1       1.030   3.736  19.790  0.00  0.00    +0.000 A 
ATOM     18  C   UNL     1       1.002   3.127  21.039  0.00  0.00    +0.000 A 
ATOM     19  C   UNL     1       2.163   2.574  21.551  0.00  0.00    +0.000 A 
ATOM     20  C   UNL     1       3.342   2.637  20.809  0.00  0.00    +0.000 A 
ATOM     21  C   UNL     1       3.399   3.260  19.548  0.00  0.00    +0.000 A 
BRANCH  21  22
ATOM     22  O   UNL     1       4.669   3.218  19.051  0.00  0.00    +0.000 OA
ATOM     23  C   UNL     1       5.634   4.213  19.330  0.00  0.00    +0.000 C 
ENDBRANCH  21  22
ENDBRANCH  15  16
ENDBRANCH  13  15
ENDBRANCH   5  11
BRANCH   1  24
ATOM     24  O   UNL     1      -0.249  11.310  20.282  0.00  0.00    +0.000 OA
BRANCH  24  25
ATOM     25  C   UNL     1      -1.553  11.211  19.726  0.00  0.00    +0.000 C 
BRANCH  25  27
ATOM     26  C   UNL     1      -2.774  13.205  20.606  0.00  0.00    +0.000 C 
ATOM     27  C   UNL     1      -2.120  12.591  19.614  0.00  0.00    +0.000 C 
ENDBRANCH  25  27
ENDBRANCH  24  25
ENDBRANCH   1  24
TORSDOF 7
ENDMDL
MODEL 4
REMARK VINA RESULT:      -6.9      3.631      7.726
REMARK  Name = 
REMARK  9 active torsions:
REMARK  status: ('A' for Active; 'I' for Inactive)
REMARK    1  A    between atoms: C_2  and  C_3
REMARK    2  A    between atoms: C_3  and  O_4
REMARK    3  A    between atoms: O_4  and  C_5
REMARK    4  A    between atoms: C_9  and  C_10
REMARK    5  A    between atoms: N_12  and  C_13
REMARK    6  A    between atoms: C_13  and  C_14
REMARK    7  A    between atoms: C_19  and  O_20
REMARK    8  A    between atoms: O_20  and  C_21
REMARK    9  A    between atoms: N_25  and  C_26
REMARK                            x       y       z     vdW  Elec       q    Type
REMARK                         _______ _______ _______ _____ _____    ______ ____
ROOT
ATOM      1  C   UNL     1       6.280   3.883  13.753  0.00  0.00    +0.000 A 
ATOM      2  C   UNL     1       5.984   4.085  15.082  0.00  0.00    +0.000 A 
ATOM      3  C   UNL     1       5.026   3.406  15.836  0.00  0.00    +0.000 A 
ATOM      4  C   UNL     1       5.028   3.850  17.181  0.00  0.00    +0.000 A 
ATOM      5  C   UNL     1       5.880   4.895  17.683  0.00  0.00    +0.000 A 
ATOM      6  C   UNL     1       6.745   5.630  16.851  0.00  0.00    +0.000 A 
ATOM      7  C   UNL     1       6.827   5.147  15.546  0.00  0.00    +0.000 A 
ATOM      8  N   UNL     1       7.644   5.539  14.566  0.00  0.00    +0.000 NA
ATOM      9  N   UNL     1       7.282   4.803  13.495  0.00  0.00    +0.000 N 
ATOM     10  C   UNL     1       7.920   5.145  12.246  0.00  0.00    +0.000 C 
ENDROOT
BRANCH   5  11
ATOM     11  C   UNL     1       5.848   5.172  19.146  0.00  0.00    +0.000 C 
ATOM     12  O   UNL     1       6.888   5.113  19.797  0.00  0.00    +0.000 OA
ATOM     13  N   UNL     1       4.677   5.556  19.764  0.00  0.00    +0.000 N 
ATOM     14  H   UNL     1       4.774   5.702  20.761  0.00  0.00    +0.000 HD
BRANCH  13  15
ATOM     15  C   UNL     1       3.347   5.695  19.198  0.00  0.00    +0.000 C 
BRANCH  15  16
ATOM     16  C   UNL     1       2.585   4.409  19.097  0.00  0.00    +0.000 A 
ATOM     17  C   UNL     1       1.446   4.439  18.257  0.00  0.00    +0.000 A 
ATOM     18  C   UNL     1       0.592   3.349  18.140  0.00  0.00    +0.000 A 
ATOM     19  C   UNL     1       0.869   2.191  18.846  0.00  0.00    +0.000 A 
ATOM     20  C   UNL     1       1.997   2.135  19.663  0.00  0.00    +0.000 A 
ATOM     21  C   UNL     1       2.870   3.230  19.809  0.00  0.00    +0.000 A 
BRANCH  21  22
ATOM     22  O   UNL     1       3.870   2.932  20.689  0.00  0.00    +0.000 OA
ATOM     23  C   UNL     1       4.753   1.844  20.503  0.00  0.00    +0.000 C 
ENDBRANCH  21  22
ENDBRANCH  15  16
ENDBRANCH  13  15
ENDBRANCH   5  11
BRANCH   1  24
ATOM     24  O   UNL     1       5.694   3.050  12.880  0.00  0.00    +0.000 OA
BRANCH  24  25
ATOM     25  C   UNL     1       5.351   3.553  11.597  0.00  0.00    +0.000 C 
BRANCH  25  27
ATOM     26  C   UNL     1       3.272   3.544  10.212  0.00  0.00    +0.000 C 
ATOM     27  C   UNL     1       3.949   3.133  11.289  0.00  0.00    +0.000 C 
ENDBRANCH  25  27
ENDBRANCH  24  25
ENDBRANCH   1  24
TORSDOF 7
ENDMDL
MODEL 5
REMARK VINA RESULT:      -6.9      2.708      7.728
REMARK  Name = 
REMARK  9 active torsions:
REMARK  status: ('A' for Active; 'I' for Inactive)
REMARK    1  A    between atoms: C_2  and  C_3
REMARK    2  A    between atoms: C_3  and  O_4
REMARK    3  A    between atoms: O_4  and  C_5
REMARK    4  A    between atoms: C_9  and  C_10
REMARK    5  A    between atoms: N_12  and  C_13
REMARK    6  A    between atoms: C_13  and  C_14
REMARK    7  A    between atoms: C_19  and  O_20
REMARK    8  A    between atoms: O_20  and  C_21
REMARK    9  A    between atoms: N_25  and  C_26
REMARK                            x       y       z     vdW  Elec       q    Type
REMARK                         _______ _______ _______ _____ _____    ______ ____
ROOT
ATOM      1  C   UNL     1       6.107   4.073  13.891  0.00  0.00    +0.000 A 
ATOM      2  C   UNL     1       5.764   4.265  15.210  0.00  0.00    +0.000 A 
ATOM      3  C   UNL     1       4.712   3.654  15.895  0.00  0.00    +0.000 A 
ATOM      4  C   UNL     1       4.686   4.059  17.252  0.00  0.00    +0.000 A 
ATOM      5  C   UNL     1       5.600   5.008  17.827  0.00  0.00    +0.000 A 
ATOM      6  C   UNL     1       6.568   5.686  17.062  0.00  0.00    +0.000 A 
ATOM      7  C   UNL     1       6.673   5.232  15.747  0.00  0.00    +0.000 A 
ATOM      8  N   UNL     1       7.571   5.577  14.821  0.00  0.00    +0.000 NA
ATOM      9  N   UNL     1       7.199   4.906  13.711  0.00  0.00    +0.000 N 
ATOM     10  C   UNL     1       7.927   5.224  12.505  0.00  0.00    +0.000 C 
ENDROOT
BRANCH   5  11
ATOM     11  C   UNL     1       5.519   5.247  19.295  0.00  0.00    +0.000 C 
ATOM     12  O   UNL     1       6.548   5.251  19.966  0.00  0.00    +0.000 OA
ATOM     13  N   UNL     1       4.311   5.525  19.897  0.00  0.00    +0.000 N 
ATOM     14  H   UNL     1       4.378   5.654  20.900  0.00  0.00    +0.000 HD
BRANCH  13  15
ATOM     15  C   UNL     1       2.985   5.575  19.307  0.00  0.00    +0.000 C 
BRANCH  15  16
ATOM     16  C   UNL     1       2.500   6.959  19.002  0.00  0.00    +0.000 A 
ATOM     17  C   UNL     1       2.860   7.465  17.730  0.00  0.00    +0.000 A 
ATOM     18  C   UNL     1       2.559   8.767  17.346  0.00  0.00    +0.000 A 
ATOM     19  C   UNL     1       1.870   9.589  18.220  0.00  0.00    +0.000 A 
ATOM     20  C   UNL     1       1.489   9.103  19.470  0.00  0.00    +0.000 A 
ATOM     21  C   UNL     1       1.794   7.793  19.887  0.00  0.00    +0.000 A 
BRANCH  21  22
ATOM     22  O   UNL     1       1.346   7.579  21.158  0.00  0.00    +0.000 OA
ATOM     23  C   UNL     1       0.793   8.605  21.957  0.00  0.00    +0.000 C 
ENDBRANCH  21  22
ENDBRANCH  15  16
ENDBRANCH  13  15
ENDBRANCH   5  11
BRANCH   1  24
ATOM     24  O   UNL     1       5.495   3.322  12.965  0.00  0.00    +0.000 OA
BRANCH  24  25
ATOM     25  C   UNL     1       5.001   3.962  11.797  0.00  0.00    +0.000 C 
BRANCH  25  27
ATOM     26  C   UNL     1       3.166   3.476  10.173  0.00  0.00    +0.000 C 
ATOM     27  C   UNL     1       3.902   3.119  11.231  0.00  0.00    +0.000 C 
ENDBRANCH  25  27
ENDBRANCH  24  25
ENDBRANCH   1  24
TORSDOF 7
ENDMDL
MODEL 6
REMARK VINA RESULT:      -6.8      3.569      8.395
REMARK  Name = 
REMARK  9 active torsions:
REMARK  status: ('A' for Active; 'I' for Inactive)
REMARK    1  A    between atoms: C_2  and  C_3
REMARK    2  A    between atoms: C_3  and  O_4
REMARK    3  A    between atoms: O_4  and  C_5
REMARK    4  A    between atoms: C_9  and  C_10
REMARK    5  A    between atoms: N_12  and  C_13
REMARK    6  A    between atoms: C_13  and  C_14
REMARK    7  A    between atoms: C_19  and  O_20
REMARK    8  A    between atoms: O_20  and  C_21
REMARK    9  A    between atoms: N_25  and  C_26
REMARK                            x       y       z     vdW  Elec       q    Type
REMARK                         _______ _______ _______ _____ _____    ______ ____
ROOT
ATOM      1  C   UNL     1       2.550   6.396  19.565  0.00  0.00    +0.000 A 
ATOM      2  C   UNL     1       1.982   7.648  19.631  0.00  0.00    +0.000 A 
ATOM      3  C   UNL     1       1.285   8.191  20.711  0.00  0.00    +0.000 A 
ATOM      4  C   UNL     1       0.879   9.521  20.439  0.00  0.00    +0.000 A 
ATOM      5  C   UNL     1       1.123  10.198  19.193  0.00  0.00    +0.000 A 
ATOM      6  C   UNL     1       1.727   9.562  18.092  0.00  0.00    +0.000 A 
ATOM      7  C   UNL     1       2.217   8.286  18.371  0.00  0.00    +0.000 A 
ATOM      8  N   UNL     1       2.946   7.489  17.586  0.00  0.00    +0.000 NA
ATOM      9  N   UNL     1       3.105   6.353  18.297  0.00  0.00    +0.000 N 
ATOM     10  C   UNL     1       3.738   5.256  17.605  0.00  0.00    +0.000 C 
ENDROOT
BRANCH   5  11
ATOM     11  C   UNL     1       0.738  11.633  19.098  0.00  0.00    +0.000 C 
ATOM     12  O   UNL     1       1.606  12.483  18.915  0.00  0.00    +0.000 OA
ATOM     13  N   UNL     1      -0.586  12.012  19.149  0.00  0.00    +0.000 N 
ATOM     14  H   UNL     1      -0.724  13.013  19.089  0.00  0.00    +0.000 HD
BRANCH  13  15
ATOM     15  C   UNL     1      -1.765  11.189  19.353  0.00  0.00    +0.000 C 
BRANCH  15  16
ATOM     16  C   UNL     1      -2.591  10.982  18.120  0.00  0.00    +0.000 A 
ATOM     17  C   UNL     1      -1.936  10.327  17.050  0.00  0.00    +0.000 A 
ATOM     18  C   UNL     1      -2.547  10.149  15.814  0.00  0.00    +0.000 A 
ATOM     19  C   UNL     1      -3.840  10.606  15.625  0.00  0.00    +0.000 A 
ATOM     20  C   UNL     1      -4.509  11.236  16.674  0.00  0.00    +0.000 A 
ATOM     21  C   UNL     1      -3.907  11.439  17.930  0.00  0.00    +0.000 A 
BRANCH  21  22
ATOM     22  O   UNL     1      -4.755  12.107  18.765  0.00  0.00    +0.000 OA
ATOM     23  C   UNL     1      -5.889  12.811  18.300  0.00  0.00    +0.000 C 
ENDBRANCH  21  22
ENDBRANCH  15  16
ENDBRANCH  13  15
ENDBRANCH   5  11
BRANCH   1  24
ATOM     24  O   UNL     1       2.517   5.410  20.473  0.00  0.00    +0.000 OA
BRANCH  24  25
ATOM     25  C   UNL     1       1.315   4.665  20.613  0.00  0.00    +0.000 C 
BRANCH  25  27
ATOM     26  C   UNL     1       1.095   2.880  18.878  0.00  0.00    +0.000 C 
ATOM     27  C   UNL     1       1.551   3.292  20.066  0.00  0.00    +0.000 C 
ENDBRANCH  25  27
ENDBRANCH  24  25
ENDBRANCH   1  24
TORSDOF 7
ENDMDL
MODEL 7
REMARK VINA RESULT:      -6.8      1.134      2.001
REMARK  Name = 
REMARK  9 active torsions:
REMARK  status: ('A' for Active; 'I' for Inactive)
REMARK    1  A    between atoms: C_2  and  C_3
REMARK    2  A    between atoms: C_3  and  O_4
REMARK    3  A    between atoms: O_4  and  C_5
REMARK    4  A    between atoms: C_9  and  C_10
REMARK    5  A    between atoms: N_12  and  C_13
REMARK    6  A    between atoms: C_13  and  C_14
REMARK    7  A    between atoms: C_19  and  O_20
REMARK    8  A    between atoms: O_20  and  C_21
REMARK    9  A    between atoms: N_25  and  C_26
REMARK                            x       y       z     vdW  Elec       q    Type
REMARK                         _______ _______ _______ _____ _____    ______ ____
ROOT
ATOM      1  C   UNL     1       1.344   8.569  20.425  0.00  0.00    +0.000 A 
ATOM      2  C   UNL     1       1.614   7.259  20.099  0.00  0.00    +0.000 A 
ATOM      3  C   UNL     1       1.585   6.162  20.960  0.00  0.00    +0.000 A 
ATOM      4  C   UNL     1       1.876   4.962  20.267  0.00  0.00    +0.000 A 
ATOM      5  C   UNL     1       2.200   4.900  18.866  0.00  0.00    +0.000 A 
ATOM      6  C   UNL     1       2.332   6.051  18.068  0.00  0.00    +0.000 A 
ATOM      7  C   UNL     1       1.958   7.233  18.708  0.00  0.00    +0.000 A 
ATOM      8  N   UNL     1       1.848   8.458  18.189  0.00  0.00    +0.000 NA
ATOM      9  N   UNL     1       1.517   9.248  19.231  0.00  0.00    +0.000 N 
ATOM     10  C   UNL     1       1.485  10.667  18.964  0.00  0.00    +0.000 C 
ENDROOT
BRANCH   5  11
ATOM     11  C   UNL     1       2.370   3.553  18.254  0.00  0.00    +0.000 C 
ATOM     12  O   UNL     1       1.379   2.922  17.893  0.00  0.00    +0.000 OA
ATOM     13  N   UNL     1       3.627   3.034  18.031  0.00  0.00    +0.000 N 
ATOM     14  H   UNL     1       3.617   2.107  17.624  0.00  0.00    +0.000 HD
BRANCH  13  15
ATOM     15  C   UNL     1       4.921   3.599  18.368  0.00  0.00    +0.000 C 
BRANCH  15  16
ATOM     16  C   UNL     1       5.637   4.230  17.213  0.00  0.00    +0.000 A 
ATOM     17  C   UNL     1       5.401   3.635  15.951  0.00  0.00    +0.000 A 
ATOM     18  C   UNL     1       6.067   4.055  14.806  0.00  0.00    +0.000 A 
ATOM     19  C   UNL     1       6.973   5.099  14.892  0.00  0.00    +0.000 A 
ATOM     20  C   UNL     1       7.203   5.711  16.123  0.00  0.00    +0.000 A 
ATOM     21  C   UNL     1       6.551   5.295  17.300  0.00  0.00    +0.000 A 
BRANCH  21  22
ATOM     22  O   UNL     1       6.978   6.028  18.368  0.00  0.00    +0.000 OA
ATOM     23  C   UNL     1       7.912   7.082  18.249  0.00  0.00    +0.000 C 
ENDBRANCH  21  22
ENDBRANCH  15  16
ENDBRANCH  13  15
ENDBRANCH   5  11
BRANCH   1  24
ATOM     24  O   UNL     1       1.055   9.092  21.625  0.00  0.00    +0.000 OA
BRANCH  24  25
ATOM     25  C   UNL     1      -0.287   9.020  22.086  0.00  0.00    +0.000 C 
BRANCH  25  27
ATOM     26  C   UNL     1      -1.290  11.095  23.049  0.00  0.00    +0.000 C 
ATOM     27  C   UNL     1      -0.469  10.046  23.159  0.00  0.00    +0.000 C 
ENDBRANCH  25  27
ENDBRANCH  24  25
ENDBRANCH   1  24
TORSDOF 7
ENDMDL
MODEL 8
REMARK VINA RESULT:      -6.7      2.784      8.016
REMARK  Name = 
REMARK  9 active torsions:
REMARK  status: ('A' for Active; 'I' for Inactive)
REMARK    1  A    between atoms: C_2  and  C_3
REMARK    2  A    between atoms: C_3  and  O_4
REMARK    3  A    between atoms: O_4  and  C_5
REMARK    4  A    between atoms: C_9  and  C_10
REMARK    5  A    between atoms: N_12  and  C_13
REMARK    6  A    between atoms: C_13  and  C_14
REMARK    7  A    between atoms: C_19  and  O_20
REMARK    8  A    between atoms: O_20  and  C_21
REMARK    9  A    between atoms: N_25  and  C_26
REMARK                            x       y       z     vdW  Elec       q    Type
REMARK                         _______ _______ _______ _____ _____    ______ ____
ROOT
ATOM      1  C   UNL     1       3.866   4.970  18.145  0.00  0.00    +0.000 A 
ATOM      2  C   UNL     1       3.067   5.850  18.840  0.00  0.00    +0.000 A 
ATOM      3  C   UNL     1       2.318   5.571  19.983  0.00  0.00    +0.000 A 
ATOM      4  C   UNL     1       1.651   6.730  20.450  0.00  0.00    +0.000 A 
ATOM      5  C   UNL     1       1.712   8.012  19.799  0.00  0.00    +0.000 A 
ATOM      6  C   UNL     1       2.387   8.210  18.581  0.00  0.00    +0.000 A 
ATOM      7  C   UNL     1       3.126   7.107  18.154  0.00  0.00    +0.000 A 
ATOM      8  N   UNL     1       3.968   7.022  17.121  0.00  0.00    +0.000 NA
ATOM      9  N   UNL     1       4.372   5.735  17.107  0.00  0.00    +0.000 N 
ATOM     10  C   UNL     1       5.181   5.337  15.979  0.00  0.00    +0.000 C 
ENDROOT
BRANCH   5  11
ATOM     11  C   UNL     1       1.050   9.163  20.473  0.00  0.00    +0.000 C 
ATOM     12  O   UNL     1       1.229   9.346  21.675  0.00  0.00    +0.000 OA
ATOM     13  N   UNL     1       0.292  10.060  19.752  0.00  0.00    +0.000 N 
ATOM     14  H   UNL     1      -0.119  10.792  20.319  0.00  0.00    +0.000 HD
BRANCH  13  15
ATOM     15  C   UNL     1      -0.046  10.044  18.340  0.00  0.00    +0.000 C 
BRANCH  15  16
ATOM     16  C   UNL     1      -1.464  10.425  18.043  0.00  0.00    +0.000 A 
ATOM     17  C   UNL     1      -2.016   9.855  16.872  0.00  0.00    +0.000 A 
ATOM     18  C   UNL     1      -3.288  10.189  16.422  0.00  0.00    +0.000 A 
ATOM     19  C   UNL     1      -4.049  11.089  17.148  0.00  0.00    +0.000 A 
ATOM     20  C   UNL     1      -3.531  11.645  18.316  0.00  0.00    +0.000 A 
ATOM     21  C   UNL     1      -2.240  11.333  18.785  0.00  0.00    +0.000 A 
BRANCH  21  22
ATOM     22  O   UNL     1      -1.961  12.036  19.921  0.00  0.00    +0.000 OA
ATOM     23  C   UNL     1      -1.507  13.374  19.901  0.00  0.00    +0.000 C 
ENDBRANCH  21  22
ENDBRANCH  15  16
ENDBRANCH  13  15
ENDBRANCH   5  11
BRANCH   1  24
ATOM     24  O   UNL     1       4.059   3.662  18.362  0.00  0.00    +0.000 OA
BRANCH  24  25
ATOM     25  C   UNL     1       3.242   2.735  17.661  0.00  0.00    +0.000 C 
BRANCH  25  27
ATOM     26  C   UNL     1       1.012   2.412  18.740  0.00  0.00    +0.000 C 
ATOM     27  C   UNL     1       2.308   2.100  18.642  0.00  0.00    +0.000 C 
ENDBRANCH  25  27
ENDBRANCH  24  25
ENDBRANCH   1  24
TORSDOF 7
ENDMDL
MODEL 9
REMARK VINA RESULT:      -6.7      3.252      8.122
REMARK  Name = 
REMARK  9 active torsions:
REMARK  status: ('A' for Active; 'I' for Inactive)
REMARK    1  A    between atoms: C_2  and  C_3
REMARK    2  A    between atoms: C_3  and  O_4
REMARK    3  A    between atoms: O_4  and  C_5
REMARK    4  A    between atoms: C_9  and  C_10
REMARK    5  A    between atoms: N_12  and  C_13
REMARK    6  A    between atoms: C_13  and  C_14
REMARK    7  A    between atoms: C_19  and  O_20
REMARK    8  A    between atoms: O_20  and  C_21
REMARK    9  A    between atoms: N_25  and  C_26
REMARK                            x       y       z     vdW  Elec       q    Type
REMARK                         _______ _______ _______ _____ _____    ______ ____
ROOT
ATOM      1  C   UNL     1       3.120   5.225  19.579  0.00  0.00    +0.000 A 
ATOM      2  C   UNL     1       2.590   6.490  19.459  0.00  0.00    +0.000 A 
ATOM      3  C   UNL     1       1.853   7.179  20.422  0.00  0.00    +0.000 A 
ATOM      4  C   UNL     1       1.506   8.475  19.966  0.00  0.00    +0.000 A 
ATOM      5  C   UNL     1       1.840   8.986  18.664  0.00  0.00    +0.000 A 
ATOM      6  C   UNL     1       2.482   8.205  17.686  0.00  0.00    +0.000 A 
ATOM      7  C   UNL     1       2.914   6.961  18.146  0.00  0.00    +0.000 A 
ATOM      8  N   UNL     1       3.659   6.055  17.508  0.00  0.00    +0.000 NA
ATOM      9  N   UNL     1       3.742   5.012  18.361  0.00  0.00    +0.000 N 
ATOM     10  C   UNL     1       4.377   3.822  17.845  0.00  0.00    +0.000 C 
ENDROOT
BRANCH   5  11
ATOM     11  C   UNL     1       1.507  10.409  18.372  0.00  0.00    +0.000 C 
ATOM     12  O   UNL     1       2.404  11.191  18.069  0.00  0.00    +0.000 OA
ATOM     13  N   UNL     1       0.198  10.840  18.376  0.00  0.00    +0.000 N 
ATOM     14  H   UNL     1       0.096  11.828  18.178  0.00  0.00    +0.000 HD
BRANCH  13  15
ATOM     15  C   UNL     1      -1.008  10.099  18.696  0.00  0.00    +0.000 C 
BRANCH  15  16
ATOM     16  C   UNL     1      -2.190  10.448  17.843  0.00  0.00    +0.000 A 
ATOM     17  C   UNL     1      -2.165   9.931  16.526  0.00  0.00    +0.000 A 
ATOM     18  C   UNL     1      -3.147  10.248  15.595  0.00  0.00    +0.000 A 
ATOM     19  C   UNL     1      -4.192  11.076  15.967  0.00  0.00    +0.000 A 
ATOM     20  C   UNL     1      -4.244  11.579  17.265  0.00  0.00    +0.000 A 
ATOM     21  C   UNL     1      -3.255  11.283  18.223  0.00  0.00    +0.000 A 
BRANCH  21  22
ATOM     22  O   UNL     1      -3.519  11.925  19.398  0.00  0.00    +0.000 OA
ATOM     23  C   UNL     1      -2.659  12.904  19.944  0.00  0.00    +0.000 C 
ENDBRANCH  21  22
ENDBRANCH  15  16
ENDBRANCH  13  15
ENDBRANCH   5  11
BRANCH   1  24
ATOM     24  O   UNL     1       3.006   4.361  20.597  0.00  0.00    +0.000 OA
BRANCH  24  25
ATOM     25  C   UNL     1       1.701   4.018  21.045  0.00  0.00    +0.000 C 
BRANCH  25  27
ATOM     26  C   UNL     1       1.448   2.145  19.412  0.00  0.00    +0.000 C 
ATOM     27  C   UNL     1       1.004   3.290  19.940  0.00  0.00    +0.000 C 
ENDBRANCH  25  27
ENDBRANCH  24  25
ENDBRANCH   1  24
TORSDOF 7
ENDMDL
