MODEL 1
REMARK VINA RESULT:      -6.4      0.000      0.000
REMARK  Name = 
REMARK  6 active torsions:
REMARK  status: ('A' for Active; 'I' for Inactive)
REMARK    1  A    between atoms: C_1  and  O_2
REMARK    2  A    between atoms: O_2  and  C_3
REMARK    3  A    between atoms: C_5  and  O_6
REMARK    4  A    between atoms: C_13  and  O_14
REMARK    5  A    between atoms: C_15  and  O_16
REMARK    6  A    between atoms: C_23  and  C_24
REMARK                            x       y       z     vdW  Elec       q    Type
REMARK                         _______ _______ _______ _____ _____    ______ ____
ROOT
ATOM      1  C   UNL     1       1.791   7.851  19.810  0.00  0.00    +0.000 A 
ATOM      2  C   UNL     1       1.909   8.520  18.620  0.00  0.00    +0.000 A 
ATOM      3  C   UNL     1       1.044   9.666  18.316  0.00  0.00    +0.000 A 
ATOM      4  C   UNL     1      -0.093  10.072  19.134  0.00  0.00    +0.000 A 
ATOM      5  C   UNL     1       0.230   9.621  20.435  0.00  0.00    +0.000 A 
ATOM      6  C   UNL     1       0.964   8.414  20.751  0.00  0.00    +0.000 A 
ATOM      7  C   UNL     1       0.728  10.701  21.274  0.00  0.00    +0.000 C 
ATOM      8  C   UNL     1       1.065  11.885  20.766  0.00  0.00    +0.000 C 
ATOM      9  C   UNL     1       0.678  13.124  21.345  0.00  0.00    +0.000 C 
ATOM     10  C   UNL     1      -0.464  13.044  22.338  0.00  0.00    +0.000 C 
ATOM     11  C   UNL     1      -1.302  14.298  22.240  0.00  0.00    +0.000 C 
ATOM     12  C   UNL     1      -2.256  14.166  23.394  0.00  0.00    +0.000 C 
ATOM     13  O   UNL     1      -1.896  14.435  24.546  0.00  0.00    +0.000 OA
ATOM     14  C   UNL     1      -3.625  13.667  23.164  0.00  0.00    +0.000 C 
ATOM     15  F   UNL     1      -3.963  12.560  23.855  0.00  0.00    +0.000 F 
ATOM     16  C   UNL     1      -4.417  14.046  22.150  0.00  0.00    +0.000 C 
ATOM     17  C   UNL     1      -3.927  14.183  20.686  0.00  0.00    +0.000 C 
ATOM     18  C   UNL     1      -3.738  12.653  20.055  0.00  0.00    +0.000 C 
ATOM     19  C   UNL     1      -5.205  12.281  19.633  0.00  0.00    +0.000 C 
ATOM     20  O   UNL     1      -2.350  11.687  19.745  0.00  0.00    +0.000 OA
ATOM     21  C   UNL     1      -1.258  11.345  18.823  0.00  0.00    +0.000 C 
ATOM     22  O   UNL     1      -1.178  11.985  17.778  0.00  0.00    +0.000 OA
ENDROOT
BRANCH   1  24
ATOM     23  C   UNL     1       3.183   5.950  19.318  0.00  0.00    +0.000 C 
ATOM     24  O   UNL     1       2.676   6.883  20.261  0.00  0.00    +0.000 OA
ENDBRANCH   1  24
BRANCH   3  25
ATOM     25  O   UNL     1       1.694  10.546  17.459  0.00  0.00    +0.000 OA
ATOM     26  H   UNL     1       1.044  11.187  17.138  0.00  0.00    +0.000 HD
ENDBRANCH   3  25
BRANCH  10  27
ATOM     27  O   UNL     1      -1.376  11.959  22.093  0.00  0.00    +0.000 OA
ATOM     28  H   UNL     1      -2.153  12.308  21.633  0.00  0.00    +0.000 HD
ENDBRANCH  10  27
BRANCH  11  29
ATOM     29  O   UNL     1      -0.553  15.492  22.246  0.00  0.00    +0.000 OA
ATOM     30  H   UNL     1       0.290  15.284  21.821  0.00  0.00    +0.000 HD
ENDBRANCH  11  29
TORSDOF 4
ENDMDL
MODEL 2
REMARK VINA RESULT:      -6.3      8.437     11.612
REMARK  Name = 
REMARK  6 active torsions:
REMARK  status: ('A' for Active; 'I' for Inactive)
REMARK    1  A    between atoms: C_1  and  O_2
REMARK    2  A    between atoms: O_2  and  C_3
REMARK    3  A    between atoms: C_5  and  O_6
REMARK    4  A    between atoms: C_13  and  O_14
REMARK    5  A    between atoms: C_15  and  O_16
REMARK    6  A    between atoms: C_23  and  C_24
REMARK                            x       y       z     vdW  Elec       q    Type
REMARK                         _______ _______ _______ _____ _____    ______ ____
ROOT
ATOM      1  C   UNL     1       3.426  16.213  18.601  0.00  0.00    +0.000 A 
ATOM      2  C   UNL     1       3.773  16.872  19.750  0.00  0.00    +0.000 A 
ATOM      3  C   UNL     1       4.991  16.511  20.484  0.00  0.00    +0.000 A 
ATOM      4  C   UNL     1       5.817  15.348  20.175  0.00  0.00    +0.000 A 
ATOM      5  C   UNL     1       5.600  15.118  18.796  0.00  0.00    +0.000 A 
ATOM      6  C   UNL     1       4.356  15.340  18.090  0.00  0.00    +0.000 A 
ATOM      7  C   UNL     1       6.694  15.630  17.984  0.00  0.00    +0.000 C 
ATOM      8  C   UNL     1       7.628  16.431  18.491  0.00  0.00    +0.000 C 
ATOM      9  C   UNL     1       9.018  16.263  18.250  0.00  0.00    +0.000 C 
ATOM     10  C   UNL     1       9.422  14.903  17.718  0.00  0.00    +0.000 C 
ATOM     11  C   UNL     1      10.782  14.535  18.264  0.00  0.00    +0.000 C 
ATOM     12  C   UNL     1      11.128  13.281  17.510  0.00  0.00    +0.000 C 
ATOM     13  O   UNL     1      11.553  13.338  16.350  0.00  0.00    +0.000 OA
ATOM     14  C   UNL     1      10.918  11.963  18.138  0.00  0.00    +0.000 C 
ATOM     15  F   UNL     1      10.098  11.127  17.472  0.00  0.00    +0.000 F 
ATOM     16  C   UNL     1      11.237  11.660  19.405  0.00  0.00    +0.000 C 
ATOM     17  C   UNL     1      10.935  12.586  20.609  0.00  0.00    +0.000 C 
ATOM     18  C   UNL     1       9.302  12.506  20.931  0.00  0.00    +0.000 C 
ATOM     19  C   UNL     1       9.193  11.193  21.787  0.00  0.00    +0.000 C 
ATOM     20  O   UNL     1       7.999  13.580  20.607  0.00  0.00    +0.000 OA
ATOM     21  C   UNL     1       7.223  14.753  21.036  0.00  0.00    +0.000 C 
ATOM     22  O   UNL     1       7.582  15.325  22.060  0.00  0.00    +0.000 OA
ENDROOT
BRANCH   1  24
ATOM     23  C   UNL     1       1.486  17.581  18.207  0.00  0.00    +0.000 C 
ATOM     24  O   UNL     1       2.404  16.600  17.747  0.00  0.00    +0.000 OA
ENDBRANCH   1  24
BRANCH   3  25
ATOM     25  O   UNL     1       5.489  17.614  21.165  0.00  0.00    +0.000 OA
ATOM     26  H   UNL     1       6.219  17.983  20.648  0.00  0.00    +0.000 HD
ENDBRANCH   3  25
BRANCH  10  27
ATOM     27  O   UNL     1       8.549  13.835  18.123  0.00  0.00    +0.000 OA
ATOM     28  H   UNL     1       7.865  14.200  18.703  0.00  0.00    +0.000 HD
ENDBRANCH  10  27
BRANCH  11  29
ATOM     29  O   UNL     1      11.744  15.559  18.152  0.00  0.00    +0.000 OA
ATOM     30  H   UNL     1      12.333  15.461  18.913  0.00  0.00    +0.000 HD
ENDBRANCH  11  29
TORSDOF 4
ENDMDL
MODEL 3
REMARK VINA RESULT:      -6.0      2.931      7.480
REMARK  Name = 
REMARK  6 active torsions:
REMARK  status: ('A' for Active; 'I' for Inactive)
REMARK    1  A    between atoms: C_1  and  O_2
REMARK    2  A    between atoms: O_2  and  C_3
REMARK    3  A    between atoms: C_5  and  O_6
REMARK    4  A    between atoms: C_13  and  O_14
REMARK    5  A    between atoms: C_15  and  O_16
REMARK    6  A    between atoms: C_23  and  C_24
REMARK                            x       y       z     vdW  Elec       q    Type
REMARK                         _______ _______ _______ _____ _____    ______ ____
ROOT
ATOM      1  C   UNL     1      -5.787  16.343  23.427  0.00  0.00    +0.000 A 
ATOM      2  C   UNL     1      -6.665  15.296  23.534  0.00  0.00    +0.000 A 
ATOM      3  C   UNL     1      -6.429  14.043  22.808  0.00  0.00    +0.000 A 
ATOM      4  C   UNL     1      -5.383  13.862  21.807  0.00  0.00    +0.000 A 
ATOM      5  C   UNL     1      -4.380  14.789  22.174  0.00  0.00    +0.000 A 
ATOM      6  C   UNL     1      -4.611  16.091  22.764  0.00  0.00    +0.000 A 
ATOM      7  C   UNL     1      -3.282  14.146  22.880  0.00  0.00    +0.000 C 
ATOM      8  C   UNL     1      -3.372  12.896  23.329  0.00  0.00    +0.000 C 
ATOM      9  C   UNL     1      -2.346  11.928  23.160  0.00  0.00    +0.000 C 
ATOM     10  C   UNL     1      -1.311  12.261  22.104  0.00  0.00    +0.000 C 
ATOM     11  C   UNL     1      -0.849  10.986  21.437  0.00  0.00    +0.000 C 
ATOM     12  C   UNL     1       0.293  11.444  20.573  0.00  0.00    +0.000 C 
ATOM     13  O   UNL     1       1.410  11.654  21.060  0.00  0.00    +0.000 OA
ATOM     14  C   UNL     1       0.074  11.692  19.135  0.00  0.00    +0.000 C 
ATOM     15  F   UNL     1       0.362  12.938  18.711  0.00  0.00    +0.000 F 
ATOM     16  C   UNL     1      -0.629  10.893  18.319  0.00  0.00    +0.000 C 
ATOM     17  C   UNL     1      -1.997  10.272  18.699  0.00  0.00    +0.000 C 
ATOM     18  C   UNL     1      -3.151  11.472  18.629  0.00  0.00    +0.000 C 
ATOM     19  C   UNL     1      -3.489  11.523  17.096  0.00  0.00    +0.000 C 
ATOM     20  O   UNL     1      -3.957  12.382  19.845  0.00  0.00    +0.000 OA
ATOM     21  C   UNL     1      -5.070  12.460  20.801  0.00  0.00    +0.000 C 
ATOM     22  O   UNL     1      -5.820  11.491  20.879  0.00  0.00    +0.000 OA
ENDROOT
BRANCH   1  24
ATOM     23  C   UNL     1      -4.953  17.562  25.327  0.00  0.00    +0.000 C 
ATOM     24  O   UNL     1      -5.826  17.487  24.209  0.00  0.00    +0.000 OA
ENDBRANCH   1  24
BRANCH   3  25
ATOM     25  O   UNL     1      -6.990  12.975  23.496  0.00  0.00    +0.000 OA
ATOM     26  H   UNL     1      -7.273  12.314  22.847  0.00  0.00    +0.000 HD
ENDBRANCH   3  25
BRANCH  10  27
ATOM     27  O   UNL     1      -1.809  13.088  21.039  0.00  0.00    +0.000 OA
ATOM     28  H   UNL     1      -1.223  13.853  20.943  0.00  0.00    +0.000 HD
ENDBRANCH  10  27
BRANCH  11  29
ATOM     29  O   UNL     1      -0.513   9.955  22.336  0.00  0.00    +0.000 OA
ATOM     30  H   UNL     1      -1.096   9.212  22.126  0.00  0.00    +0.000 HD
ENDBRANCH  11  29
TORSDOF 4
ENDMDL
MODEL 4
REMARK VINA RESULT:      -5.9      8.951     12.008
REMARK  Name = 
REMARK  6 active torsions:
REMARK  status: ('A' for Active; 'I' for Inactive)
REMARK    1  A    between atoms: C_1  and  O_2
REMARK    2  A    between atoms: O_2  and  C_3
REMARK    3  A    between atoms: C_5  and  O_6
REMARK    4  A    between atoms: C_13  and  O_14
REMARK    5  A    between atoms: C_15  and  O_16
REMARK    6  A    between atoms: C_23  and  C_24
REMARK                            x       y       z     vdW  Elec       q    Type
REMARK                         _______ _______ _______ _____ _____    ______ ____
ROOT
ATOM      1  C   UNL     1       3.889  16.633  19.200  0.00  0.00    +0.000 A 
ATOM      2  C   UNL     1       4.095  16.618  20.554  0.00  0.00    +0.000 A 
ATOM      3  C   UNL     1       5.263  15.939  21.127  0.00  0.00    +0.000 A 
ATOM      4  C   UNL     1       6.177  15.098  20.362  0.00  0.00    +0.000 A 
ATOM      5  C   UNL     1       6.096  15.600  19.042  0.00  0.00    +0.000 A 
ATOM      6  C   UNL     1       4.909  16.145  18.419  0.00  0.00    +0.000 A 
ATOM      7  C   UNL     1       7.226  16.458  18.720  0.00  0.00    +0.000 C 
ATOM      8  C   UNL     1       8.065  16.895  19.656  0.00  0.00    +0.000 C 
ATOM      9  C   UNL     1       9.478  16.878  19.511  0.00  0.00    +0.000 C 
ATOM     10  C   UNL     1      10.004  15.978  18.411  0.00  0.00    +0.000 C 
ATOM     11  C   UNL     1      11.330  15.390  18.835  0.00  0.00    +0.000 C 
ATOM     12  C   UNL     1      11.811  14.695  17.592  0.00  0.00    +0.000 C 
ATOM     13  O   UNL     1      12.333  15.335  16.672  0.00  0.00    +0.000 OA
ATOM     14  C   UNL     1      11.622  13.239  17.443  0.00  0.00    +0.000 C 
ATOM     15  F   UNL     1      10.912  12.854  16.364  0.00  0.00    +0.000 F 
ATOM     16  C   UNL     1      11.845  12.335  18.408  0.00  0.00    +0.000 C 
ATOM     17  C   UNL     1      11.385  12.520  19.876  0.00  0.00    +0.000 C 
ATOM     18  C   UNL     1       9.737  12.281  19.940  0.00  0.00    +0.000 C 
ATOM     19  C   UNL     1       9.628  10.715  19.999  0.00  0.00    +0.000 C 
ATOM     20  O   UNL     1       8.410  13.365  20.069  0.00  0.00    +0.000 OA
ATOM     21  C   UNL     1       7.533  14.154  20.947  0.00  0.00    +0.000 C 
ATOM     22  O   UNL     1       7.767  14.128  22.151  0.00  0.00    +0.000 OA
ENDROOT
BRANCH   1  24
ATOM     23  C   UNL     1       1.601  16.888  18.498  0.00  0.00    +0.000 C 
ATOM     24  O   UNL     1       2.926  17.396  18.557  0.00  0.00    +0.000 OA
ENDBRANCH   1  24
BRANCH   3  25
ATOM     25  O   UNL     1       5.635  16.545  22.320  0.00  0.00    +0.000 OA
ATOM     26  H   UNL     1       4.839  16.668  22.857  0.00  0.00    +0.000 HD
ENDBRANCH   3  25
BRANCH  10  27
ATOM     27  O   UNL     1       9.161  14.850  18.127  0.00  0.00    +0.000 OA
ATOM     28  H   UNL     1       8.273  15.173  17.916  0.00  0.00    +0.000 HD
ENDBRANCH  10  27
BRANCH  11  29
ATOM     29  O   UNL     1      12.238  16.332  19.357  0.00  0.00    +0.000 OA
ATOM     30  H   UNL     1      11.943  16.521  20.258  0.00  0.00    +0.000 HD
ENDBRANCH  11  29
TORSDOF 4
ENDMDL
MODEL 5
REMARK VINA RESULT:      -5.9      2.212      3.296
REMARK  Name = 
REMARK  6 active torsions:
REMARK  status: ('A' for Active; 'I' for Inactive)
REMARK    1  A    between atoms: C_1  and  O_2
REMARK    2  A    between atoms: O_2  and  C_3
REMARK    3  A    between atoms: C_5  and  O_6
REMARK    4  A    between atoms: C_13  and  O_14
REMARK    5  A    between atoms: C_15  and  O_16
REMARK    6  A    between atoms: C_23  and  C_24
REMARK                            x       y       z     vdW  Elec       q    Type
REMARK                         _______ _______ _______ _____ _____    ______ ____
ROOT
ATOM      1  C   UNL     1       0.764  10.490  19.188  0.00  0.00    +0.000 A 
ATOM      2  C   UNL     1       1.367  11.717  19.272  0.00  0.00    +0.000 A 
ATOM      3  C   UNL     1       0.608  12.898  19.700  0.00  0.00    +0.000 A 
ATOM      4  C   UNL     1      -0.838  12.915  19.893  0.00  0.00    +0.000 A 
ATOM      5  C   UNL     1      -1.166  11.577  20.216  0.00  0.00    +0.000 A 
ATOM      6  C   UNL     1      -0.512  10.399  19.689  0.00  0.00    +0.000 A 
ATOM      7  C   UNL     1      -1.363  11.400  21.647  0.00  0.00    +0.000 C 
ATOM      8  C   UNL     1      -1.016  12.338  22.525  0.00  0.00    +0.000 C 
ATOM      9  C   UNL     1      -1.848  12.751  23.600  0.00  0.00    +0.000 C 
ATOM     10  C   UNL     1      -3.307  12.360  23.474  0.00  0.00    +0.000 C 
ATOM     11  C   UNL     1      -4.169  13.440  24.088  0.00  0.00    +0.000 C 
ATOM     12  C   UNL     1      -5.545  12.836  24.067  0.00  0.00    +0.000 C 
ATOM     13  O   UNL     1      -5.885  12.009  24.921  0.00  0.00    +0.000 OA
ATOM     14  C   UNL     1      -6.490  13.195  22.992  0.00  0.00    +0.000 C 
ATOM     15  F   UNL     1      -6.947  12.164  22.253  0.00  0.00    +0.000 F 
ATOM     16  C   UNL     1      -6.692  14.439  22.535  0.00  0.00    +0.000 C 
ATOM     17  C   UNL     1      -5.546  15.437  22.234  0.00  0.00    +0.000 C 
ATOM     18  C   UNL     1      -4.804  14.966  20.818  0.00  0.00    +0.000 C 
ATOM     19  C   UNL     1      -5.753  15.573  19.724  0.00  0.00    +0.000 C 
ATOM     20  O   UNL     1      -3.318  14.164  20.496  0.00  0.00    +0.000 OA
ATOM     21  C   UNL     1      -1.867  14.277  20.293  0.00  0.00    +0.000 C 
ATOM     22  O   UNL     1      -1.365  15.392  20.399  0.00  0.00    +0.000 OA
ENDROOT
BRANCH   1  24
ATOM     23  C   UNL     1       2.101   9.117  17.733  0.00  0.00    +0.000 C 
ATOM     24  O   UNL     1       1.434   9.296  18.974  0.00  0.00    +0.000 OA
ENDBRANCH   1  24
BRANCH   3  25
ATOM     25  O   UNL     1       1.449  13.814  20.318  0.00  0.00    +0.000 OA
ATOM     26  H   UNL     1       2.019  14.205  19.641  0.00  0.00    +0.000 HD
ENDBRANCH   3  25
BRANCH  10  27
ATOM     27  O   UNL     1      -3.763  12.237  22.117  0.00  0.00    +0.000 OA
ATOM     28  H   UNL     1      -3.012  12.388  21.524  0.00  0.00    +0.000 HD
ENDBRANCH  10  27
BRANCH  11  29
ATOM     29  O   UNL     1      -3.744  13.860  25.364  0.00  0.00    +0.000 OA
ATOM     30  H   UNL     1      -4.254  14.655  25.571  0.00  0.00    +0.000 HD
ENDBRANCH  11  29
TORSDOF 4
ENDMDL
MODEL 6
REMARK VINA RESULT:      -5.9      2.512      4.398
REMARK  Name = 
REMARK  6 active torsions:
REMARK  status: ('A' for Active; 'I' for Inactive)
REMARK    1  A    between atoms: C_1  and  O_2
REMARK    2  A    between atoms: O_2  and  C_3
REMARK    3  A    between atoms: C_5  and  O_6
REMARK    4  A    between atoms: C_13  and  O_14
REMARK    5  A    between atoms: C_15  and  O_16
REMARK    6  A    between atoms: C_23  and  C_24
REMARK                            x       y       z     vdW  Elec       q    Type
REMARK                         _______ _______ _______ _____ _____    ______ ____
ROOT
ATOM      1  C   UNL     1       0.998  12.219  19.151  0.00  0.00    +0.000 A 
ATOM      2  C   UNL     1       1.713  13.010  20.010  0.00  0.00    +0.000 A 
ATOM      3  C   UNL     1       1.030  13.902  20.954  0.00  0.00    +0.000 A 
ATOM      4  C   UNL     1      -0.407  14.157  20.944  0.00  0.00    +0.000 A 
ATOM      5  C   UNL     1      -0.968  12.988  20.379  0.00  0.00    +0.000 A 
ATOM      6  C   UNL     1      -0.362  12.176  19.345  0.00  0.00    +0.000 A 
ATOM      7  C   UNL     1      -1.520  12.107  21.398  0.00  0.00    +0.000 C 
ATOM      8  C   UNL     1      -1.275  12.292  22.693  0.00  0.00    +0.000 C 
ATOM      9  C   UNL     1      -2.279  12.231  23.697  0.00  0.00    +0.000 C 
ATOM     10  C   UNL     1      -3.704  12.338  23.191  0.00  0.00    +0.000 C 
ATOM     11  C   UNL     1      -4.543  13.072  24.212  0.00  0.00    +0.000 C 
ATOM     12  C   UNL     1      -5.940  12.930  23.675  0.00  0.00    +0.000 C 
ATOM     13  O   UNL     1      -6.575  11.881  23.834  0.00  0.00    +0.000 OA
ATOM     14  C   UNL     1      -6.551  14.035  22.911  0.00  0.00    +0.000 C 
ATOM     15  F   UNL     1      -6.945  13.725  21.660  0.00  0.00    +0.000 F 
ATOM     16  C   UNL     1      -6.480  15.330  23.250  0.00  0.00    +0.000 C 
ATOM     17  C   UNL     1      -5.179  16.019  23.731  0.00  0.00    +0.000 C 
ATOM     18  C   UNL     1      -4.188  16.242  22.410  0.00  0.00    +0.000 C 
ATOM     19  C   UNL     1      -4.766  17.557  21.775  0.00  0.00    +0.000 C 
ATOM     20  O   UNL     1      -2.781  15.420  21.861  0.00  0.00    +0.000 OA
ATOM     21  C   UNL     1      -1.321  15.274  21.939  0.00  0.00    +0.000 C 
ATOM     22  O   UNL     1      -0.722  15.988  22.738  0.00  0.00    +0.000 OA
ENDROOT
BRANCH   1  24
ATOM     23  C   UNL     1       1.000   9.911  18.468  0.00  0.00    +0.000 C 
ATOM     24  O   UNL     1       1.542  11.220  18.360  0.00  0.00    +0.000 OA
ENDBRANCH   1  24
BRANCH   3  25
ATOM     25  O   UNL     1       1.809  14.094  22.087  0.00  0.00    +0.000 OA
ATOM     26  H   UNL     1       2.719  14.260  21.802  0.00  0.00    +0.000 HD
ENDBRANCH   3  25
BRANCH  10  27
ATOM     27  O   UNL     1      -3.837  13.094  21.976  0.00  0.00    +0.000 OA
ATOM     28  H   UNL     1      -4.428  12.614  21.378  0.00  0.00    +0.000 HD
ENDBRANCH  10  27
BRANCH  11  29
ATOM     29  O   UNL     1      -4.383  12.605  25.532  0.00  0.00    +0.000 OA
ATOM     30  H   UNL     1      -4.397  13.388  26.099  0.00  0.00    +0.000 HD
ENDBRANCH  11  29
TORSDOF 4
ENDMDL
MODEL 7
REMARK VINA RESULT:      -5.8      4.022      8.743
REMARK  Name = 
REMARK  6 active torsions:
REMARK  status: ('A' for Active; 'I' for Inactive)
REMARK    1  A    between atoms: C_1  and  O_2
REMARK    2  A    between atoms: O_2  and  C_3
REMARK    3  A    between atoms: C_5  and  O_6
REMARK    4  A    between atoms: C_13  and  O_14
REMARK    5  A    between atoms: C_15  and  O_16
REMARK    6  A    between atoms: C_23  and  C_24
REMARK                            x       y       z     vdW  Elec       q    Type
REMARK                         _______ _______ _______ _____ _____    ______ ____
ROOT
ATOM      1  C   UNL     1      -1.277  11.000  18.258  0.00  0.00    +0.000 A 
ATOM      2  C   UNL     1      -0.665  11.407  19.414  0.00  0.00    +0.000 A 
ATOM      3  C   UNL     1       0.254  10.515  20.130  0.00  0.00    +0.000 A 
ATOM      4  C   UNL     1       0.457   9.110  19.795  0.00  0.00    +0.000 A 
ATOM      5  C   UNL     1       0.157   9.030  18.415  0.00  0.00    +0.000 A 
ATOM      6  C   UNL     1      -0.848   9.809  17.724  0.00  0.00    +0.000 A 
ATOM      7  C   UNL     1       1.363   9.000  17.601  0.00  0.00    +0.000 C 
ATOM      8  C   UNL     1       2.561   9.277  18.111  0.00  0.00    +0.000 C 
ATOM      9  C   UNL     1       3.721   8.498  17.855  0.00  0.00    +0.000 C 
ATOM     10  C   UNL     1       3.458   7.113  17.297  0.00  0.00    +0.000 C 
ATOM     11  C   UNL     1       4.501   6.154  17.824  0.00  0.00    +0.000 C 
ATOM     12  C   UNL     1       4.235   4.895  17.046  0.00  0.00    +0.000 C 
ATOM     13  O   UNL     1       4.638   4.773  15.884  0.00  0.00    +0.000 OA
ATOM     14  C   UNL     1       3.446   3.807  17.656  0.00  0.00    +0.000 C 
ATOM     15  F   UNL     1       2.334   3.451  16.984  0.00  0.00    +0.000 F 
ATOM     16  C   UNL     1       3.593   3.368  18.914  0.00  0.00    +0.000 C 
ATOM     17  C   UNL     1       3.749   4.308  20.136  0.00  0.00    +0.000 C 
ATOM     18  C   UNL     1       2.260   4.976  20.472  0.00  0.00    +0.000 C 
ATOM     19  C   UNL     1       1.564   3.843  21.308  0.00  0.00    +0.000 C 
ATOM     20  O   UNL     1       1.592   6.533  20.178  0.00  0.00    +0.000 OA
ATOM     21  C   UNL     1       1.437   7.922  20.633  0.00  0.00    +0.000 C 
ATOM     22  O   UNL     1       2.020   8.248  21.663  0.00  0.00    +0.000 OA
ENDROOT
BRANCH   1  24
ATOM     23  C   UNL     1      -2.740  11.225  16.360  0.00  0.00    +0.000 C 
ATOM     24  O   UNL     1      -2.009  11.827  17.420  0.00  0.00    +0.000 OA
ENDBRANCH   1  24
BRANCH   3  25
ATOM     25  O   UNL     1       1.202  11.256  20.824  0.00  0.00    +0.000 OA
ATOM     26  H   UNL     1       1.948  11.423  20.231  0.00  0.00    +0.000 HD
ENDBRANCH   3  25
BRANCH  10  27
ATOM     27  O   UNL     1       2.194   6.555  17.693  0.00  0.00    +0.000 OA
ATOM     28  H   UNL     1       1.837   6.043  16.952  0.00  0.00    +0.000 HD
ENDBRANCH  10  27
BRANCH  11  29
ATOM     29  O   UNL     1       5.823   6.628  17.719  0.00  0.00    +0.000 OA
ATOM     30  H   UNL     1       6.170   6.665  18.621  0.00  0.00    +0.000 HD
ENDBRANCH  11  29
TORSDOF 4
ENDMDL
MODEL 8
REMARK VINA RESULT:      -5.8      8.881     11.695
REMARK  Name = 
REMARK  6 active torsions:
REMARK  status: ('A' for Active; 'I' for Inactive)
REMARK    1  A    between atoms: C_1  and  O_2
REMARK    2  A    between atoms: O_2  and  C_3
REMARK    3  A    between atoms: C_5  and  O_6
REMARK    4  A    between atoms: C_13  and  O_14
REMARK    5  A    between atoms: C_15  and  O_16
REMARK    6  A    between atoms: C_23  and  C_24
REMARK                            x       y       z     vdW  Elec       q    Type
REMARK                         _______ _______ _______ _____ _____    ______ ____
ROOT
ATOM      1  C   UNL     1       7.815  15.416  26.181  0.00  0.00    +0.000 A 
ATOM      2  C   UNL     1       6.524  15.101  25.848  0.00  0.00    +0.000 A 
ATOM      3  C   UNL     1       6.166  14.766  24.465  0.00  0.00    +0.000 A 
ATOM      4  C   UNL     1       7.071  14.908  23.330  0.00  0.00    +0.000 A 
ATOM      5  C   UNL     1       8.362  14.774  23.890  0.00  0.00    +0.000 A 
ATOM      6  C   UNL     1       8.762  15.228  25.204  0.00  0.00    +0.000 A 
ATOM      7  C   UNL     1       8.911  13.444  23.669  0.00  0.00    +0.000 C 
ATOM      8  C   UNL     1       8.160  12.439  23.225  0.00  0.00    +0.000 C 
ATOM      9  C   UNL     1       8.568  11.553  22.192  0.00  0.00    +0.000 C 
ATOM     10  C   UNL     1       9.728  12.039  21.346  0.00  0.00    +0.000 C 
ATOM     11  C   UNL     1       9.548  11.555  19.925  0.00  0.00    +0.000 C 
ATOM     12  C   UNL     1      10.844  11.937  19.265  0.00  0.00    +0.000 C 
ATOM     13  O   UNL     1      11.860  11.250  19.423  0.00  0.00    +0.000 OA
ATOM     14  C   UNL     1      10.923  13.167  18.455  0.00  0.00    +0.000 C 
ATOM     15  F   UNL     1      11.840  14.069  18.857  0.00  0.00    +0.000 F 
ATOM     16  C   UNL     1       9.996  13.559  17.568  0.00  0.00    +0.000 C 
ATOM     17  C   UNL     1       8.473  13.513  17.844  0.00  0.00    +0.000 C 
ATOM     18  C   UNL     1       8.094  14.754  18.889  0.00  0.00    +0.000 C 
ATOM     19  C   UNL     1       7.980  15.985  17.920  0.00  0.00    +0.000 C 
ATOM     20  O   UNL     1       7.741  14.790  20.571  0.00  0.00    +0.000 OA
ATOM     21  C   UNL     1       6.731  14.647  21.629  0.00  0.00    +0.000 C 
ATOM     22  O   UNL     1       5.592  14.343  21.288  0.00  0.00    +0.000 OA
ENDROOT
BRANCH   1  24
ATOM     23  C   UNL     1       9.073  14.520  28.026  0.00  0.00    +0.000 C 
ATOM     24  O   UNL     1       8.281  15.564  27.478  0.00  0.00    +0.000 OA
ENDBRANCH   1  24
BRANCH   3  25
ATOM     25  O   UNL     1       5.078  13.903  24.444  0.00  0.00    +0.000 OA
ATOM     26  H   UNL     1       4.516  14.145  23.694  0.00  0.00    +0.000 HD
ENDBRANCH   3  25
BRANCH  10  27
ATOM     27  O   UNL     1       9.823  13.470  21.251  0.00  0.00    +0.000 OA
ATOM     28  H   UNL     1      10.345  13.794  21.999  0.00  0.00    +0.000 HD
ENDBRANCH  10  27
BRANCH  11  29
ATOM     29  O   UNL     1       9.228  10.187  19.819  0.00  0.00    +0.000 OA
ATOM     30  H   UNL     1       9.478   9.785  20.662  0.00  0.00    +0.000 HD
ENDBRANCH  11  29
TORSDOF 4
ENDMDL
MODEL 9
REMARK VINA RESULT:      -5.8      1.993      2.920
REMARK  Name = 
REMARK  6 active torsions:
REMARK  status: ('A' for Active; 'I' for Inactive)
REMARK    1  A    between atoms: C_1  and  O_2
REMARK    2  A    between atoms: O_2  and  C_3
REMARK    3  A    between atoms: C_5  and  O_6
REMARK    4  A    between atoms: C_13  and  O_14
REMARK    5  A    between atoms: C_15  and  O_16
REMARK    6  A    between atoms: C_23  and  C_24
REMARK                            x       y       z     vdW  Elec       q    Type
REMARK                         _______ _______ _______ _____ _____    ______ ____
ROOT
ATOM      1  C   UNL     1       0.195   9.933  18.944  0.00  0.00    +0.000 A 
ATOM      2  C   UNL     1      -0.338  10.409  17.775  0.00  0.00    +0.000 A 
ATOM      3  C   UNL     1      -1.635  11.095  17.768  0.00  0.00    +0.000 A 
ATOM      4  C   UNL     1      -2.527  11.172  18.920  0.00  0.00    +0.000 A 
ATOM      5  C   UNL     1      -1.666  11.074  20.038  0.00  0.00    +0.000 A 
ATOM      6  C   UNL     1      -0.453  10.287  20.102  0.00  0.00    +0.000 A 
ATOM      7  C   UNL     1      -1.407  12.376  20.636  0.00  0.00    +0.000 C 
ATOM      8  C   UNL     1      -1.745  13.508  20.025  0.00  0.00    +0.000 C 
ATOM      9  C   UNL     1      -2.394  14.589  20.680  0.00  0.00    +0.000 C 
ATOM     10  C   UNL     1      -3.041  14.244  22.007  0.00  0.00    +0.000 C 
ATOM     11  C   UNL     1      -4.295  15.071  22.182  0.00  0.00    +0.000 C 
ATOM     12  C   UNL     1      -4.709  14.772  23.596  0.00  0.00    +0.000 C 
ATOM     13  O   UNL     1      -4.150  15.326  24.549  0.00  0.00    +0.000 OA
ATOM     14  C   UNL     1      -5.764  13.773  23.858  0.00  0.00    +0.000 C 
ATOM     15  F   UNL     1      -5.401  12.739  24.642  0.00  0.00    +0.000 F 
ATOM     16  C   UNL     1      -6.912  13.675  23.172  0.00  0.00    +0.000 C 
ATOM     17  C   UNL     1      -6.996  13.760  21.628  0.00  0.00    +0.000 C 
ATOM     18  C   UNL     1      -6.418  12.332  20.995  0.00  0.00    +0.000 C 
ATOM     19  C   UNL     1      -7.667  11.385  21.109  0.00  0.00    +0.000 C 
ATOM     20  O   UNL     1      -4.930  11.911  20.243  0.00  0.00    +0.000 OA
ATOM     21  C   UNL     1      -4.136  11.862  19.007  0.00  0.00    +0.000 C 
ATOM     22  O   UNL     1      -4.645  12.319  17.989  0.00  0.00    +0.000 OA
ENDROOT
BRANCH   1  24
ATOM     23  C   UNL     1       2.039   8.713  17.992  0.00  0.00    +0.000 C 
ATOM     24  O   UNL     1       1.484   9.440  19.079  0.00  0.00    +0.000 OA
ENDBRANCH   1  24
BRANCH   3  25
ATOM     25  O   UNL     1      -1.690  12.012  16.726  0.00  0.00    +0.000 OA
ATOM     26  H   UNL     1      -2.551  11.924  16.292  0.00  0.00    +0.000 HD
ENDBRANCH   3  25
BRANCH  10  27
ATOM     27  O   UNL     1      -3.472  12.876  22.108  0.00  0.00    +0.000 OA
ATOM     28  H   UNL     1      -4.242  12.838  22.693  0.00  0.00    +0.000 HD
ENDBRANCH  10  27
BRANCH  11  29
ATOM     29  O   UNL     1      -4.123  16.442  21.910  0.00  0.00    +0.000 OA
ATOM     30  H   UNL     1      -4.803  16.678  21.265  0.00  0.00    +0.000 HD
ENDBRANCH  11  29
TORSDOF 4
ENDMDL
