MODEL 1
REMARK VINA RESULT:      -7.6      0.000      0.000
REMARK  Name = 
REMARK  4 active torsions:
REMARK  status: ('A' for Active; 'I' for Inactive)
REMARK    1  A    between atoms: C_1  and  C_2
REMARK    2  A    between atoms: C_5  and  C_6
REMARK    3  A    between atoms: N_8  and  C_9
REMARK    4  A    between atoms: C_9  and  C_10
REMARK                            x       y       z     vdW  Elec       q    Type
REMARK                         _______ _______ _______ _____ _____    ______ ____
ROOT
ATOM      1  C   UNL     1       4.275   5.536  18.236  0.00  0.00    +0.000 C 
ATOM      2  O   UNL     1       3.686   6.188  17.382  0.00  0.00    +0.000 OA
ATOM      3  N   UNL     1       5.655   5.430  18.289  0.00  0.00    +0.000 N 
ATOM      4  H   UNL     1       6.017   4.712  18.912  0.00  0.00    +0.000 HD
ENDROOT
BRANCH   1   9
ATOM      5  C   UNL     1       1.372   2.564  22.091  0.00  0.00    +0.000 C 
ATOM      6  C   UNL     1       2.150   3.380  21.109  0.00  0.00    +0.000 A 
ATOM      7  C   UNL     1       1.843   4.716  20.845  0.00  0.00    +0.000 A 
ATOM      8  N   UNL     1       2.507   5.472  19.930  0.00  0.00    +0.000 NA
ATOM      9  C   UNL     1       3.515   4.817  19.289  0.00  0.00    +0.000 A 
ATOM     10  C   UNL     1       3.840   3.496  19.557  0.00  0.00    +0.000 A 
ATOM     11  N   UNL     1       3.165   2.752  20.468  0.00  0.00    +0.000 NA
ENDBRANCH   1   9
BRANCH   3  12
ATOM     12  C   UNL     1       6.493   5.940  17.217  0.00  0.00    +0.000 C 
BRANCH  12  13
ATOM     13  C   UNL     1       7.093   4.883  16.272  0.00  0.00    +0.000 C 
ATOM     14  C   UNL     1       6.054   3.899  15.697  0.00  0.00    +0.000 C 
ATOM     15  C   UNL     1       6.370   3.993  14.254  0.00  0.00    +0.000 A 
ATOM     16  C   UNL     1       5.845   3.280  13.185  0.00  0.00    +0.000 A 
ATOM     17  C   UNL     1       6.299   3.586  11.898  0.00  0.00    +0.000 A 
ATOM     18  C   UNL     1       7.261   4.590  11.696  0.00  0.00    +0.000 A 
ATOM     19  C   UNL     1       7.778   5.296  12.782  0.00  0.00    +0.000 A 
ATOM     20  C   UNL     1       7.317   4.978  14.042  0.00  0.00    +0.000 A 
ATOM     21  O   UNL     1       7.739   5.600  15.181  0.00  0.00    +0.000 OA
ENDBRANCH  12  13
ENDBRANCH   3  12
TORSDOF 3
ENDMDL
MODEL 2
REMARK VINA RESULT:      -7.4      2.264      6.916
REMARK  Name = 
REMARK  4 active torsions:
REMARK  status: ('A' for Active; 'I' for Inactive)
REMARK    1  A    between atoms: C_1  and  C_2
REMARK    2  A    between atoms: C_5  and  C_6
REMARK    3  A    between atoms: N_8  and  C_9
REMARK    4  A    between atoms: C_9  and  C_10
REMARK                            x       y       z     vdW  Elec       q    Type
REMARK                         _______ _______ _______ _____ _____    ______ ____
ROOT
ATOM      1  C   UNL     1       6.277   5.733  16.182  0.00  0.00    +0.000 C 
ATOM      2  O   UNL     1       5.887   6.891  16.267  0.00  0.00    +0.000 OA
ATOM      3  N   UNL     1       6.521   4.934  17.286  0.00  0.00    +0.000 N 
ATOM      4  H   UNL     1       7.024   4.069  17.101  0.00  0.00    +0.000 HD
ENDROOT
BRANCH   1   9
ATOM      5  C   UNL     1       7.066   3.121  11.214  0.00  0.00    +0.000 C 
ATOM      6  C   UNL     1       6.856   3.853  12.501  0.00  0.00    +0.000 A 
ATOM      7  C   UNL     1       7.752   4.822  12.959  0.00  0.00    +0.000 A 
ATOM      8  N   UNL     1       7.608   5.476  14.142  0.00  0.00    +0.000 NA
ATOM      9  C   UNL     1       6.504   5.113  14.853  0.00  0.00    +0.000 A 
ATOM     10  C   UNL     1       5.599   4.165  14.399  0.00  0.00    +0.000 A 
ATOM     11  N   UNL     1       5.757   3.516  13.218  0.00  0.00    +0.000 NA
ENDBRANCH   1   9
BRANCH   3  12
ATOM     12  C   UNL     1       6.504   5.480  18.632  0.00  0.00    +0.000 C 
BRANCH  12  13
ATOM     13  C   UNL     1       5.298   5.084  19.504  0.00  0.00    +0.000 C 
ATOM     14  C   UNL     1       3.968   5.721  19.054  0.00  0.00    +0.000 C 
ATOM     15  C   UNL     1       3.107   4.518  18.985  0.00  0.00    +0.000 A 
ATOM     16  C   UNL     1       1.749   4.416  18.721  0.00  0.00    +0.000 A 
ATOM     17  C   UNL     1       1.175   3.140  18.686  0.00  0.00    +0.000 A 
ATOM     18  C   UNL     1       1.957   1.996  18.911  0.00  0.00    +0.000 A 
ATOM     19  C   UNL     1       3.321   2.117  19.176  0.00  0.00    +0.000 A 
ATOM     20  C   UNL     1       3.866   3.383  19.207  0.00  0.00    +0.000 A 
ATOM     21  O   UNL     1       5.186   3.633  19.447  0.00  0.00    +0.000 OA
ENDBRANCH  12  13
ENDBRANCH   3  12
TORSDOF 3
ENDMDL
MODEL 3
REMARK VINA RESULT:      -7.3      0.667      1.077
REMARK  Name = 
REMARK  4 active torsions:
REMARK  status: ('A' for Active; 'I' for Inactive)
REMARK    1  A    between atoms: C_1  and  C_2
REMARK    2  A    between atoms: C_5  and  C_6
REMARK    3  A    between atoms: N_8  and  C_9
REMARK    4  A    between atoms: C_9  and  C_10
REMARK                            x       y       z     vdW  Elec       q    Type
REMARK                         _______ _______ _______ _____ _____    ______ ____
ROOT
ATOM      1  C   UNL     1       4.090   5.424  18.236  0.00  0.00    +0.000 C 
ATOM      2  O   UNL     1       3.533   6.247  17.519  0.00  0.00    +0.000 OA
ATOM      3  N   UNL     1       5.454   5.191  18.202  0.00  0.00    +0.000 N 
ATOM      4  H   UNL     1       5.771   4.358  18.693  0.00  0.00    +0.000 HD
ENDROOT
BRANCH   1   9
ATOM      5  C   UNL     1       1.189   2.526  22.150  0.00  0.00    +0.000 C 
ATOM      6  C   UNL     1       1.925   3.272  21.082  0.00  0.00    +0.000 A 
ATOM      7  C   UNL     1       2.580   2.618  20.037  0.00  0.00    +0.000 A 
ATOM      8  N   UNL     1       3.289   3.266  19.075  0.00  0.00    +0.000 NA
ATOM      9  C   UNL     1       3.305   4.622  19.208  0.00  0.00    +0.000 A 
ATOM     10  C   UNL     1       2.642   5.282  20.232  0.00  0.00    +0.000 A 
ATOM     11  N   UNL     1       1.943   4.623  21.188  0.00  0.00    +0.000 NA
ENDBRANCH   1   9
BRANCH   3  12
ATOM     12  C   UNL     1       6.296   5.784  17.177  0.00  0.00    +0.000 C 
BRANCH  12  13
ATOM     13  C   UNL     1       6.983   4.795  16.218  0.00  0.00    +0.000 C 
ATOM     14  C   UNL     1       6.009   3.824  15.520  0.00  0.00    +0.000 C 
ATOM     15  C   UNL     1       6.417   4.007  14.109  0.00  0.00    +0.000 A 
ATOM     16  C   UNL     1       5.981   3.346  12.969  0.00  0.00    +0.000 A 
ATOM     17  C   UNL     1       6.512   3.734  11.734  0.00  0.00    +0.000 A 
ATOM     18  C   UNL     1       7.460   4.767  11.654  0.00  0.00    +0.000 A 
ATOM     19  C   UNL     1       7.888   5.420  12.810  0.00  0.00    +0.000 A 
ATOM     20  C   UNL     1       7.352   5.022  14.016  0.00  0.00    +0.000 A 
ATOM     21  O   UNL     1       7.682   5.587  15.214  0.00  0.00    +0.000 OA
ENDBRANCH  12  13
ENDBRANCH   3  12
TORSDOF 3
ENDMDL
MODEL 4
REMARK VINA RESULT:      -7.3      2.137      7.207
REMARK  Name = 
REMARK  4 active torsions:
REMARK  status: ('A' for Active; 'I' for Inactive)
REMARK    1  A    between atoms: C_1  and  C_2
REMARK    2  A    between atoms: C_5  and  C_6
REMARK    3  A    between atoms: N_8  and  C_9
REMARK    4  A    between atoms: C_9  and  C_10
REMARK                            x       y       z     vdW  Elec       q    Type
REMARK                         _______ _______ _______ _____ _____    ______ ____
ROOT
ATOM      1  C   UNL     1       6.428   5.850  16.005  0.00  0.00    +0.000 C 
ATOM      2  O   UNL     1       7.402   6.292  16.603  0.00  0.00    +0.000 OA
ATOM      3  N   UNL     1       5.131   5.982  16.468  0.00  0.00    +0.000 N 
ATOM      4  H   UNL     1       4.434   5.410  15.996  0.00  0.00    +0.000 HD
ENDROOT
BRANCH   1   9
ATOM      5  C   UNL     1       7.030   2.893  11.207  0.00  0.00    +0.000 C 
ATOM      6  C   UNL     1       6.866   3.714  12.446  0.00  0.00    +0.000 A 
ATOM      7  C   UNL     1       7.736   4.758  12.765  0.00  0.00    +0.000 A 
ATOM      8  N   UNL     1       7.635   5.496  13.903  0.00  0.00    +0.000 NA
ATOM      9  C   UNL     1       6.601   5.138  14.714  0.00  0.00    +0.000 A 
ATOM     10  C   UNL     1       5.720   4.114  14.397  0.00  0.00    +0.000 A 
ATOM     11  N   UNL     1       5.836   3.382  13.261  0.00  0.00    +0.000 NA
ENDBRANCH   1   9
BRANCH   3  12
ATOM     12  C   UNL     1       4.853   6.500  17.797  0.00  0.00    +0.000 C 
BRANCH  12  13
ATOM     13  C   UNL     1       4.481   5.453  18.862  0.00  0.00    +0.000 C 
ATOM     14  C   UNL     1       3.242   5.828  19.701  0.00  0.00    +0.000 C 
ATOM     15  C   UNL     1       2.445   4.588  19.568  0.00  0.00    +0.000 A 
ATOM     16  C   UNL     1       1.242   4.241  20.166  0.00  0.00    +0.000 A 
ATOM     17  C   UNL     1       0.675   3.002  19.845  0.00  0.00    +0.000 A 
ATOM     18  C   UNL     1       1.310   2.136  18.940  0.00  0.00    +0.000 A 
ATOM     19  C   UNL     1       2.520   2.500  18.349  0.00  0.00    +0.000 A 
ATOM     20  C   UNL     1       3.061   3.725  18.679  0.00  0.00    +0.000 A 
ATOM     21  O   UNL     1       4.232   4.199  18.164  0.00  0.00    +0.000 OA
ENDBRANCH  12  13
ENDBRANCH   3  12
TORSDOF 3
ENDMDL
MODEL 5
REMARK VINA RESULT:      -7.3      2.110      7.340
REMARK  Name = 
REMARK  4 active torsions:
REMARK  status: ('A' for Active; 'I' for Inactive)
REMARK    1  A    between atoms: C_1  and  C_2
REMARK    2  A    between atoms: C_5  and  C_6
REMARK    3  A    between atoms: N_8  and  C_9
REMARK    4  A    between atoms: C_9  and  C_10
REMARK                            x       y       z     vdW  Elec       q    Type
REMARK                         _______ _______ _______ _____ _____    ______ ____
ROOT
ATOM      1  C   UNL     1       5.902   6.069  16.485  0.00  0.00    +0.000 C 
ATOM      2  O   UNL     1       6.824   6.434  17.204  0.00  0.00    +0.000 OA
ATOM      3  N   UNL     1       4.571   6.298  16.786  0.00  0.00    +0.000 N 
ATOM      4  H   UNL     1       3.897   5.783  16.224  0.00  0.00    +0.000 HD
ENDROOT
BRANCH   1   9
ATOM      5  C   UNL     1       6.840   3.105  11.746  0.00  0.00    +0.000 C 
ATOM      6  C   UNL     1       6.599   3.929  12.971  0.00  0.00    +0.000 A 
ATOM      7  C   UNL     1       7.568   4.791  13.488  0.00  0.00    +0.000 A 
ATOM      8  N   UNL     1       7.394   5.522  14.620  0.00  0.00    +0.000 NA
ATOM      9  C   UNL     1       6.180   5.352  15.215  0.00  0.00    +0.000 A 
ATOM     10  C   UNL     1       5.204   4.512  14.700  0.00  0.00    +0.000 A 
ATOM     11  N   UNL     1       5.394   3.784  13.572  0.00  0.00    +0.000 NA
ENDBRANCH   1   9
BRANCH   3  12
ATOM     12  C   UNL     1       4.169   6.830  18.078  0.00  0.00    +0.000 C 
BRANCH  12  13
ATOM     13  C   UNL     1       2.787   6.384  18.588  0.00  0.00    +0.000 C 
ATOM     14  C   UNL     1       2.185   5.200  17.805  0.00  0.00    +0.000 C 
ATOM     15  C   UNL     1       1.838   4.292  18.921  0.00  0.00    +0.000 A 
ATOM     16  C   UNL     1       1.175   3.073  18.898  0.00  0.00    +0.000 A 
ATOM     17  C   UNL     1       0.997   2.392  20.107  0.00  0.00    +0.000 A 
ATOM     18  C   UNL     1       1.480   2.930  21.311  0.00  0.00    +0.000 A 
ATOM     19  C   UNL     1       2.144   4.156  21.317  0.00  0.00    +0.000 A 
ATOM     20  C   UNL     1       2.308   4.812  20.114  0.00  0.00    +0.000 A 
ATOM     21  O   UNL     1       2.945   6.011  19.987  0.00  0.00    +0.000 OA
ENDBRANCH  12  13
ENDBRANCH   3  12
TORSDOF 3
ENDMDL
MODEL 6
REMARK VINA RESULT:      -7.1      2.806      7.354
REMARK  Name = 
REMARK  4 active torsions:
REMARK  status: ('A' for Active; 'I' for Inactive)
REMARK    1  A    between atoms: C_1  and  C_2
REMARK    2  A    between atoms: C_5  and  C_6
REMARK    3  A    between atoms: N_8  and  C_9
REMARK    4  A    between atoms: C_9  and  C_10
REMARK                            x       y       z     vdW  Elec       q    Type
REMARK                         _______ _______ _______ _____ _____    ______ ____
ROOT
ATOM      1  C   UNL     1       4.894   4.062  17.274  0.00  0.00    +0.000 C 
ATOM      2  O   UNL     1       4.219   3.042  17.332  0.00  0.00    +0.000 OA
ATOM      3  N   UNL     1       4.930   5.005  18.287  0.00  0.00    +0.000 N 
ATOM      4  H   UNL     1       5.364   5.893  18.047  0.00  0.00    +0.000 HD
ENDROOT
BRANCH   1   9
ATOM      5  C   UNL     1       8.123   5.382  12.806  0.00  0.00    +0.000 C 
ATOM      6  C   UNL     1       7.283   4.986  13.979  0.00  0.00    +0.000 A 
ATOM      7  C   UNL     1       6.198   4.116  13.855  0.00  0.00    +0.000 A 
ATOM      8  N   UNL     1       5.393   3.769  14.894  0.00  0.00    +0.000 NA
ATOM      9  C   UNL     1       5.736   4.338  16.083  0.00  0.00    +0.000 A 
ATOM     10  C   UNL     1       6.823   5.189  16.221  0.00  0.00    +0.000 A 
ATOM     11  N   UNL     1       7.614   5.532  15.174  0.00  0.00    +0.000 NA
ENDBRANCH   1   9
BRANCH   3  12
ATOM     12  C   UNL     1       4.020   4.934  19.418  0.00  0.00    +0.000 C 
BRANCH  12  13
ATOM     13  C   UNL     1       2.649   5.605  19.220  0.00  0.00    +0.000 C 
ATOM     14  C   UNL     1       2.131   6.347  20.469  0.00  0.00    +0.000 C 
ATOM     15  C   UNL     1       1.801   7.664  19.879  0.00  0.00    +0.000 A 
ATOM     16  C   UNL     1       1.203   8.770  20.464  0.00  0.00    +0.000 A 
ATOM     17  C   UNL     1       1.027   9.918  19.684  0.00  0.00    +0.000 A 
ATOM     18  C   UNL     1       1.448   9.946  18.344  0.00  0.00    +0.000 A 
ATOM     19  C   UNL     1       2.047   8.825  17.772  0.00  0.00    +0.000 A 
ATOM     20  C   UNL     1       2.210   7.703  18.558  0.00  0.00    +0.000 A 
ATOM     21  O   UNL     1       2.788   6.548  18.118  0.00  0.00    +0.000 OA
ENDBRANCH  12  13
ENDBRANCH   3  12
TORSDOF 3
ENDMDL
MODEL 7
REMARK VINA RESULT:      -7.1      3.100      6.802
REMARK  Name = 
REMARK  4 active torsions:
REMARK  status: ('A' for Active; 'I' for Inactive)
REMARK    1  A    between atoms: C_1  and  C_2
REMARK    2  A    between atoms: C_5  and  C_6
REMARK    3  A    between atoms: N_8  and  C_9
REMARK    4  A    between atoms: C_9  and  C_10
REMARK                            x       y       z     vdW  Elec       q    Type
REMARK                         _______ _______ _______ _____ _____    ______ ____
ROOT
ATOM      1  C   UNL     1       6.153   4.972  17.769  0.00  0.00    +0.000 C 
ATOM      2  O   UNL     1       6.244   4.126  18.650  0.00  0.00    +0.000 OA
ATOM      3  N   UNL     1       5.370   4.808  16.640  0.00  0.00    +0.000 N 
ATOM      4  H   UNL     1       5.526   5.482  15.893  0.00  0.00    +0.000 HD
ENDROOT
BRANCH   1   9
ATOM      5  C   UNL     1       8.981   9.834  18.471  0.00  0.00    +0.000 C 
ATOM      6  C   UNL     1       8.251   8.550  18.239  0.00  0.00    +0.000 A 
ATOM      7  C   UNL     1       7.240   8.433  17.283  0.00  0.00    +0.000 A 
ATOM      8  N   UNL     1       6.532   7.291  17.076  0.00  0.00    +0.000 NA
ATOM      9  C   UNL     1       6.895   6.253  17.880  0.00  0.00    +0.000 A 
ATOM     10  C   UNL     1       7.910   6.353  18.820  0.00  0.00    +0.000 A 
ATOM     11  N   UNL     1       8.605   7.501  19.020  0.00  0.00    +0.000 NA
ENDBRANCH   1   9
BRANCH   3  12
ATOM     12  C   UNL     1       4.741   3.534  16.335  0.00  0.00    +0.000 C 
BRANCH  12  13
ATOM     13  C   UNL     1       3.298   3.359  16.842  0.00  0.00    +0.000 C 
ATOM     14  C   UNL     1       3.115   2.170  17.806  0.00  0.00    +0.000 C 
ATOM     15  C   UNL     1       2.420   2.841  18.928  0.00  0.00    +0.000 A 
ATOM     16  C   UNL     1       1.891   2.301  20.091  0.00  0.00    +0.000 A 
ATOM     17  C   UNL     1       1.302   3.170  21.016  0.00  0.00    +0.000 A 
ATOM     18  C   UNL     1       1.251   4.552  20.772  0.00  0.00    +0.000 A 
ATOM     19  C   UNL     1       1.787   5.078  19.597  0.00  0.00    +0.000 A 
ATOM     20  C   UNL     1       2.362   4.204  18.697  0.00  0.00    +0.000 A 
ATOM     21  O   UNL     1       2.927   4.595  17.519  0.00  0.00    +0.000 OA
ENDBRANCH  12  13
ENDBRANCH   3  12
TORSDOF 3
ENDMDL
MODEL 8
REMARK VINA RESULT:      -7.0      3.109      6.865
REMARK  Name = 
REMARK  4 active torsions:
REMARK  status: ('A' for Active; 'I' for Inactive)
REMARK    1  A    between atoms: C_1  and  C_2
REMARK    2  A    between atoms: C_5  and  C_6
REMARK    3  A    between atoms: N_8  and  C_9
REMARK    4  A    between atoms: C_9  and  C_10
REMARK                            x       y       z     vdW  Elec       q    Type
REMARK                         _______ _______ _______ _____ _____    ______ ____
ROOT
ATOM      1  C   UNL     1       6.205   4.980  17.882  0.00  0.00    +0.000 C 
ATOM      2  O   UNL     1       6.323   4.119  18.745  0.00  0.00    +0.000 OA
ATOM      3  N   UNL     1       5.423   4.817  16.751  0.00  0.00    +0.000 N 
ATOM      4  H   UNL     1       5.558   5.510  16.019  0.00  0.00    +0.000 HD
ENDROOT
BRANCH   1   9
ATOM      5  C   UNL     1       8.893   9.964  18.121  0.00  0.00    +0.000 C 
ATOM      6  C   UNL     1       8.171   8.655  18.106  0.00  0.00    +0.000 A 
ATOM      7  C   UNL     1       8.532   7.598  18.944  0.00  0.00    +0.000 A 
ATOM      8  N   UNL     1       7.921   6.384  18.925  0.00  0.00    +0.000 NA
ATOM      9  C   UNL     1       6.910   6.280  18.018  0.00  0.00    +0.000 A 
ATOM     10  C   UNL     1       6.532   7.329  17.193  0.00  0.00    +0.000 A 
ATOM     11  N   UNL     1       7.154   8.534  17.218  0.00  0.00    +0.000 NA
ENDBRANCH   1   9
BRANCH   3  12
ATOM     12  C   UNL     1       4.831   3.532  16.422  0.00  0.00    +0.000 C 
BRANCH  12  13
ATOM     13  C   UNL     1       3.380   3.321  16.892  0.00  0.00    +0.000 C 
ATOM     14  C   UNL     1       3.204   2.133  17.859  0.00  0.00    +0.000 C 
ATOM     15  C   UNL     1       2.461   2.792  18.957  0.00  0.00    +0.000 A 
ATOM     16  C   UNL     1       1.916   2.244  20.110  0.00  0.00    +0.000 A 
ATOM     17  C   UNL     1       1.279   3.102  21.014  0.00  0.00    +0.000 A 
ATOM     18  C   UNL     1       1.198   4.481  20.758  0.00  0.00    +0.000 A 
ATOM     19  C   UNL     1       1.751   5.014  19.594  0.00  0.00    +0.000 A 
ATOM     20  C   UNL     1       2.373   4.151  18.717  0.00  0.00    +0.000 A 
ATOM     21  O   UNL     1       2.958   4.550  17.551  0.00  0.00    +0.000 OA
ENDBRANCH  12  13
ENDBRANCH   3  12
TORSDOF 3
ENDMDL
MODEL 9
REMARK VINA RESULT:      -7.0      2.106      7.155
REMARK  Name = 
REMARK  4 active torsions:
REMARK  status: ('A' for Active; 'I' for Inactive)
REMARK    1  A    between atoms: C_1  and  C_2
REMARK    2  A    between atoms: C_5  and  C_6
REMARK    3  A    between atoms: N_8  and  C_9
REMARK    4  A    between atoms: C_9  and  C_10
REMARK                            x       y       z     vdW  Elec       q    Type
REMARK                         _______ _______ _______ _____ _____    ______ ____
ROOT
ATOM      1  C   UNL     1       5.274   5.787  17.226  0.00  0.00    +0.000 C 
ATOM      2  O   UNL     1       5.758   5.403  18.284  0.00  0.00    +0.000 OA
ATOM      3  N   UNL     1       4.277   6.745  17.153  0.00  0.00    +0.000 N 
ATOM      4  H   UNL     1       3.821   6.838  16.249  0.00  0.00    +0.000 HD
ENDROOT
BRANCH   1   9
ATOM      5  C   UNL     1       7.215   3.920  12.239  0.00  0.00    +0.000 C 
ATOM      6  C   UNL     1       6.700   4.366  13.570  0.00  0.00    +0.000 A 
ATOM      7  C   UNL     1       5.446   3.979  14.048  0.00  0.00    +0.000 A 
ATOM      8  N   UNL     1       4.935   4.399  15.236  0.00  0.00    +0.000 NA
ATOM      9  C   UNL     1       5.755   5.232  15.936  0.00  0.00    +0.000 A 
ATOM     10  C   UNL     1       7.009   5.608  15.478  0.00  0.00    +0.000 A 
ATOM     11  N   UNL     1       7.505   5.186  14.288  0.00  0.00    +0.000 NA
ENDBRANCH   1   9
BRANCH   3  12
ATOM     12  C   UNL     1       3.607   7.229  18.348  0.00  0.00    +0.000 C 
BRANCH  12  13
ATOM     13  C   UNL     1       2.313   6.492  18.738  0.00  0.00    +0.000 C 
ATOM     14  C   UNL     1       1.993   5.278  17.843  0.00  0.00    +0.000 C 
ATOM     15  C   UNL     1       1.771   4.238  18.874  0.00  0.00    +0.000 A 
ATOM     16  C   UNL     1       1.359   2.922  18.728  0.00  0.00    +0.000 A 
ATOM     17  C   UNL     1       1.255   2.129  19.877  0.00  0.00    +0.000 A 
ATOM     18  C   UNL     1       1.563   2.657  21.142  0.00  0.00    +0.000 A 
ATOM     19  C   UNL     1       1.975   3.983  21.270  0.00  0.00    +0.000 A 
ATOM     20  C   UNL     1       2.070   4.746  20.125  0.00  0.00    +0.000 A 
ATOM     21  O   UNL     1       2.469   6.051  20.118  0.00  0.00    +0.000 OA
ENDBRANCH  12  13
ENDBRANCH   3  12
TORSDOF 3
ENDMDL
