MODEL 1
REMARK VINA RESULT:      -8.2      0.000      0.000
REMARK  Name = 
REMARK  10 active torsions:
REMARK  status: ('A' for Active; 'I' for Inactive)
REMARK    1  A    between atoms: C_2  and  O_3
REMARK    2  A    between atoms: C_2  and  C_4
REMARK    3  A    between atoms: C_4  and  C_5
REMARK    4  A    between atoms: C_5  and  C_6
REMARK    5  A    between atoms: C_6  and  N_7
REMARK    6  A    between atoms: C_8  and  C_10
REMARK    7  A    between atoms: C_15  and  N_16
REMARK    8  A    between atoms: C_17  and  C_19
REMARK    9  A    between atoms: C_21  and  N_22
REMARK   10  A    between atoms: C_26  and  N_27
REMARK                            x       y       z     vdW  Elec       q    Type
REMARK                         _______ _______ _______ _____ _____    ______ ____
ROOT
ATOM      1  C   UNL     1       0.039   9.977  20.316  0.00  0.00    +0.000 A 
ATOM      2  C   UNL     1      -0.755  10.707  21.223  0.00  0.00    +0.000 A 
ATOM      3  C   UNL     1      -0.639  10.513  22.597  0.00  0.00    +0.000 A 
ATOM      4  C   UNL     1       0.285   9.598  23.077  0.00  0.00    +0.000 A 
ATOM      5  C   UNL     1       1.077   8.872  22.184  0.00  0.00    +0.000 A 
ATOM      6  C   UNL     1       0.955   9.013  20.790  0.00  0.00    +0.000 A 
ENDROOT
BRANCH   1   8
ATOM      7  N   UNL     1      -1.427  10.875  18.569  0.00  0.00    +0.000 N 
ATOM      8  C   UNL     1      -0.245  10.227  18.881  0.00  0.00    +0.000 C 
ATOM      9  O   UNL     1       0.535   9.815  18.029  0.00  0.00    +0.000 OA
ATOM     10  H   UNL     1      -2.172  10.888  19.258  0.00  0.00    +0.000 HD
BRANCH   7  11
ATOM     11  C   UNL     1      -1.796  11.075  17.177  0.00  0.00    +0.000 C 
BRANCH  11  12
ATOM     12  C   UNL     1      -2.798  10.039  16.647  0.00  0.00    +0.000 C 
BRANCH  12  13
ATOM     13  C   UNL     1      -3.826  10.604  15.675  0.00  0.00    +0.000 C 
BRANCH  13  15
ATOM     14  O   UNL     1      -2.501   9.918  13.793  0.00  0.00    +0.000 OA
ATOM     15  C   UNL     1      -3.610  10.070  14.286  0.00  0.00    +0.000 C 
BRANCH  15  16
ATOM     16  O   UNL     1      -4.747   9.719  13.655  0.00  0.00    +0.000 OA
ATOM     17  H   UNL     1      -5.513  10.296  13.845  0.00  0.00    +0.000 HD
ENDBRANCH  15  16
ENDBRANCH  13  15
ENDBRANCH  12  13
ENDBRANCH  11  12
ENDBRANCH   7  11
ENDBRANCH   1   8
BRANCH   6  18
ATOM     18  N   UNL     1       1.727   8.206  19.899  0.00  0.00    +0.000 N 
ATOM     19  C   UNL     1       1.916   6.838  20.048  0.00  0.00    +0.000 C 
ATOM     20  O   UNL     1       1.294   6.113  20.819  0.00  0.00    +0.000 OA
ATOM     21  H   UNL     1       2.071   8.666  19.065  0.00  0.00    +0.000 HD
BRANCH  19  22
ATOM     22  C   UNL     1       2.963   6.162  19.233  0.00  0.00    +0.000 A 
ATOM     23  C   UNL     1       3.122   4.781  19.454  0.00  0.00    +0.000 A 
ATOM     24  C   UNL     1       4.047   4.037  18.714  0.00  0.00    +0.000 A 
ATOM     25  C   UNL     1       4.821   4.658  17.728  0.00  0.00    +0.000 A 
ATOM     26  C   UNL     1       4.662   6.037  17.514  0.00  0.00    +0.000 A 
ATOM     27  C   UNL     1       3.743   6.799  18.265  0.00  0.00    +0.000 A 
BRANCH  24  28
ATOM     28  N   UNL     1       4.206   2.600  18.980  0.00  0.00    +0.000 N 
ATOM     29  O   UNL     1       3.679   1.806  18.189  0.00  0.00    +0.000 OA
ATOM     30  O   UNL     1       4.847   2.275  19.985  0.00  0.00    +0.000 OA
ENDBRANCH  24  28
BRANCH  26  31
ATOM     31  N   UNL     1       5.467   6.697  16.478  0.00  0.00    +0.000 N 
ATOM     32  O   UNL     1       5.027   6.699  15.321  0.00  0.00    +0.000 OA
ATOM     33  O   UNL     1       6.539   7.212  16.830  0.00  0.00    +0.000 OA
ENDBRANCH  26  31
ENDBRANCH  19  22
ENDBRANCH   6  18
TORSDOF 10
ENDMDL
MODEL 2
REMARK VINA RESULT:      -8.0      1.441      1.665
REMARK  Name = 
REMARK  10 active torsions:
REMARK  status: ('A' for Active; 'I' for Inactive)
REMARK    1  A    between atoms: C_2  and  O_3
REMARK    2  A    between atoms: C_2  and  C_4
REMARK    3  A    between atoms: C_4  and  C_5
REMARK    4  A    between atoms: C_5  and  C_6
REMARK    5  A    between atoms: C_6  and  N_7
REMARK    6  A    between atoms: C_8  and  C_10
REMARK    7  A    between atoms: C_15  and  N_16
REMARK    8  A    between atoms: C_17  and  C_19
REMARK    9  A    between atoms: C_21  and  N_22
REMARK   10  A    between atoms: C_26  and  N_27
REMARK                            x       y       z     vdW  Elec       q    Type
REMARK                         _______ _______ _______ _____ _____    ______ ____
ROOT
ATOM      1  C   UNL     1       0.114   9.891  20.242  0.00  0.00    +0.000 A 
ATOM      2  C   UNL     1      -0.690  10.634  21.130  0.00  0.00    +0.000 A 
ATOM      3  C   UNL     1      -0.563  10.488  22.509  0.00  0.00    +0.000 A 
ATOM      4  C   UNL     1       0.382   9.609  23.013  0.00  0.00    +0.000 A 
ATOM      5  C   UNL     1       1.184   8.870  22.139  0.00  0.00    +0.000 A 
ATOM      6  C   UNL     1       1.051   8.962  20.742  0.00  0.00    +0.000 A 
ENDROOT
BRANCH   1   8
ATOM      7  N   UNL     1      -1.470  10.464  18.462  0.00  0.00    +0.000 N 
ATOM      8  C   UNL     1      -0.184  10.088  18.802  0.00  0.00    +0.000 C 
ATOM      9  O   UNL     1       0.689   9.866  17.968  0.00  0.00    +0.000 OA
ATOM     10  H   UNL     1      -2.217  10.305  19.131  0.00  0.00    +0.000 HD
BRANCH   7  11
ATOM     11  C   UNL     1      -1.840  10.593  17.061  0.00  0.00    +0.000 C 
BRANCH  11  12
ATOM     12  C   UNL     1      -3.239  10.049  16.738  0.00  0.00    +0.000 C 
BRANCH  12  13
ATOM     13  C   UNL     1      -4.295  11.127  16.527  0.00  0.00    +0.000 C 
BRANCH  13  15
ATOM     14  O   UNL     1      -6.057  11.026  18.157  0.00  0.00    +0.000 OA
ATOM     15  C   UNL     1      -4.973  11.484  17.820  0.00  0.00    +0.000 C 
BRANCH  15  16
ATOM     16  O   UNL     1      -4.251  12.309  18.603  0.00  0.00    +0.000 OA
ATOM     17  H   UNL     1      -4.416  13.260  18.454  0.00  0.00    +0.000 HD
ENDBRANCH  15  16
ENDBRANCH  13  15
ENDBRANCH  12  13
ENDBRANCH  11  12
ENDBRANCH   7  11
ENDBRANCH   1   8
BRANCH   6  18
ATOM     18  N   UNL     1       1.836   8.142  19.873  0.00  0.00    +0.000 N 
ATOM     19  C   UNL     1       1.986   6.769  20.019  0.00  0.00    +0.000 C 
ATOM     20  O   UNL     1       1.320   6.055  20.764  0.00  0.00    +0.000 OA
ATOM     21  H   UNL     1       2.219   8.598  19.055  0.00  0.00    +0.000 HD
BRANCH  19  22
ATOM     22  C   UNL     1       3.045   6.073  19.237  0.00  0.00    +0.000 A 
ATOM     23  C   UNL     1       3.206   4.699  19.502  0.00  0.00    +0.000 A 
ATOM     24  C   UNL     1       4.143   3.937  18.795  0.00  0.00    +0.000 A 
ATOM     25  C   UNL     1       4.926   4.532  17.800  0.00  0.00    +0.000 A 
ATOM     26  C   UNL     1       4.765   5.904  17.543  0.00  0.00    +0.000 A 
ATOM     27  C   UNL     1       3.834   6.683  18.260  0.00  0.00    +0.000 A 
BRANCH  24  28
ATOM     28  N   UNL     1       4.303   2.510  19.106  0.00  0.00    +0.000 N 
ATOM     29  O   UNL     1       3.738   1.692  18.367  0.00  0.00    +0.000 OA
ATOM     30  O   UNL     1       4.985   2.216  20.094  0.00  0.00    +0.000 OA
ENDBRANCH  24  28
BRANCH  26  31
ATOM     31  N   UNL     1       5.579   6.535  16.497  0.00  0.00    +0.000 N 
ATOM     32  O   UNL     1       5.146   6.512  15.337  0.00  0.00    +0.000 OA
ATOM     33  O   UNL     1       6.652   7.053  16.843  0.00  0.00    +0.000 OA
ENDBRANCH  26  31
ENDBRANCH  19  22
ENDBRANCH   6  18
TORSDOF 10
ENDMDL
MODEL 3
REMARK VINA RESULT:      -8.0      3.389      7.968
REMARK  Name = 
REMARK  10 active torsions:
REMARK  status: ('A' for Active; 'I' for Inactive)
REMARK    1  A    between atoms: C_2  and  O_3
REMARK    2  A    between atoms: C_2  and  C_4
REMARK    3  A    between atoms: C_4  and  C_5
REMARK    4  A    between atoms: C_5  and  C_6
REMARK    5  A    between atoms: C_6  and  N_7
REMARK    6  A    between atoms: C_8  and  C_10
REMARK    7  A    between atoms: C_15  and  N_16
REMARK    8  A    between atoms: C_17  and  C_19
REMARK    9  A    between atoms: C_21  and  N_22
REMARK   10  A    between atoms: C_26  and  N_27
REMARK                            x       y       z     vdW  Elec       q    Type
REMARK                         _______ _______ _______ _____ _____    ______ ____
ROOT
ATOM      1  C   UNL     1       5.240   4.839  17.456  0.00  0.00    +0.000 A 
ATOM      2  C   UNL     1       5.834   3.898  16.590  0.00  0.00    +0.000 A 
ATOM      3  C   UNL     1       6.035   4.188  15.243  0.00  0.00    +0.000 A 
ATOM      4  C   UNL     1       5.656   5.427  14.752  0.00  0.00    +0.000 A 
ATOM      5  C   UNL     1       5.068   6.366  15.605  0.00  0.00    +0.000 A 
ATOM      6  C   UNL     1       4.813   6.089  16.960  0.00  0.00    +0.000 A 
ENDROOT
BRANCH   1   8
ATOM      7  N   UNL     1       4.601   3.059  19.016  0.00  0.00    +0.000 N 
ATOM      8  C   UNL     1       5.015   4.368  18.845  0.00  0.00    +0.000 C 
ATOM      9  O   UNL     1       5.152   5.152  19.778  0.00  0.00    +0.000 OA
ATOM     10  H   UNL     1       4.186   2.572  18.227  0.00  0.00    +0.000 HD
BRANCH   7  11
ATOM     11  C   UNL     1       4.289   2.568  20.348  0.00  0.00    +0.000 C 
BRANCH  11  12
ATOM     12  C   UNL     1       2.914   3.015  20.866  0.00  0.00    +0.000 C 
BRANCH  12  13
ATOM     13  C   UNL     1       1.756   2.143  20.399  0.00  0.00    +0.000 C 
BRANCH  13  15
ATOM     14  O   UNL     1       0.255   2.319  18.532  0.00  0.00    +0.000 OA
ATOM     15  C   UNL     1       0.882   2.879  19.421  0.00  0.00    +0.000 C 
BRANCH  15  16
ATOM     16  O   UNL     1       0.806   4.204  19.650  0.00  0.00    +0.000 OA
ATOM     17  H   UNL     1       1.595   4.710  19.374  0.00  0.00    +0.000 HD
ENDBRANCH  15  16
ENDBRANCH  13  15
ENDBRANCH  12  13
ENDBRANCH  11  12
ENDBRANCH   7  11
ENDBRANCH   1   8
BRANCH   6  18
ATOM     18  N   UNL     1       4.145   7.041  17.791  0.00  0.00    +0.000 N 
ATOM     19  C   UNL     1       2.789   7.004  18.086  0.00  0.00    +0.000 C 
ATOM     20  O   UNL     1       2.034   6.063  17.856  0.00  0.00    +0.000 OA
ATOM     21  H   UNL     1       4.735   7.718  18.257  0.00  0.00    +0.000 HD
BRANCH  19  22
ATOM     22  C   UNL     1       2.157   8.195  18.719  0.00  0.00    +0.000 A 
ATOM     23  C   UNL     1       1.558   7.983  19.975  0.00  0.00    +0.000 A 
ATOM     24  C   UNL     1       0.972   9.040  20.679  0.00  0.00    +0.000 A 
ATOM     25  C   UNL     1       0.986  10.334  20.146  0.00  0.00    +0.000 A 
ATOM     26  C   UNL     1       1.580  10.540  18.890  0.00  0.00    +0.000 A 
ATOM     27  C   UNL     1       2.160   9.478  18.166  0.00  0.00    +0.000 A 
BRANCH  24  28
ATOM     28  N   UNL     1       0.337   8.785  21.980  0.00  0.00    +0.000 N 
ATOM     29  O   UNL     1      -0.703   8.113  21.992  0.00  0.00    +0.000 OA
ATOM     30  O   UNL     1       0.877   9.268  22.981  0.00  0.00    +0.000 OA
ENDBRANCH  24  28
BRANCH  26  31
ATOM     31  N   UNL     1       1.603  11.894  18.324  0.00  0.00    +0.000 N 
ATOM     32  O   UNL     1       2.657  12.284  17.804  0.00  0.00    +0.000 OA
ATOM     33  O   UNL     1       0.562  12.564  18.403  0.00  0.00    +0.000 OA
ENDBRANCH  26  31
ENDBRANCH  19  22
ENDBRANCH   6  18
TORSDOF 10
ENDMDL
MODEL 4
REMARK VINA RESULT:      -7.9      3.427      8.496
REMARK  Name = 
REMARK  10 active torsions:
REMARK  status: ('A' for Active; 'I' for Inactive)
REMARK    1  A    between atoms: C_2  and  O_3
REMARK    2  A    between atoms: C_2  and  C_4
REMARK    3  A    between atoms: C_4  and  C_5
REMARK    4  A    between atoms: C_5  and  C_6
REMARK    5  A    between atoms: C_6  and  N_7
REMARK    6  A    between atoms: C_8  and  C_10
REMARK    7  A    between atoms: C_15  and  N_16
REMARK    8  A    between atoms: C_17  and  C_19
REMARK    9  A    between atoms: C_21  and  N_22
REMARK   10  A    between atoms: C_26  and  N_27
REMARK                            x       y       z     vdW  Elec       q    Type
REMARK                         _______ _______ _______ _____ _____    ______ ____
ROOT
ATOM      1  C   UNL     1       4.358   4.669  17.163  0.00  0.00    +0.000 A 
ATOM      2  C   UNL     1       4.948   3.875  16.159  0.00  0.00    +0.000 A 
ATOM      3  C   UNL     1       5.632   4.455  15.093  0.00  0.00    +0.000 A 
ATOM      4  C   UNL     1       5.746   5.835  15.032  0.00  0.00    +0.000 A 
ATOM      5  C   UNL     1       5.166   6.629  16.025  0.00  0.00    +0.000 A 
ATOM      6  C   UNL     1       4.433   6.076  17.091  0.00  0.00    +0.000 A 
ENDROOT
BRANCH   1   8
ATOM      7  N   UNL     1       2.250   3.703  17.956  0.00  0.00    +0.000 N 
ATOM      8  C   UNL     1       3.595   3.922  18.193  0.00  0.00    +0.000 C 
ATOM      9  O   UNL     1       4.155   3.573  19.227  0.00  0.00    +0.000 OA
ATOM     10  H   UNL     1       1.773   4.287  17.275  0.00  0.00    +0.000 HD
BRANCH   7  11
ATOM     11  C   UNL     1       1.435   3.048  18.967  0.00  0.00    +0.000 C 
BRANCH  11  12
ATOM     12  C   UNL     1       0.866   4.008  20.021  0.00  0.00    +0.000 C 
BRANCH  12  13
ATOM     13  C   UNL     1       1.741   4.169  21.258  0.00  0.00    +0.000 C 
BRANCH  13  15
ATOM     14  O   UNL     1       1.169   2.194  22.500  0.00  0.00    +0.000 OA
ATOM     15  C   UNL     1       2.019   2.839  21.902  0.00  0.00    +0.000 C 
BRANCH  15  16
ATOM     16  O   UNL     1       3.277   2.394  21.710  0.00  0.00    +0.000 OA
ATOM     17  H   UNL     1       3.572   1.720  22.353  0.00  0.00    +0.000 HD
ENDBRANCH  15  16
ENDBRANCH  13  15
ENDBRANCH  12  13
ENDBRANCH  11  12
ENDBRANCH   7  11
ENDBRANCH   1   8
BRANCH   6  18
ATOM     18  N   UNL     1       3.789   6.914  18.053  0.00  0.00    +0.000 N 
ATOM     19  C   UNL     1       2.427   7.183  18.069  0.00  0.00    +0.000 C 
ATOM     20  O   UNL     1       1.576   6.591  17.410  0.00  0.00    +0.000 OA
ATOM     21  H   UNL     1       4.368   7.246  18.814  0.00  0.00    +0.000 HD
BRANCH  19  22
ATOM     22  C   UNL     1       1.920   8.286  18.932  0.00  0.00    +0.000 A 
ATOM     23  C   UNL     1       1.941   9.574  18.365  0.00  0.00    +0.000 A 
ATOM     24  C   UNL     1       1.449  10.677  19.070  0.00  0.00    +0.000 A 
ATOM     25  C   UNL     1       0.914  10.511  20.352  0.00  0.00    +0.000 A 
ATOM     26  C   UNL     1       0.900   9.224  20.916  0.00  0.00    +0.000 A 
ATOM     27  C   UNL     1       1.406   8.108  20.219  0.00  0.00    +0.000 A 
BRANCH  24  28
ATOM     28  N   UNL     1       1.502  12.014  18.461  0.00  0.00    +0.000 N 
ATOM     29  O   UNL     1       2.581  12.385  17.979  0.00  0.00    +0.000 OA
ATOM     30  O   UNL     1       0.467  12.688  18.477  0.00  0.00    +0.000 OA
ENDBRANCH  24  28
BRANCH  26  31
ATOM     31  N   UNL     1       0.336   9.039  22.259  0.00  0.00    +0.000 N 
ATOM     32  O   UNL     1      -0.650   8.298  22.373  0.00  0.00    +0.000 OA
ATOM     33  O   UNL     1       0.885   9.638  23.196  0.00  0.00    +0.000 OA
ENDBRANCH  26  31
ENDBRANCH  19  22
ENDBRANCH   6  18
TORSDOF 10
ENDMDL
MODEL 5
REMARK VINA RESULT:      -7.9      3.384      8.157
REMARK  Name = 
REMARK  10 active torsions:
REMARK  status: ('A' for Active; 'I' for Inactive)
REMARK    1  A    between atoms: C_2  and  O_3
REMARK    2  A    between atoms: C_2  and  C_4
REMARK    3  A    between atoms: C_4  and  C_5
REMARK    4  A    between atoms: C_5  and  C_6
REMARK    5  A    between atoms: C_6  and  N_7
REMARK    6  A    between atoms: C_8  and  C_10
REMARK    7  A    between atoms: C_15  and  N_16
REMARK    8  A    between atoms: C_17  and  C_19
REMARK    9  A    between atoms: C_21  and  N_22
REMARK   10  A    between atoms: C_26  and  N_27
REMARK                            x       y       z     vdW  Elec       q    Type
REMARK                         _______ _______ _______ _____ _____    ______ ____
ROOT
ATOM      1  C   UNL     1       3.498   4.032  17.941  0.00  0.00    +0.000 A 
ATOM      2  C   UNL     1       3.649   2.644  17.741  0.00  0.00    +0.000 A 
ATOM      3  C   UNL     1       2.659   1.749  18.136  0.00  0.00    +0.000 A 
ATOM      4  C   UNL     1       1.500   2.235  18.721  0.00  0.00    +0.000 A 
ATOM      5  C   UNL     1       1.342   3.609  18.921  0.00  0.00    +0.000 A 
ATOM      6  C   UNL     1       2.341   4.536  18.572  0.00  0.00    +0.000 A 
ENDROOT
BRANCH   1   8
ATOM      7  N   UNL     1       5.149   4.705  16.259  0.00  0.00    +0.000 N 
ATOM      8  C   UNL     1       4.665   4.859  17.545  0.00  0.00    +0.000 C 
ATOM      9  O   UNL     1       5.187   5.602  18.370  0.00  0.00    +0.000 OA
ATOM     10  H   UNL     1       4.910   3.862  15.746  0.00  0.00    +0.000 HD
BRANCH   7  11
ATOM     11  C   UNL     1       6.338   5.430  15.842  0.00  0.00    +0.000 C 
BRANCH  11  12
ATOM     12  C   UNL     1       6.924   4.943  14.509  0.00  0.00    +0.000 C 
BRANCH  12  13
ATOM     13  C   UNL     1       6.267   3.683  13.960  0.00  0.00    +0.000 C 
BRANCH  13  15
ATOM     14  O   UNL     1       7.242   4.113  11.808  0.00  0.00    +0.000 OA
ATOM     15  C   UNL     1       6.311   3.658  12.458  0.00  0.00    +0.000 C 
BRANCH  15  16
ATOM     16  O   UNL     1       5.258   3.036  11.893  0.00  0.00    +0.000 OA
ATOM     17  H   UNL     1       5.433   2.118  11.607  0.00  0.00    +0.000 HD
ENDBRANCH  15  16
ENDBRANCH  13  15
ENDBRANCH  12  13
ENDBRANCH  11  12
ENDBRANCH   7  11
ENDBRANCH   1   8
BRANCH   6  18
ATOM     18  N   UNL     1       2.183   5.928  18.854  0.00  0.00    +0.000 N 
ATOM     19  C   UNL     1       1.952   6.448  20.120  0.00  0.00    +0.000 C 
ATOM     20  O   UNL     1       2.057   5.828  21.175  0.00  0.00    +0.000 OA
ATOM     21  H   UNL     1       2.347   6.561  18.081  0.00  0.00    +0.000 HD
BRANCH  19  22
ATOM     22  C   UNL     1       1.522   7.868  20.249  0.00  0.00    +0.000 A 
ATOM     23  C   UNL     1       0.944   8.229  21.481  0.00  0.00    +0.000 A 
ATOM     24  C   UNL     1       0.542   9.547  21.727  0.00  0.00    +0.000 A 
ATOM     25  C   UNL     1       0.724  10.531  20.750  0.00  0.00    +0.000 A 
ATOM     26  C   UNL     1       1.296  10.165  19.520  0.00  0.00    +0.000 A 
ATOM     27  C   UNL     1       1.691   8.837  19.257  0.00  0.00    +0.000 A 
BRANCH  24  28
ATOM     28  N   UNL     1      -0.076   9.891  23.015  0.00  0.00    +0.000 N 
ATOM     29  O   UNL     1      -1.132  10.537  22.993  0.00  0.00    +0.000 OA
ATOM     30  O   UNL     1       0.505   9.522  24.041  0.00  0.00    +0.000 OA
ENDBRANCH  24  28
BRANCH  26  31
ATOM     31  N   UNL     1       1.495  11.192  18.490  0.00  0.00    +0.000 N 
ATOM     32  O   UNL     1       2.272  10.934  17.561  0.00  0.00    +0.000 OA
ATOM     33  O   UNL     1       0.869  12.256  18.616  0.00  0.00    +0.000 OA
ENDBRANCH  26  31
ENDBRANCH  19  22
ENDBRANCH   6  18
TORSDOF 10
ENDMDL
MODEL 6
REMARK VINA RESULT:      -7.8      2.801      8.142
REMARK  Name = 
REMARK  10 active torsions:
REMARK  status: ('A' for Active; 'I' for Inactive)
REMARK    1  A    between atoms: C_2  and  O_3
REMARK    2  A    between atoms: C_2  and  C_4
REMARK    3  A    between atoms: C_4  and  C_5
REMARK    4  A    between atoms: C_5  and  C_6
REMARK    5  A    between atoms: C_6  and  N_7
REMARK    6  A    between atoms: C_8  and  C_10
REMARK    7  A    between atoms: C_15  and  N_16
REMARK    8  A    between atoms: C_17  and  C_19
REMARK    9  A    between atoms: C_21  and  N_22
REMARK   10  A    between atoms: C_26  and  N_27
REMARK                            x       y       z     vdW  Elec       q    Type
REMARK                         _______ _______ _______ _____ _____    ______ ____
ROOT
ATOM      1  C   UNL     1       4.036   5.138  17.585  0.00  0.00    +0.000 A 
ATOM      2  C   UNL     1       5.169   4.547  16.989  0.00  0.00    +0.000 A 
ATOM      3  C   UNL     1       6.307   5.298  16.705  0.00  0.00    +0.000 A 
ATOM      4  C   UNL     1       6.327   6.645  17.029  0.00  0.00    +0.000 A 
ATOM      5  C   UNL     1       5.209   7.239  17.621  0.00  0.00    +0.000 A 
ATOM      6  C   UNL     1       4.030   6.518  17.882  0.00  0.00    +0.000 A 
ENDROOT
BRANCH   1   8
ATOM      7  N   UNL     1       3.113   2.958  18.220  0.00  0.00    +0.000 N 
ATOM      8  C   UNL     1       2.869   4.239  17.758  0.00  0.00    +0.000 C 
ATOM      9  O   UNL     1       1.751   4.632  17.444  0.00  0.00    +0.000 OA
ATOM     10  H   UNL     1       4.054   2.583  18.141  0.00  0.00    +0.000 HD
BRANCH   7  11
ATOM     11  C   UNL     1       2.019   2.008  18.332  0.00  0.00    +0.000 C 
BRANCH  11  12
ATOM     12  C   UNL     1       1.473   1.859  19.760  0.00  0.00    +0.000 C 
BRANCH  12  13
ATOM     13  C   UNL     1       0.921   3.147  20.356  0.00  0.00    +0.000 C 
BRANCH  13  15
ATOM     14  O   UNL     1       2.269   3.058  22.342  0.00  0.00    +0.000 OA
ATOM     15  C   UNL     1       1.854   3.708  21.393  0.00  0.00    +0.000 C 
BRANCH  15  16
ATOM     16  O   UNL     1       2.240   4.976  21.149  0.00  0.00    +0.000 OA
ATOM     17  H   UNL     1       1.733   5.427  20.446  0.00  0.00    +0.000 HD
ENDBRANCH  15  16
ENDBRANCH  13  15
ENDBRANCH  12  13
ENDBRANCH  11  12
ENDBRANCH   7  11
ENDBRANCH   1   8
BRANCH   6  18
ATOM     18  N   UNL     1       2.877   7.166  18.423  0.00  0.00    +0.000 N 
ATOM     19  C   UNL     1       2.396   8.395  17.990  0.00  0.00    +0.000 C 
ATOM     20  O   UNL     1       2.754   8.981  16.972  0.00  0.00    +0.000 OA
ATOM     21  H   UNL     1       2.342   6.634  19.098  0.00  0.00    +0.000 HD
BRANCH  19  22
ATOM     22  C   UNL     1       1.371   9.098  18.811  0.00  0.00    +0.000 A 
ATOM     23  C   UNL     1       1.501   8.964  20.207  0.00  0.00    +0.000 A 
ATOM     24  C   UNL     1       0.619   9.617  21.075  0.00  0.00    +0.000 A 
ATOM     25  C   UNL     1      -0.401  10.427  20.563  0.00  0.00    +0.000 A 
ATOM     26  C   UNL     1      -0.529  10.552  19.170  0.00  0.00    +0.000 A 
ATOM     27  C   UNL     1       0.345   9.887  18.287  0.00  0.00    +0.000 A 
BRANCH  24  28
ATOM     28  N   UNL     1       0.766   9.445  22.527  0.00  0.00    +0.000 N 
ATOM     29  O   UNL     1      -0.263   9.268  23.193  0.00  0.00    +0.000 OA
ATOM     30  O   UNL     1       1.909   9.498  22.993  0.00  0.00    +0.000 OA
ENDBRANCH  24  28
BRANCH  26  31
ATOM     31  N   UNL     1      -1.594  11.403  18.625  0.00  0.00    +0.000 N 
ATOM     32  O   UNL     1      -2.736  10.928  18.560  0.00  0.00    +0.000 OA
ATOM     33  O   UNL     1      -1.282  12.548  18.263  0.00  0.00    +0.000 OA
ENDBRANCH  26  31
ENDBRANCH  19  22
ENDBRANCH   6  18
TORSDOF 10
ENDMDL
MODEL 7
REMARK VINA RESULT:      -7.8      3.361      8.406
REMARK  Name = 
REMARK  10 active torsions:
REMARK  status: ('A' for Active; 'I' for Inactive)
REMARK    1  A    between atoms: C_2  and  O_3
REMARK    2  A    between atoms: C_2  and  C_4
REMARK    3  A    between atoms: C_4  and  C_5
REMARK    4  A    between atoms: C_5  and  C_6
REMARK    5  A    between atoms: C_6  and  N_7
REMARK    6  A    between atoms: C_8  and  C_10
REMARK    7  A    between atoms: C_15  and  N_16
REMARK    8  A    between atoms: C_17  and  C_19
REMARK    9  A    between atoms: C_21  and  N_22
REMARK   10  A    between atoms: C_26  and  N_27
REMARK                            x       y       z     vdW  Elec       q    Type
REMARK                         _______ _______ _______ _____ _____    ______ ____
ROOT
ATOM      1  C   UNL     1       5.346   4.795  17.470  0.00  0.00    +0.000 A 
ATOM      2  C   UNL     1       5.949   3.955  16.512  0.00  0.00    +0.000 A 
ATOM      3  C   UNL     1       6.076   4.353  15.184  0.00  0.00    +0.000 A 
ATOM      4  C   UNL     1       5.615   5.605  14.806  0.00  0.00    +0.000 A 
ATOM      5  C   UNL     1       5.018   6.445  15.750  0.00  0.00    +0.000 A 
ATOM      6  C   UNL     1       4.837   6.055  17.089  0.00  0.00    +0.000 A 
ENDROOT
BRANCH   1   8
ATOM      7  N   UNL     1       4.450   3.060  18.951  0.00  0.00    +0.000 N 
ATOM      8  C   UNL     1       5.206   4.211  18.827  0.00  0.00    +0.000 C 
ATOM      9  O   UNL     1       5.712   4.783  19.787  0.00  0.00    +0.000 OA
ATOM     10  H   UNL     1       3.792   2.827  18.212  0.00  0.00    +0.000 HD
BRANCH   7  11
ATOM     11  C   UNL     1       4.212   2.488  20.267  0.00  0.00    +0.000 C 
BRANCH  11  12
ATOM     12  C   UNL     1       2.937   3.009  20.946  0.00  0.00    +0.000 C 
BRANCH  12  13
ATOM     13  C   UNL     1       1.953   3.682  19.997  0.00  0.00    +0.000 C 
BRANCH  13  15
ATOM     14  O   UNL     1       1.579   1.893  18.439  0.00  0.00    +0.000 OA
ATOM     15  C   UNL     1       1.119   2.666  19.269  0.00  0.00    +0.000 C 
BRANCH  15  16
ATOM     16  O   UNL     1      -0.171   2.642  19.656  0.00  0.00    +0.000 OA
ATOM     17  H   UNL     1      -0.400   1.914  20.266  0.00  0.00    +0.000 HD
ENDBRANCH  15  16
ENDBRANCH  13  15
ENDBRANCH  12  13
ENDBRANCH  11  12
ENDBRANCH   7  11
ENDBRANCH   1   8
BRANCH   6  18
ATOM     18  N   UNL     1       4.159   6.905  18.017  0.00  0.00    +0.000 N 
ATOM     19  C   UNL     1       2.784   6.905  18.216  0.00  0.00    +0.000 C 
ATOM     20  O   UNL     1       2.003   6.058  17.793  0.00  0.00    +0.000 OA
ATOM     21  H   UNL     1       4.747   7.466  18.619  0.00  0.00    +0.000 HD
BRANCH  19  22
ATOM     22  C   UNL     1       2.169   8.020  18.988  0.00  0.00    +0.000 A 
ATOM     23  C   UNL     1       2.188   9.285  18.368  0.00  0.00    +0.000 A 
ATOM     24  C   UNL     1       1.600  10.395  18.984  0.00  0.00    +0.000 A 
ATOM     25  C   UNL     1       0.969  10.258  20.226  0.00  0.00    +0.000 A 
ATOM     26  C   UNL     1       0.958   8.996  20.842  0.00  0.00    +0.000 A 
ATOM     27  C   UNL     1       1.560   7.874  20.236  0.00  0.00    +0.000 A 
BRANCH  24  28
ATOM     28  N   UNL     1       1.652  11.707  18.323  0.00  0.00    +0.000 N 
ATOM     29  O   UNL     1       2.715  12.036  17.780  0.00  0.00    +0.000 OA
ATOM     30  O   UNL     1       0.633  12.404  18.362  0.00  0.00    +0.000 OA
ENDBRANCH  24  28
BRANCH  26  31
ATOM     31  N   UNL     1       0.294   8.843  22.142  0.00  0.00    +0.000 N 
ATOM     32  O   UNL     1       0.810   9.399  23.122  0.00  0.00    +0.000 OA
ATOM     33  O   UNL     1      -0.744   8.165  22.178  0.00  0.00    +0.000 OA
ENDBRANCH  26  31
ENDBRANCH  19  22
ENDBRANCH   6  18
TORSDOF 10
ENDMDL
MODEL 8
REMARK VINA RESULT:      -7.8      3.388      8.247
REMARK  Name = 
REMARK  10 active torsions:
REMARK  status: ('A' for Active; 'I' for Inactive)
REMARK    1  A    between atoms: C_2  and  O_3
REMARK    2  A    between atoms: C_2  and  C_4
REMARK    3  A    between atoms: C_4  and  C_5
REMARK    4  A    between atoms: C_5  and  C_6
REMARK    5  A    between atoms: C_6  and  N_7
REMARK    6  A    between atoms: C_8  and  C_10
REMARK    7  A    between atoms: C_15  and  N_16
REMARK    8  A    between atoms: C_17  and  C_19
REMARK    9  A    between atoms: C_21  and  N_22
REMARK   10  A    between atoms: C_26  and  N_27
REMARK                            x       y       z     vdW  Elec       q    Type
REMARK                         _______ _______ _______ _____ _____    ______ ____
ROOT
ATOM      1  C   UNL     1       3.261   5.435  17.707  0.00  0.00    +0.000 A 
ATOM      2  C   UNL     1       4.049   4.650  16.842  0.00  0.00    +0.000 A 
ATOM      3  C   UNL     1       5.120   5.203  16.145  0.00  0.00    +0.000 A 
ATOM      4  C   UNL     1       5.423   6.545  16.320  0.00  0.00    +0.000 A 
ATOM      5  C   UNL     1       4.647   7.329  17.179  0.00  0.00    +0.000 A 
ATOM      6  C   UNL     1       3.533   6.811  17.863  0.00  0.00    +0.000 A 
ENDROOT
BRANCH   1   8
ATOM      7  N   UNL     1       1.950   4.842  19.692  0.00  0.00    +0.000 N 
ATOM      8  C   UNL     1       2.106   4.735  18.322  0.00  0.00    +0.000 C 
ATOM      9  O   UNL     1       1.368   4.053  17.618  0.00  0.00    +0.000 OA
ATOM     10  H   UNL     1       2.749   5.121  20.253  0.00  0.00    +0.000 HD
BRANCH   7  11
ATOM     11  C   UNL     1       0.884   4.112  20.358  0.00  0.00    +0.000 C 
BRANCH  11  12
ATOM     12  C   UNL     1       1.323   2.753  20.923  0.00  0.00    +0.000 C 
BRANCH  12  13
ATOM     13  C   UNL     1       2.779   2.704  21.370  0.00  0.00    +0.000 C 
BRANCH  13  15
ATOM     14  O   UNL     1       4.885   2.118  20.375  0.00  0.00    +0.000 OA
ATOM     15  C   UNL     1       3.668   2.192  20.272  0.00  0.00    +0.000 C 
BRANCH  15  16
ATOM     16  O   UNL     1       2.997   1.765  19.184  0.00  0.00    +0.000 OA
ATOM     17  H   UNL     1       3.189   2.265  18.366  0.00  0.00    +0.000 HD
ENDBRANCH  15  16
ENDBRANCH  13  15
ENDBRANCH  12  13
ENDBRANCH  11  12
ENDBRANCH   7  11
ENDBRANCH   1   8
BRANCH   6  18
ATOM     18  N   UNL     1       2.715   7.653  18.679  0.00  0.00    +0.000 N 
ATOM     19  C   UNL     1       2.009   8.751  18.206  0.00  0.00    +0.000 C 
ATOM     20  O   UNL     1       1.822   9.023  17.023  0.00  0.00    +0.000 OA
ATOM     21  H   UNL     1       2.584   7.355  19.637  0.00  0.00    +0.000 HD
BRANCH  19  22
ATOM     22  C   UNL     1       1.430   9.712  19.186  0.00  0.00    +0.000 A 
ATOM     23  C   UNL     1       0.920   9.151  20.373  0.00  0.00    +0.000 A 
ATOM     24  C   UNL     1       0.392   9.964  21.381  0.00  0.00    +0.000 A 
ATOM     25  C   UNL     1       0.374  11.355  21.227  0.00  0.00    +0.000 A 
ATOM     26  C   UNL     1       0.878  11.909  20.038  0.00  0.00    +0.000 A 
ATOM     27  C   UNL     1       1.400  11.097  19.010  0.00  0.00    +0.000 A 
BRANCH  24  28
ATOM     28  N   UNL     1      -0.150   9.351  22.602  0.00  0.00    +0.000 N 
ATOM     29  O   UNL     1       0.176   9.845  23.689  0.00  0.00    +0.000 OA
ATOM     30  O   UNL     1      -0.890   8.370  22.465  0.00  0.00    +0.000 OA
ENDBRANCH  24  28
BRANCH  26  31
ATOM     31  N   UNL     1       0.868  13.367  19.869  0.00  0.00    +0.000 N 
ATOM     32  O   UNL     1       0.596  14.060  20.859  0.00  0.00    +0.000 OA
ATOM     33  O   UNL     1       1.134  13.814  18.743  0.00  0.00    +0.000 OA
ENDBRANCH  26  31
ENDBRANCH  19  22
ENDBRANCH   6  18
TORSDOF 10
ENDMDL
MODEL 9
REMARK VINA RESULT:      -7.8      3.237      8.184
REMARK  Name = 
REMARK  10 active torsions:
REMARK  status: ('A' for Active; 'I' for Inactive)
REMARK    1  A    between atoms: C_2  and  O_3
REMARK    2  A    between atoms: C_2  and  C_4
REMARK    3  A    between atoms: C_4  and  C_5
REMARK    4  A    between atoms: C_5  and  C_6
REMARK    5  A    between atoms: C_6  and  N_7
REMARK    6  A    between atoms: C_8  and  C_10
REMARK    7  A    between atoms: C_15  and  N_16
REMARK    8  A    between atoms: C_17  and  C_19
REMARK    9  A    between atoms: C_21  and  N_22
REMARK   10  A    between atoms: C_26  and  N_27
REMARK                            x       y       z     vdW  Elec       q    Type
REMARK                         _______ _______ _______ _____ _____    ______ ____
ROOT
ATOM      1  C   UNL     1       3.648   4.280  18.356  0.00  0.00    +0.000 A 
ATOM      2  C   UNL     1       3.848   2.903  18.126  0.00  0.00    +0.000 A 
ATOM      3  C   UNL     1       2.776   2.014  18.109  0.00  0.00    +0.000 A 
ATOM      4  C   UNL     1       1.492   2.497  18.306  0.00  0.00    +0.000 A 
ATOM      5  C   UNL     1       1.286   3.861  18.533  0.00  0.00    +0.000 A 
ATOM      6  C   UNL     1       2.351   4.777  18.598  0.00  0.00    +0.000 A 
ENDROOT
BRANCH   1   8
ATOM      7  N   UNL     1       5.141   5.959  17.377  0.00  0.00    +0.000 N 
ATOM      8  C   UNL     1       4.885   5.096  18.426  0.00  0.00    +0.000 C 
ATOM      9  O   UNL     1       5.656   4.946  19.370  0.00  0.00    +0.000 OA
ATOM     10  H   UNL     1       4.670   5.801  16.490  0.00  0.00    +0.000 HD
BRANCH   7  11
ATOM     11  C   UNL     1       6.377   6.724  17.353  0.00  0.00    +0.000 C 
BRANCH  11  12
ATOM     12  C   UNL     1       7.502   6.057  16.547  0.00  0.00    +0.000 C 
BRANCH  12  13
ATOM     13  C   UNL     1       7.144   4.684  15.992  0.00  0.00    +0.000 C 
BRANCH  13  15
ATOM     14  O   UNL     1       6.166   4.087  13.881  0.00  0.00    +0.000 OA
ATOM     15  C   UNL     1       7.014   4.720  14.495  0.00  0.00    +0.000 C 
BRANCH  15  16
ATOM     16  O   UNL     1       7.880   5.560  13.894  0.00  0.00    +0.000 OA
ATOM     17  H   UNL     1       7.708   6.507  14.058  0.00  0.00    +0.000 HD
ENDBRANCH  15  16
ENDBRANCH  13  15
ENDBRANCH  12  13
ENDBRANCH  11  12
ENDBRANCH   7  11
ENDBRANCH   1   8
BRANCH   6  18
ATOM     18  N   UNL     1       2.117   6.154  18.903  0.00  0.00    +0.000 N 
ATOM     19  C   UNL     1       1.935   6.651  20.187  0.00  0.00    +0.000 C 
ATOM     20  O   UNL     1       2.151   6.034  21.227  0.00  0.00    +0.000 OA
ATOM     21  H   UNL     1       2.186   6.800  18.127  0.00  0.00    +0.000 HD
BRANCH  19  22
ATOM     22  C   UNL     1       1.418   8.037  20.357  0.00  0.00    +0.000 A 
ATOM     23  C   UNL     1       0.861   8.339  21.615  0.00  0.00    +0.000 A 
ATOM     24  C   UNL     1       0.384   9.623  21.899  0.00  0.00    +0.000 A 
ATOM     25  C   UNL     1       0.468  10.634  20.935  0.00  0.00    +0.000 A 
ATOM     26  C   UNL     1       1.020  10.326  19.681  0.00  0.00    +0.000 A 
ATOM     27  C   UNL     1       1.490   9.031  19.379  0.00  0.00    +0.000 A 
BRANCH  24  28
ATOM     28  N   UNL     1      -0.210   9.904  23.214  0.00  0.00    +0.000 N 
ATOM     29  O   UNL     1      -1.291  10.507  23.240  0.00  0.00    +0.000 OA
ATOM     30  O   UNL     1       0.415   9.530  24.212  0.00  0.00    +0.000 OA
ENDBRANCH  24  28
BRANCH  26  31
ATOM     31  N   UNL     1       1.115  11.381  18.665  0.00  0.00    +0.000 N 
ATOM     32  O   UNL     1       2.210  11.550  18.110  0.00  0.00    +0.000 OA
ATOM     33  O   UNL     1       0.091  12.038  18.425  0.00  0.00    +0.000 OA
ENDBRANCH  26  31
ENDBRANCH  19  22
ENDBRANCH   6  18
TORSDOF 10
ENDMDL
